data_str_m2_o2_o10_pcu_sym.167
_audit_creation_date              2020-01-03
_audit_creation_method            'Materials Studio'
_symmetry_space_group_name_H-M    'P1'
_symmetry_Int_Tables_number       1
_symmetry_cell_setting            triclinic
loop_
_symmetry_equiv_pos_as_xyz
  x,y,z
_cell_length_a                    26.3214
_cell_length_b                    30.1836
_cell_length_c                    27.7318
_cell_angle_alpha                 90.2876
_cell_angle_beta                  96.7447
_cell_angle_gamma                 89.6446
loop_
_atom_site_label
_atom_site_type_symbol
_atom_site_fract_x
_atom_site_fract_y
_atom_site_fract_z
_atom_site_U_iso_or_equiv
_atom_site_adp_type
_atom_site_occupancy
C1     C     0.16649   0.16500   0.24984   0.00000  Uiso   1.00
C2     C     0.16742   0.33509   0.25023   0.00000  Uiso   1.00
C3     C     0.20556   0.27107   0.05842   0.00000  Uiso   1.00
C4     C     0.14299   0.21594   0.44319   0.00000  Uiso   1.00
C5     C     0.20459   0.27100   0.10903   0.00000  Uiso   1.00
C6     C     0.14309   0.21676   0.39248   0.00000  Uiso   1.00
C7     C     0.12870   0.22904   0.10035   0.00000  Uiso   1.00
C8     C     0.19011   0.28329   0.39809   0.00000  Uiso   1.00
C9     C     0.12771   0.22897   0.04952   0.00000  Uiso   1.00
C10    C     0.19018   0.28412   0.44883   0.00000  Uiso   1.00
C11    C     0.16663   0.25002   0.02733   0.00000  Uiso   1.00
C12    C     0.16661   0.25002   0.47264   0.00000  Uiso   1.00
C13    C     0.06821   0.25079   0.23828   0.00000  Uiso   1.00
C14    C     0.26512   0.24893   0.26174   0.00000  Uiso   1.00
C15    C     0.01444   0.26062   0.23495   0.00000  Uiso   1.00
C16    C     0.31893   0.23913   0.26522   0.00000  Uiso   1.00
C17    C     0.14240   0.04719   0.28055   0.00000  Uiso   1.00
C18    C     0.15103   0.45329   0.21077   0.00000  Uiso   1.00
C19    C     0.14067   0.09312   0.28083   0.00000  Uiso   1.00
C20    C     0.14982   0.40739   0.20981   0.00000  Uiso   1.00
C21    C     0.16820   0.11687   0.24965   0.00000  Uiso   1.00
C22    C     0.16919   0.38340   0.25092   0.00000  Uiso   1.00
C23    C     0.19780   0.09462   0.21835   0.00000  Uiso   1.00
C24    C     0.19032   0.40568   0.29293   0.00000  Uiso   1.00
C25    C     0.20136   0.04832   0.21864   0.00000  Uiso   1.00
C26    C     0.19312   0.45200   0.29417   0.00000  Uiso   1.00
C27    C     0.17338   0.02448   0.25068   0.00000  Uiso   1.00
C28    C     0.17348   0.47592   0.25205   0.00000  Uiso   1.00
Cu29   Cu    0.16667   0.25000   0.29821   0.00000  Uiso   1.00
Cu30   Cu    0.16667   0.25001   0.20178   0.00000  Uiso   1.00
H31    H     0.11703   0.11010   0.30462   0.00000  Uiso   1.00
H32    H     0.13284   0.39069   0.17724   0.00000  Uiso   1.00
H33    H     0.21904   0.11359   0.19444   0.00000  Uiso   1.00
H34    H     0.20539   0.38678   0.32461   0.00000  Uiso   1.00
H35    H     0.23715   0.28715   0.04409   0.00000  Uiso   1.00
H36    H     0.12501   0.18829   0.45897   0.00000  Uiso   1.00
H37    H     0.23445   0.28777   0.13206   0.00000  Uiso   1.00
H38    H     0.12432   0.19049   0.37063   0.00000  Uiso   1.00
H39    H     0.09870   0.21233   0.11652   0.00000  Uiso   1.00
H40    H     0.20878   0.30960   0.38069   0.00000  Uiso   1.00
N41    N     0.16667   0.25001   0.12934   0.00000  Uiso   1.00
N42    N     0.16667   0.24999   0.37065   0.00000  Uiso   1.00
O43    O     0.16667   0.18572   0.29071   0.00000  Uiso   1.00
O44    O     0.16666   0.31428   0.20928   0.00000  Uiso   1.00
O45    O     0.16667   0.18573   0.20928   0.00000  Uiso   1.00
O46    O     0.16666   0.31427   0.29072   0.00000  Uiso   1.00
O47    O     0.09161   0.25000   0.28132   0.00000  Uiso   1.00
O48    O     0.24172   0.25000   0.21868   0.00000  Uiso   1.00
O49    O     0.09161   0.25000   0.19988   0.00000  Uiso   1.00
O50    O     0.24172   0.25000   0.30011   0.00000  Uiso   1.00
C51    C     0.32916   0.30029   0.20296   0.00000  Uiso   1.00
C52    C     0.02937   0.34121   0.21353   0.00000  Uiso   1.00
H53    H     0.03488   0.34848   0.25311   0.00000  Uiso   1.00
H54    H     0.06698   0.33608   0.20018   0.00000  Uiso   1.00
H55    H     0.01083   0.37036   0.19431   0.00000  Uiso   1.00
H56    H     0.32915   0.29078   0.16421   0.00000  Uiso   1.00
H57    H     0.29014   0.31167   0.20805   0.00000  Uiso   1.00
C58    C     0.00420   0.19965   0.29758   0.00000  Uiso   1.00
C59    C     0.30509   0.15823   0.28594   0.00000  Uiso   1.00
H60    H     0.26669   0.16263   0.29792   0.00000  Uiso   1.00
H61    H     0.30127   0.15099   0.24637   0.00000  Uiso   1.00
H62    H     0.32360   0.12932   0.30564   0.00000  Uiso   1.00
H63    H     0.04377   0.18893   0.29385   0.00000  Uiso   1.00
H64    H     0.00285   0.20900   0.33621   0.00000  Uiso   1.00
H65    H     0.11933   0.02919   0.30367   0.00000  Uiso   1.00
H66    H     0.13419   0.47136   0.17913   0.00000  Uiso   1.00
C67    C     0.23465   0.02609   0.18425   0.00000  Uiso   1.00
C68    C     0.28308   0.00561   0.21093   0.00000  Uiso   1.00
H69    H     0.30425   0.03060   0.23488   0.00000  Uiso   1.00
H70    H     0.27366   0.47673   0.23266   0.00000  Uiso   1.00
H71    H     0.30832   0.49381   0.18409   0.00000  Uiso   1.00
H72    H     0.21288   0.00053   0.16183   0.00000  Uiso   1.00
H73    H     0.24671   0.05061   0.15810   0.00000  Uiso   1.00
C74    C     0.21637   0.47420   0.34086   0.00000  Uiso   1.00
C75    C     0.26797   0.49535   0.33584   0.00000  Uiso   1.00
H76    H     0.29430   0.47072   0.32198   0.00000  Uiso   1.00
H77    H     0.26331   0.02428   0.31125   0.00000  Uiso   1.00
H78    H     0.28542   0.00722   0.37196   0.00000  Uiso   1.00
H79    H     0.18986   0.49937   0.35314   0.00000  Uiso   1.00
H80    H     0.22250   0.44958   0.37069   0.00000  Uiso   1.00
H81    H     0.09610   0.21293   0.02798   0.00000  Uiso   1.00
H82    H     0.20811   0.31180   0.46891   0.00000  Uiso   1.00
C83    C     0.49982   0.16500   0.24984   0.00000  Uiso   1.00
C84    C     0.50075   0.33509   0.25023   0.00000  Uiso   1.00
C85    C     0.53889   0.27107   0.05842   0.00000  Uiso   1.00
C86    C     0.47632   0.21594   0.44319   0.00000  Uiso   1.00
C87    C     0.53792   0.27100   0.10903   0.00000  Uiso   1.00
C88    C     0.47642   0.21676   0.39248   0.00000  Uiso   1.00
C89    C     0.46203   0.22904   0.10035   0.00000  Uiso   1.00
C90    C     0.52344   0.28329   0.39809   0.00000  Uiso   1.00
C91    C     0.46105   0.22897   0.04952   0.00000  Uiso   1.00
C92    C     0.52351   0.28412   0.44883   0.00000  Uiso   1.00
C93    C     0.49997   0.25002   0.02733   0.00000  Uiso   1.00
C94    C     0.49994   0.25002   0.47264   0.00000  Uiso   1.00
C95    C     0.40154   0.25079   0.23828   0.00000  Uiso   1.00
C96    C     0.59845   0.24893   0.26174   0.00000  Uiso   1.00
C97    C     0.34777   0.26062   0.23495   0.00000  Uiso   1.00
C98    C     0.65227   0.23913   0.26522   0.00000  Uiso   1.00
C99    C     0.47573   0.04719   0.28055   0.00000  Uiso   1.00
C100   C     0.48436   0.45329   0.21077   0.00000  Uiso   1.00
C101   C     0.47401   0.09312   0.28083   0.00000  Uiso   1.00
C102   C     0.48315   0.40739   0.20981   0.00000  Uiso   1.00
C103   C     0.50154   0.11687   0.24965   0.00000  Uiso   1.00
C104   C     0.50253   0.38340   0.25092   0.00000  Uiso   1.00
C105   C     0.53113   0.09462   0.21835   0.00000  Uiso   1.00
C106   C     0.52365   0.40568   0.29293   0.00000  Uiso   1.00
C107   C     0.53469   0.04832   0.21864   0.00000  Uiso   1.00
C108   C     0.52645   0.45200   0.29417   0.00000  Uiso   1.00
C109   C     0.50671   0.02448   0.25068   0.00000  Uiso   1.00
C110   C     0.50681   0.47592   0.25205   0.00000  Uiso   1.00
Cu111  Cu    0.50000   0.25000   0.29821   0.00000  Uiso   1.00
Cu112  Cu    0.50000   0.25001   0.20178   0.00000  Uiso   1.00
H113   H     0.45036   0.11010   0.30462   0.00000  Uiso   1.00
H114   H     0.46618   0.39069   0.17724   0.00000  Uiso   1.00
H115   H     0.55238   0.11359   0.19444   0.00000  Uiso   1.00
H116   H     0.53872   0.38678   0.32461   0.00000  Uiso   1.00
H117   H     0.57049   0.28715   0.04409   0.00000  Uiso   1.00
H118   H     0.45834   0.18829   0.45897   0.00000  Uiso   1.00
H119   H     0.56779   0.28777   0.13206   0.00000  Uiso   1.00
H120   H     0.45765   0.19049   0.37063   0.00000  Uiso   1.00
H121   H     0.43203   0.21233   0.11652   0.00000  Uiso   1.00
H122   H     0.54211   0.30960   0.38069   0.00000  Uiso   1.00
N123   N     0.50000   0.25001   0.12934   0.00000  Uiso   1.00
N124   N     0.50000   0.24999   0.37065   0.00000  Uiso   1.00
O125   O     0.50000   0.18572   0.29071   0.00000  Uiso   1.00
O126   O     0.50000   0.31428   0.20928   0.00000  Uiso   1.00
O127   O     0.50000   0.18573   0.20928   0.00000  Uiso   1.00
O128   O     0.50000   0.31427   0.29072   0.00000  Uiso   1.00
O129   O     0.42495   0.25000   0.28132   0.00000  Uiso   1.00
O130   O     0.57505   0.25000   0.21868   0.00000  Uiso   1.00
O131   O     0.42495   0.25000   0.19988   0.00000  Uiso   1.00
O132   O     0.57505   0.25000   0.30011   0.00000  Uiso   1.00
C133   C     0.66250   0.30029   0.20296   0.00000  Uiso   1.00
C134   C     0.36270   0.34121   0.21353   0.00000  Uiso   1.00
H135   H     0.36821   0.34848   0.25311   0.00000  Uiso   1.00
H136   H     0.40032   0.33608   0.20018   0.00000  Uiso   1.00
H137   H     0.34417   0.37036   0.19431   0.00000  Uiso   1.00
H138   H     0.66248   0.29078   0.16421   0.00000  Uiso   1.00
H139   H     0.62348   0.31167   0.20805   0.00000  Uiso   1.00
C140   C     0.33753   0.19965   0.29758   0.00000  Uiso   1.00
C141   C     0.63843   0.15823   0.28594   0.00000  Uiso   1.00
H142   H     0.60003   0.16263   0.29792   0.00000  Uiso   1.00
H143   H     0.63460   0.15099   0.24637   0.00000  Uiso   1.00
H144   H     0.65694   0.12932   0.30564   0.00000  Uiso   1.00
H145   H     0.37710   0.18893   0.29385   0.00000  Uiso   1.00
H146   H     0.33619   0.20900   0.33621   0.00000  Uiso   1.00
H147   H     0.45267   0.02919   0.30367   0.00000  Uiso   1.00
H148   H     0.46752   0.47136   0.17913   0.00000  Uiso   1.00
C149   C     0.56798   0.02609   0.18425   0.00000  Uiso   1.00
C150   C     0.61641   0.00561   0.21093   0.00000  Uiso   1.00
H151   H     0.63758   0.03060   0.23488   0.00000  Uiso   1.00
H152   H     0.60699   0.47673   0.23266   0.00000  Uiso   1.00
H153   H     0.64166   0.49381   0.18409   0.00000  Uiso   1.00
H154   H     0.54621   0.00053   0.16183   0.00000  Uiso   1.00
H155   H     0.58004   0.05061   0.15810   0.00000  Uiso   1.00
C156   C     0.54970   0.47420   0.34086   0.00000  Uiso   1.00
C157   C     0.60131   0.49535   0.33584   0.00000  Uiso   1.00
H158   H     0.62763   0.47072   0.32198   0.00000  Uiso   1.00
H159   H     0.59664   0.02428   0.31125   0.00000  Uiso   1.00
H160   H     0.61876   0.00722   0.37196   0.00000  Uiso   1.00
H161   H     0.52319   0.49937   0.35314   0.00000  Uiso   1.00
H162   H     0.55583   0.44958   0.37069   0.00000  Uiso   1.00
H163   H     0.42943   0.21293   0.02798   0.00000  Uiso   1.00
H164   H     0.54144   0.31180   0.46891   0.00000  Uiso   1.00
C165   C     0.83316   0.16500   0.24984   0.00000  Uiso   1.00
C166   C     0.83409   0.33509   0.25023   0.00000  Uiso   1.00
C167   C     0.87223   0.27107   0.05842   0.00000  Uiso   1.00
C168   C     0.80966   0.21594   0.44319   0.00000  Uiso   1.00
C169   C     0.87125   0.27100   0.10903   0.00000  Uiso   1.00
C170   C     0.80975   0.21676   0.39248   0.00000  Uiso   1.00
C171   C     0.79536   0.22904   0.10035   0.00000  Uiso   1.00
C172   C     0.85678   0.28329   0.39809   0.00000  Uiso   1.00
C173   C     0.79438   0.22897   0.04952   0.00000  Uiso   1.00
C174   C     0.85685   0.28412   0.44883   0.00000  Uiso   1.00
C175   C     0.83330   0.25002   0.02733   0.00000  Uiso   1.00
C176   C     0.83328   0.25002   0.47264   0.00000  Uiso   1.00
C177   C     0.73487   0.25079   0.23828   0.00000  Uiso   1.00
C178   C     0.93179   0.24893   0.26174   0.00000  Uiso   1.00
C179   C     0.68110   0.26062   0.23495   0.00000  Uiso   1.00
C180   C     0.98560   0.23913   0.26522   0.00000  Uiso   1.00
C181   C     0.80907   0.04719   0.28055   0.00000  Uiso   1.00
C182   C     0.81770   0.45329   0.21077   0.00000  Uiso   1.00
C183   C     0.80734   0.09312   0.28083   0.00000  Uiso   1.00
C184   C     0.81648   0.40739   0.20981   0.00000  Uiso   1.00
C185   C     0.83487   0.11687   0.24965   0.00000  Uiso   1.00
C186   C     0.83586   0.38340   0.25092   0.00000  Uiso   1.00
C187   C     0.86446   0.09462   0.21835   0.00000  Uiso   1.00
C188   C     0.85698   0.40568   0.29293   0.00000  Uiso   1.00
C189   C     0.86803   0.04832   0.21864   0.00000  Uiso   1.00
C190   C     0.85979   0.45200   0.29417   0.00000  Uiso   1.00
C191   C     0.84005   0.02448   0.25068   0.00000  Uiso   1.00
C192   C     0.84015   0.47592   0.25205   0.00000  Uiso   1.00
Cu193  Cu    0.83333   0.25000   0.29821   0.00000  Uiso   1.00
Cu194  Cu    0.83333   0.25001   0.20178   0.00000  Uiso   1.00
H195   H     0.78369   0.11010   0.30462   0.00000  Uiso   1.00
H196   H     0.79951   0.39069   0.17724   0.00000  Uiso   1.00
H197   H     0.88571   0.11359   0.19444   0.00000  Uiso   1.00
H198   H     0.87206   0.38678   0.32461   0.00000  Uiso   1.00
H199   H     0.90382   0.28715   0.04409   0.00000  Uiso   1.00
H200   H     0.79167   0.18829   0.45897   0.00000  Uiso   1.00
H201   H     0.90112   0.28777   0.13206   0.00000  Uiso   1.00
H202   H     0.79098   0.19049   0.37063   0.00000  Uiso   1.00
H203   H     0.76537   0.21233   0.11652   0.00000  Uiso   1.00
H204   H     0.87545   0.30960   0.38069   0.00000  Uiso   1.00
N205   N     0.83333   0.25001   0.12934   0.00000  Uiso   1.00
N206   N     0.83333   0.24999   0.37065   0.00000  Uiso   1.00
O207   O     0.83334   0.18572   0.29071   0.00000  Uiso   1.00
O208   O     0.83333   0.31428   0.20928   0.00000  Uiso   1.00
O209   O     0.83334   0.18573   0.20928   0.00000  Uiso   1.00
O210   O     0.83333   0.31427   0.29072   0.00000  Uiso   1.00
O211   O     0.75828   0.25000   0.28132   0.00000  Uiso   1.00
O212   O     0.90839   0.25000   0.21868   0.00000  Uiso   1.00
O213   O     0.75828   0.25000   0.19988   0.00000  Uiso   1.00
O214   O     0.90839   0.25000   0.30011   0.00000  Uiso   1.00
C215   C     0.99583   0.30029   0.20296   0.00000  Uiso   1.00
C216   C     0.69603   0.34121   0.21353   0.00000  Uiso   1.00
H217   H     0.70154   0.34848   0.25311   0.00000  Uiso   1.00
H218   H     0.73365   0.33608   0.20018   0.00000  Uiso   1.00
H219   H     0.67750   0.37036   0.19431   0.00000  Uiso   1.00
H220   H     0.99581   0.29078   0.16421   0.00000  Uiso   1.00
H221   H     0.95681   0.31167   0.20805   0.00000  Uiso   1.00
C222   C     0.67087   0.19965   0.29758   0.00000  Uiso   1.00
C223   C     0.97176   0.15823   0.28594   0.00000  Uiso   1.00
H224   H     0.93336   0.16263   0.29792   0.00000  Uiso   1.00
H225   H     0.96793   0.15099   0.24637   0.00000  Uiso   1.00
H226   H     0.99027   0.12932   0.30564   0.00000  Uiso   1.00
H227   H     0.71044   0.18893   0.29385   0.00000  Uiso   1.00
H228   H     0.66952   0.20900   0.33621   0.00000  Uiso   1.00
H229   H     0.78600   0.02919   0.30367   0.00000  Uiso   1.00
H230   H     0.80086   0.47136   0.17913   0.00000  Uiso   1.00
C231   C     0.90131   0.02609   0.18425   0.00000  Uiso   1.00
C232   C     0.94975   0.00561   0.21093   0.00000  Uiso   1.00
H233   H     0.97092   0.03060   0.23488   0.00000  Uiso   1.00
H234   H     0.94032   0.47673   0.23266   0.00000  Uiso   1.00
H235   H     0.97499   0.49381   0.18409   0.00000  Uiso   1.00
H236   H     0.87955   0.00053   0.16183   0.00000  Uiso   1.00
H237   H     0.91338   0.05061   0.15810   0.00000  Uiso   1.00
C238   C     0.88303   0.47420   0.34086   0.00000  Uiso   1.00
C239   C     0.93464   0.49535   0.33584   0.00000  Uiso   1.00
H240   H     0.96097   0.47072   0.32198   0.00000  Uiso   1.00
H241   H     0.92997   0.02428   0.31125   0.00000  Uiso   1.00
H242   H     0.95209   0.00722   0.37196   0.00000  Uiso   1.00
H243   H     0.85652   0.49937   0.35314   0.00000  Uiso   1.00
H244   H     0.88916   0.44958   0.37069   0.00000  Uiso   1.00
H245   H     0.76276   0.21293   0.02798   0.00000  Uiso   1.00
H246   H     0.87477   0.31180   0.46891   0.00000  Uiso   1.00
C247   C     0.16649   0.66500   0.24984   0.00000  Uiso   1.00
C248   C     0.16742   0.83509   0.25023   0.00000  Uiso   1.00
C249   C     0.20556   0.77107   0.05842   0.00000  Uiso   1.00
C250   C     0.14299   0.71594   0.44319   0.00000  Uiso   1.00
C251   C     0.20459   0.77100   0.10903   0.00000  Uiso   1.00
C252   C     0.14309   0.71676   0.39248   0.00000  Uiso   1.00
C253   C     0.12870   0.72904   0.10035   0.00000  Uiso   1.00
C254   C     0.19011   0.78329   0.39809   0.00000  Uiso   1.00
C255   C     0.12771   0.72897   0.04952   0.00000  Uiso   1.00
C256   C     0.19018   0.78412   0.44883   0.00000  Uiso   1.00
C257   C     0.16663   0.75002   0.02733   0.00000  Uiso   1.00
C258   C     0.16661   0.75002   0.47264   0.00000  Uiso   1.00
C259   C     0.06821   0.75079   0.23828   0.00000  Uiso   1.00
C260   C     0.26512   0.74893   0.26174   0.00000  Uiso   1.00
C261   C     0.01444   0.76062   0.23495   0.00000  Uiso   1.00
C262   C     0.31893   0.73913   0.26522   0.00000  Uiso   1.00
C263   C     0.14240   0.54719   0.28055   0.00000  Uiso   1.00
C264   C     0.15103   0.95329   0.21077   0.00000  Uiso   1.00
C265   C     0.14067   0.59312   0.28083   0.00000  Uiso   1.00
C266   C     0.14982   0.90739   0.20981   0.00000  Uiso   1.00
C267   C     0.16820   0.61687   0.24965   0.00000  Uiso   1.00
C268   C     0.16919   0.88340   0.25092   0.00000  Uiso   1.00
C269   C     0.19780   0.59462   0.21835   0.00000  Uiso   1.00
C270   C     0.19032   0.90568   0.29293   0.00000  Uiso   1.00
C271   C     0.20136   0.54832   0.21864   0.00000  Uiso   1.00
C272   C     0.19312   0.95200   0.29417   0.00000  Uiso   1.00
C273   C     0.17338   0.52448   0.25068   0.00000  Uiso   1.00
C274   C     0.17348   0.97592   0.25205   0.00000  Uiso   1.00
Cu275  Cu    0.16667   0.75000   0.29821   0.00000  Uiso   1.00
Cu276  Cu    0.16667   0.75001   0.20178   0.00000  Uiso   1.00
H277   H     0.11703   0.61010   0.30462   0.00000  Uiso   1.00
H278   H     0.13284   0.89069   0.17724   0.00000  Uiso   1.00
H279   H     0.21904   0.61359   0.19444   0.00000  Uiso   1.00
H280   H     0.20539   0.88678   0.32461   0.00000  Uiso   1.00
H281   H     0.23715   0.78715   0.04409   0.00000  Uiso   1.00
H282   H     0.12501   0.68829   0.45897   0.00000  Uiso   1.00
H283   H     0.23445   0.78777   0.13206   0.00000  Uiso   1.00
H284   H     0.12432   0.69049   0.37063   0.00000  Uiso   1.00
H285   H     0.09870   0.71233   0.11652   0.00000  Uiso   1.00
H286   H     0.20878   0.80960   0.38069   0.00000  Uiso   1.00
N287   N     0.16667   0.75001   0.12934   0.00000  Uiso   1.00
N288   N     0.16667   0.74999   0.37065   0.00000  Uiso   1.00
O289   O     0.16667   0.68572   0.29071   0.00000  Uiso   1.00
O290   O     0.16666   0.81428   0.20928   0.00000  Uiso   1.00
O291   O     0.16667   0.68573   0.20928   0.00000  Uiso   1.00
O292   O     0.16666   0.81427   0.29072   0.00000  Uiso   1.00
O293   O     0.09161   0.75000   0.28132   0.00000  Uiso   1.00
O294   O     0.24172   0.75000   0.21868   0.00000  Uiso   1.00
O295   O     0.09161   0.75000   0.19988   0.00000  Uiso   1.00
O296   O     0.24172   0.75000   0.30011   0.00000  Uiso   1.00
C297   C     0.32916   0.80029   0.20296   0.00000  Uiso   1.00
C298   C     0.02937   0.84121   0.21353   0.00000  Uiso   1.00
H299   H     0.03488   0.84848   0.25311   0.00000  Uiso   1.00
H300   H     0.06698   0.83608   0.20018   0.00000  Uiso   1.00
H301   H     0.01083   0.87036   0.19431   0.00000  Uiso   1.00
H302   H     0.32915   0.79078   0.16421   0.00000  Uiso   1.00
H303   H     0.29014   0.81167   0.20805   0.00000  Uiso   1.00
C304   C     0.00420   0.69965   0.29758   0.00000  Uiso   1.00
C305   C     0.30509   0.65823   0.28594   0.00000  Uiso   1.00
H306   H     0.26669   0.66263   0.29792   0.00000  Uiso   1.00
H307   H     0.30127   0.65099   0.24637   0.00000  Uiso   1.00
H308   H     0.32360   0.62932   0.30564   0.00000  Uiso   1.00
H309   H     0.04377   0.68893   0.29385   0.00000  Uiso   1.00
H310   H     0.00285   0.70900   0.33621   0.00000  Uiso   1.00
H311   H     0.11933   0.52919   0.30367   0.00000  Uiso   1.00
H312   H     0.13419   0.97136   0.17913   0.00000  Uiso   1.00
C313   C     0.23465   0.52609   0.18425   0.00000  Uiso   1.00
C314   C     0.28308   0.50561   0.21093   0.00000  Uiso   1.00
H315   H     0.30425   0.53060   0.23488   0.00000  Uiso   1.00
H316   H     0.27366   0.97673   0.23266   0.00000  Uiso   1.00
H317   H     0.30832   0.99381   0.18409   0.00000  Uiso   1.00
H318   H     0.21288   0.50053   0.16183   0.00000  Uiso   1.00
H319   H     0.24671   0.55061   0.15810   0.00000  Uiso   1.00
C320   C     0.21637   0.97420   0.34086   0.00000  Uiso   1.00
C321   C     0.26797   0.99535   0.33584   0.00000  Uiso   1.00
H322   H     0.29430   0.97072   0.32198   0.00000  Uiso   1.00
H323   H     0.26331   0.52428   0.31125   0.00000  Uiso   1.00
H324   H     0.28542   0.50722   0.37196   0.00000  Uiso   1.00
H325   H     0.18986   0.99937   0.35314   0.00000  Uiso   1.00
H326   H     0.22250   0.94958   0.37069   0.00000  Uiso   1.00
H327   H     0.09610   0.71293   0.02798   0.00000  Uiso   1.00
H328   H     0.20811   0.81180   0.46891   0.00000  Uiso   1.00
C329   C     0.49982   0.66500   0.24984   0.00000  Uiso   1.00
C330   C     0.50075   0.83509   0.25023   0.00000  Uiso   1.00
C331   C     0.53889   0.77107   0.05842   0.00000  Uiso   1.00
C332   C     0.47632   0.71594   0.44319   0.00000  Uiso   1.00
C333   C     0.53792   0.77100   0.10903   0.00000  Uiso   1.00
C334   C     0.47642   0.71676   0.39248   0.00000  Uiso   1.00
C335   C     0.46203   0.72904   0.10035   0.00000  Uiso   1.00
C336   C     0.52344   0.78329   0.39809   0.00000  Uiso   1.00
C337   C     0.46105   0.72897   0.04952   0.00000  Uiso   1.00
C338   C     0.52351   0.78412   0.44883   0.00000  Uiso   1.00
C339   C     0.49997   0.75002   0.02733   0.00000  Uiso   1.00
C340   C     0.49994   0.75002   0.47264   0.00000  Uiso   1.00
C341   C     0.40154   0.75079   0.23828   0.00000  Uiso   1.00
C342   C     0.59845   0.74893   0.26174   0.00000  Uiso   1.00
C343   C     0.34777   0.76062   0.23495   0.00000  Uiso   1.00
C344   C     0.65227   0.73913   0.26522   0.00000  Uiso   1.00
C345   C     0.47573   0.54719   0.28055   0.00000  Uiso   1.00
C346   C     0.48436   0.95329   0.21077   0.00000  Uiso   1.00
C347   C     0.47401   0.59312   0.28083   0.00000  Uiso   1.00
C348   C     0.48315   0.90739   0.20981   0.00000  Uiso   1.00
C349   C     0.50154   0.61687   0.24965   0.00000  Uiso   1.00
C350   C     0.50253   0.88340   0.25092   0.00000  Uiso   1.00
C351   C     0.53113   0.59462   0.21835   0.00000  Uiso   1.00
C352   C     0.52365   0.90568   0.29293   0.00000  Uiso   1.00
C353   C     0.53469   0.54832   0.21864   0.00000  Uiso   1.00
C354   C     0.52645   0.95200   0.29417   0.00000  Uiso   1.00
C355   C     0.50671   0.52448   0.25068   0.00000  Uiso   1.00
C356   C     0.50681   0.97592   0.25205   0.00000  Uiso   1.00
Cu357  Cu    0.50000   0.75000   0.29821   0.00000  Uiso   1.00
Cu358  Cu    0.50000   0.75001   0.20178   0.00000  Uiso   1.00
H359   H     0.45036   0.61010   0.30462   0.00000  Uiso   1.00
H360   H     0.46618   0.89069   0.17724   0.00000  Uiso   1.00
H361   H     0.55238   0.61359   0.19444   0.00000  Uiso   1.00
H362   H     0.53872   0.88678   0.32461   0.00000  Uiso   1.00
H363   H     0.57049   0.78715   0.04409   0.00000  Uiso   1.00
H364   H     0.45834   0.68829   0.45897   0.00000  Uiso   1.00
H365   H     0.56779   0.78777   0.13206   0.00000  Uiso   1.00
H366   H     0.45765   0.69049   0.37063   0.00000  Uiso   1.00
H367   H     0.43203   0.71233   0.11652   0.00000  Uiso   1.00
H368   H     0.54211   0.80960   0.38069   0.00000  Uiso   1.00
N369   N     0.50000   0.75001   0.12934   0.00000  Uiso   1.00
N370   N     0.50000   0.74999   0.37065   0.00000  Uiso   1.00
O371   O     0.50000   0.68572   0.29071   0.00000  Uiso   1.00
O372   O     0.50000   0.81428   0.20928   0.00000  Uiso   1.00
O373   O     0.50000   0.68573   0.20928   0.00000  Uiso   1.00
O374   O     0.50000   0.81427   0.29072   0.00000  Uiso   1.00
O375   O     0.42495   0.75000   0.28132   0.00000  Uiso   1.00
O376   O     0.57505   0.75000   0.21868   0.00000  Uiso   1.00
O377   O     0.42495   0.75000   0.19988   0.00000  Uiso   1.00
O378   O     0.57505   0.75000   0.30011   0.00000  Uiso   1.00
C379   C     0.66250   0.80029   0.20296   0.00000  Uiso   1.00
C380   C     0.36270   0.84121   0.21353   0.00000  Uiso   1.00
H381   H     0.36821   0.84848   0.25311   0.00000  Uiso   1.00
H382   H     0.40032   0.83608   0.20018   0.00000  Uiso   1.00
H383   H     0.34417   0.87036   0.19431   0.00000  Uiso   1.00
H384   H     0.66248   0.79078   0.16421   0.00000  Uiso   1.00
H385   H     0.62348   0.81167   0.20805   0.00000  Uiso   1.00
C386   C     0.33753   0.69965   0.29758   0.00000  Uiso   1.00
C387   C     0.63843   0.65823   0.28594   0.00000  Uiso   1.00
H388   H     0.60003   0.66263   0.29792   0.00000  Uiso   1.00
H389   H     0.63460   0.65099   0.24637   0.00000  Uiso   1.00
H390   H     0.65694   0.62932   0.30564   0.00000  Uiso   1.00
H391   H     0.37710   0.68893   0.29385   0.00000  Uiso   1.00
H392   H     0.33619   0.70900   0.33621   0.00000  Uiso   1.00
H393   H     0.45267   0.52919   0.30367   0.00000  Uiso   1.00
H394   H     0.46752   0.97136   0.17913   0.00000  Uiso   1.00
C395   C     0.56798   0.52609   0.18425   0.00000  Uiso   1.00
C396   C     0.61641   0.50561   0.21093   0.00000  Uiso   1.00
H397   H     0.63758   0.53060   0.23488   0.00000  Uiso   1.00
H398   H     0.60699   0.97673   0.23266   0.00000  Uiso   1.00
H399   H     0.64166   0.99381   0.18409   0.00000  Uiso   1.00
H400   H     0.54621   0.50053   0.16183   0.00000  Uiso   1.00
H401   H     0.58004   0.55061   0.15810   0.00000  Uiso   1.00
C402   C     0.54970   0.97420   0.34086   0.00000  Uiso   1.00
C403   C     0.60131   0.99535   0.33584   0.00000  Uiso   1.00
H404   H     0.62763   0.97072   0.32198   0.00000  Uiso   1.00
H405   H     0.59664   0.52428   0.31125   0.00000  Uiso   1.00
H406   H     0.61876   0.50722   0.37196   0.00000  Uiso   1.00
H407   H     0.52319   0.99937   0.35314   0.00000  Uiso   1.00
H408   H     0.55583   0.94958   0.37069   0.00000  Uiso   1.00
H409   H     0.42943   0.71293   0.02798   0.00000  Uiso   1.00
H410   H     0.54144   0.81180   0.46891   0.00000  Uiso   1.00
C411   C     0.83316   0.66500   0.24984   0.00000  Uiso   1.00
C412   C     0.83409   0.83509   0.25023   0.00000  Uiso   1.00
C413   C     0.87223   0.77107   0.05842   0.00000  Uiso   1.00
C414   C     0.80966   0.71594   0.44319   0.00000  Uiso   1.00
C415   C     0.87125   0.77100   0.10903   0.00000  Uiso   1.00
C416   C     0.80975   0.71676   0.39248   0.00000  Uiso   1.00
C417   C     0.79536   0.72904   0.10035   0.00000  Uiso   1.00
C418   C     0.85678   0.78329   0.39809   0.00000  Uiso   1.00
C419   C     0.79438   0.72897   0.04952   0.00000  Uiso   1.00
C420   C     0.85685   0.78412   0.44883   0.00000  Uiso   1.00
C421   C     0.83330   0.75002   0.02733   0.00000  Uiso   1.00
C422   C     0.83328   0.75002   0.47264   0.00000  Uiso   1.00
C423   C     0.73487   0.75079   0.23828   0.00000  Uiso   1.00
C424   C     0.93179   0.74893   0.26174   0.00000  Uiso   1.00
C425   C     0.68110   0.76062   0.23495   0.00000  Uiso   1.00
C426   C     0.98560   0.73913   0.26522   0.00000  Uiso   1.00
C427   C     0.80907   0.54719   0.28055   0.00000  Uiso   1.00
C428   C     0.81770   0.95329   0.21077   0.00000  Uiso   1.00
C429   C     0.80734   0.59312   0.28083   0.00000  Uiso   1.00
C430   C     0.81648   0.90739   0.20981   0.00000  Uiso   1.00
C431   C     0.83487   0.61687   0.24965   0.00000  Uiso   1.00
C432   C     0.83586   0.88340   0.25092   0.00000  Uiso   1.00
C433   C     0.86446   0.59462   0.21835   0.00000  Uiso   1.00
C434   C     0.85698   0.90568   0.29293   0.00000  Uiso   1.00
C435   C     0.86803   0.54832   0.21864   0.00000  Uiso   1.00
C436   C     0.85979   0.95200   0.29417   0.00000  Uiso   1.00
C437   C     0.84005   0.52448   0.25068   0.00000  Uiso   1.00
C438   C     0.84015   0.97592   0.25205   0.00000  Uiso   1.00
Cu439  Cu    0.83333   0.75000   0.29821   0.00000  Uiso   1.00
Cu440  Cu    0.83333   0.75001   0.20178   0.00000  Uiso   1.00
H441   H     0.78369   0.61010   0.30462   0.00000  Uiso   1.00
H442   H     0.79951   0.89069   0.17724   0.00000  Uiso   1.00
H443   H     0.88571   0.61359   0.19444   0.00000  Uiso   1.00
H444   H     0.87206   0.88678   0.32461   0.00000  Uiso   1.00
H445   H     0.90382   0.78715   0.04409   0.00000  Uiso   1.00
H446   H     0.79167   0.68829   0.45897   0.00000  Uiso   1.00
H447   H     0.90112   0.78777   0.13206   0.00000  Uiso   1.00
H448   H     0.79098   0.69049   0.37063   0.00000  Uiso   1.00
H449   H     0.76537   0.71233   0.11652   0.00000  Uiso   1.00
H450   H     0.87545   0.80960   0.38069   0.00000  Uiso   1.00
N451   N     0.83333   0.75001   0.12934   0.00000  Uiso   1.00
N452   N     0.83333   0.74999   0.37065   0.00000  Uiso   1.00
O453   O     0.83334   0.68572   0.29071   0.00000  Uiso   1.00
O454   O     0.83333   0.81428   0.20928   0.00000  Uiso   1.00
O455   O     0.83334   0.68573   0.20928   0.00000  Uiso   1.00
O456   O     0.83333   0.81427   0.29072   0.00000  Uiso   1.00
O457   O     0.75828   0.75000   0.28132   0.00000  Uiso   1.00
O458   O     0.90839   0.75000   0.21868   0.00000  Uiso   1.00
O459   O     0.75828   0.75000   0.19988   0.00000  Uiso   1.00
O460   O     0.90839   0.75000   0.30011   0.00000  Uiso   1.00
C461   C     0.99583   0.80029   0.20296   0.00000  Uiso   1.00
C462   C     0.69603   0.84121   0.21353   0.00000  Uiso   1.00
H463   H     0.70154   0.84848   0.25311   0.00000  Uiso   1.00
H464   H     0.73365   0.83608   0.20018   0.00000  Uiso   1.00
H465   H     0.67750   0.87036   0.19431   0.00000  Uiso   1.00
H466   H     0.99581   0.79078   0.16421   0.00000  Uiso   1.00
H467   H     0.95681   0.81167   0.20805   0.00000  Uiso   1.00
C468   C     0.67087   0.69965   0.29758   0.00000  Uiso   1.00
C469   C     0.97176   0.65823   0.28594   0.00000  Uiso   1.00
H470   H     0.93336   0.66263   0.29792   0.00000  Uiso   1.00
H471   H     0.96793   0.65099   0.24637   0.00000  Uiso   1.00
H472   H     0.99027   0.62932   0.30564   0.00000  Uiso   1.00
H473   H     0.71044   0.68893   0.29385   0.00000  Uiso   1.00
H474   H     0.66952   0.70900   0.33621   0.00000  Uiso   1.00
H475   H     0.78600   0.52919   0.30367   0.00000  Uiso   1.00
H476   H     0.80086   0.97136   0.17913   0.00000  Uiso   1.00
C477   C     0.90131   0.52609   0.18425   0.00000  Uiso   1.00
C478   C     0.94975   0.50561   0.21093   0.00000  Uiso   1.00
H479   H     0.97092   0.53060   0.23488   0.00000  Uiso   1.00
H480   H     0.94032   0.97673   0.23266   0.00000  Uiso   1.00
H481   H     0.97499   0.99381   0.18409   0.00000  Uiso   1.00
H482   H     0.87955   0.50053   0.16183   0.00000  Uiso   1.00
H483   H     0.91338   0.55061   0.15810   0.00000  Uiso   1.00
C484   C     0.88303   0.97420   0.34086   0.00000  Uiso   1.00
C485   C     0.93464   0.99535   0.33584   0.00000  Uiso   1.00
H486   H     0.96097   0.97072   0.32198   0.00000  Uiso   1.00
H487   H     0.92997   0.52428   0.31125   0.00000  Uiso   1.00
H488   H     0.95209   0.50722   0.37196   0.00000  Uiso   1.00
H489   H     0.85652   0.99937   0.35314   0.00000  Uiso   1.00
H490   H     0.88916   0.94958   0.37069   0.00000  Uiso   1.00
H491   H     0.76276   0.71293   0.02798   0.00000  Uiso   1.00
H492   H     0.87477   0.81180   0.46891   0.00000  Uiso   1.00
C493   C     0.16649   0.16500   0.74984   0.00000  Uiso   1.00
C494   C     0.16742   0.33509   0.75023   0.00000  Uiso   1.00
C495   C     0.20556   0.27107   0.55842   0.00000  Uiso   1.00
C496   C     0.14299   0.21594   0.94319   0.00000  Uiso   1.00
C497   C     0.20459   0.27100   0.60903   0.00000  Uiso   1.00
C498   C     0.14309   0.21676   0.89248   0.00000  Uiso   1.00
C499   C     0.12870   0.22904   0.60035   0.00000  Uiso   1.00
C500   C     0.19011   0.28329   0.89809   0.00000  Uiso   1.00
C501   C     0.12771   0.22897   0.54952   0.00000  Uiso   1.00
C502   C     0.19018   0.28412   0.94883   0.00000  Uiso   1.00
C503   C     0.16663   0.25002   0.52733   0.00000  Uiso   1.00
C504   C     0.16661   0.25002   0.97264   0.00000  Uiso   1.00
C505   C     0.06821   0.25079   0.73828   0.00000  Uiso   1.00
C506   C     0.26512   0.24893   0.76174   0.00000  Uiso   1.00
C507   C     0.01444   0.26062   0.73495   0.00000  Uiso   1.00
C508   C     0.31893   0.23913   0.76522   0.00000  Uiso   1.00
C509   C     0.14240   0.04719   0.78055   0.00000  Uiso   1.00
C510   C     0.15103   0.45329   0.71077   0.00000  Uiso   1.00
C511   C     0.14067   0.09312   0.78083   0.00000  Uiso   1.00
C512   C     0.14982   0.40739   0.70981   0.00000  Uiso   1.00
C513   C     0.16820   0.11687   0.74965   0.00000  Uiso   1.00
C514   C     0.16919   0.38340   0.75092   0.00000  Uiso   1.00
C515   C     0.19780   0.09462   0.71835   0.00000  Uiso   1.00
C516   C     0.19032   0.40568   0.79293   0.00000  Uiso   1.00
C517   C     0.20136   0.04832   0.71864   0.00000  Uiso   1.00
C518   C     0.19312   0.45200   0.79417   0.00000  Uiso   1.00
C519   C     0.17338   0.02448   0.75068   0.00000  Uiso   1.00
C520   C     0.17348   0.47592   0.75205   0.00000  Uiso   1.00
Cu521  Cu    0.16667   0.25000   0.79821   0.00000  Uiso   1.00
Cu522  Cu    0.16667   0.25001   0.70178   0.00000  Uiso   1.00
H523   H     0.11703   0.11010   0.80462   0.00000  Uiso   1.00
H524   H     0.13284   0.39069   0.67724   0.00000  Uiso   1.00
H525   H     0.21904   0.11359   0.69444   0.00000  Uiso   1.00
H526   H     0.20539   0.38678   0.82461   0.00000  Uiso   1.00
H527   H     0.23715   0.28715   0.54409   0.00000  Uiso   1.00
H528   H     0.12501   0.18829   0.95897   0.00000  Uiso   1.00
H529   H     0.23445   0.28777   0.63206   0.00000  Uiso   1.00
H530   H     0.12432   0.19049   0.87063   0.00000  Uiso   1.00
H531   H     0.09870   0.21233   0.61652   0.00000  Uiso   1.00
H532   H     0.20878   0.30960   0.88069   0.00000  Uiso   1.00
N533   N     0.16667   0.25001   0.62934   0.00000  Uiso   1.00
N534   N     0.16667   0.24999   0.87065   0.00000  Uiso   1.00
O535   O     0.16667   0.18572   0.79071   0.00000  Uiso   1.00
O536   O     0.16666   0.31428   0.70928   0.00000  Uiso   1.00
O537   O     0.16667   0.18573   0.70928   0.00000  Uiso   1.00
O538   O     0.16666   0.31427   0.79072   0.00000  Uiso   1.00
O539   O     0.09161   0.25000   0.78132   0.00000  Uiso   1.00
O540   O     0.24172   0.25000   0.71868   0.00000  Uiso   1.00
O541   O     0.09161   0.25000   0.69988   0.00000  Uiso   1.00
O542   O     0.24172   0.25000   0.80011   0.00000  Uiso   1.00
C543   C     0.32916   0.30029   0.70296   0.00000  Uiso   1.00
C544   C     0.02937   0.34121   0.71353   0.00000  Uiso   1.00
H545   H     0.03488   0.34848   0.75311   0.00000  Uiso   1.00
H546   H     0.06698   0.33608   0.70018   0.00000  Uiso   1.00
H547   H     0.01083   0.37036   0.69431   0.00000  Uiso   1.00
H548   H     0.32915   0.29078   0.66421   0.00000  Uiso   1.00
H549   H     0.29014   0.31167   0.70805   0.00000  Uiso   1.00
C550   C     0.00420   0.19965   0.79758   0.00000  Uiso   1.00
C551   C     0.30509   0.15823   0.78594   0.00000  Uiso   1.00
H552   H     0.26669   0.16263   0.79792   0.00000  Uiso   1.00
H553   H     0.30127   0.15099   0.74637   0.00000  Uiso   1.00
H554   H     0.32360   0.12932   0.80564   0.00000  Uiso   1.00
H555   H     0.04377   0.18893   0.79385   0.00000  Uiso   1.00
H556   H     0.00285   0.20900   0.83621   0.00000  Uiso   1.00
H557   H     0.11933   0.02919   0.80367   0.00000  Uiso   1.00
H558   H     0.13419   0.47136   0.67913   0.00000  Uiso   1.00
C559   C     0.23465   0.02609   0.68425   0.00000  Uiso   1.00
C560   C     0.28308   0.00561   0.71093   0.00000  Uiso   1.00
H561   H     0.30425   0.03060   0.73488   0.00000  Uiso   1.00
H562   H     0.27366   0.47673   0.73266   0.00000  Uiso   1.00
H563   H     0.30832   0.49381   0.68409   0.00000  Uiso   1.00
H564   H     0.21288   0.00053   0.66183   0.00000  Uiso   1.00
H565   H     0.24671   0.05061   0.65810   0.00000  Uiso   1.00
C566   C     0.21637   0.47420   0.84086   0.00000  Uiso   1.00
C567   C     0.26797   0.49535   0.83584   0.00000  Uiso   1.00
H568   H     0.29430   0.47072   0.82198   0.00000  Uiso   1.00
H569   H     0.26331   0.02428   0.81125   0.00000  Uiso   1.00
H570   H     0.28542   0.00722   0.87196   0.00000  Uiso   1.00
H571   H     0.18986   0.49937   0.85314   0.00000  Uiso   1.00
H572   H     0.22250   0.44958   0.87069   0.00000  Uiso   1.00
H573   H     0.09610   0.21293   0.52798   0.00000  Uiso   1.00
H574   H     0.20811   0.31180   0.96891   0.00000  Uiso   1.00
C575   C     0.49982   0.16500   0.74984   0.00000  Uiso   1.00
C576   C     0.50075   0.33509   0.75023   0.00000  Uiso   1.00
C577   C     0.53889   0.27107   0.55842   0.00000  Uiso   1.00
C578   C     0.47632   0.21594   0.94319   0.00000  Uiso   1.00
C579   C     0.53792   0.27100   0.60903   0.00000  Uiso   1.00
C580   C     0.47642   0.21676   0.89248   0.00000  Uiso   1.00
C581   C     0.46203   0.22904   0.60035   0.00000  Uiso   1.00
C582   C     0.52344   0.28329   0.89809   0.00000  Uiso   1.00
C583   C     0.46105   0.22897   0.54952   0.00000  Uiso   1.00
C584   C     0.52351   0.28412   0.94883   0.00000  Uiso   1.00
C585   C     0.49997   0.25002   0.52733   0.00000  Uiso   1.00
C586   C     0.49994   0.25002   0.97264   0.00000  Uiso   1.00
C587   C     0.40154   0.25079   0.73828   0.00000  Uiso   1.00
C588   C     0.59845   0.24893   0.76174   0.00000  Uiso   1.00
C589   C     0.34777   0.26062   0.73495   0.00000  Uiso   1.00
C590   C     0.65227   0.23913   0.76522   0.00000  Uiso   1.00
C591   C     0.47573   0.04719   0.78055   0.00000  Uiso   1.00
C592   C     0.48436   0.45329   0.71077   0.00000  Uiso   1.00
C593   C     0.47401   0.09312   0.78083   0.00000  Uiso   1.00
C594   C     0.48315   0.40739   0.70981   0.00000  Uiso   1.00
C595   C     0.50154   0.11687   0.74965   0.00000  Uiso   1.00
C596   C     0.50253   0.38340   0.75092   0.00000  Uiso   1.00
C597   C     0.53113   0.09462   0.71835   0.00000  Uiso   1.00
C598   C     0.52365   0.40568   0.79293   0.00000  Uiso   1.00
C599   C     0.53469   0.04832   0.71864   0.00000  Uiso   1.00
C600   C     0.52645   0.45200   0.79417   0.00000  Uiso   1.00
C601   C     0.50671   0.02448   0.75068   0.00000  Uiso   1.00
C602   C     0.50681   0.47592   0.75205   0.00000  Uiso   1.00
Cu603  Cu    0.50000   0.25000   0.79821   0.00000  Uiso   1.00
Cu604  Cu    0.50000   0.25001   0.70178   0.00000  Uiso   1.00
H605   H     0.45036   0.11010   0.80462   0.00000  Uiso   1.00
H606   H     0.46618   0.39069   0.67724   0.00000  Uiso   1.00
H607   H     0.55238   0.11359   0.69444   0.00000  Uiso   1.00
H608   H     0.53872   0.38678   0.82461   0.00000  Uiso   1.00
H609   H     0.57049   0.28715   0.54409   0.00000  Uiso   1.00
H610   H     0.45834   0.18829   0.95897   0.00000  Uiso   1.00
H611   H     0.56779   0.28777   0.63206   0.00000  Uiso   1.00
H612   H     0.45765   0.19049   0.87063   0.00000  Uiso   1.00
H613   H     0.43203   0.21233   0.61652   0.00000  Uiso   1.00
H614   H     0.54211   0.30960   0.88069   0.00000  Uiso   1.00
N615   N     0.50000   0.25001   0.62934   0.00000  Uiso   1.00
N616   N     0.50000   0.24999   0.87065   0.00000  Uiso   1.00
O617   O     0.50000   0.18572   0.79071   0.00000  Uiso   1.00
O618   O     0.50000   0.31428   0.70928   0.00000  Uiso   1.00
O619   O     0.50000   0.18573   0.70928   0.00000  Uiso   1.00
O620   O     0.50000   0.31427   0.79072   0.00000  Uiso   1.00
O621   O     0.42495   0.25000   0.78132   0.00000  Uiso   1.00
O622   O     0.57505   0.25000   0.71868   0.00000  Uiso   1.00
O623   O     0.42495   0.25000   0.69988   0.00000  Uiso   1.00
O624   O     0.57505   0.25000   0.80011   0.00000  Uiso   1.00
C625   C     0.66250   0.30029   0.70296   0.00000  Uiso   1.00
C626   C     0.36270   0.34121   0.71353   0.00000  Uiso   1.00
H627   H     0.36821   0.34848   0.75311   0.00000  Uiso   1.00
H628   H     0.40032   0.33608   0.70018   0.00000  Uiso   1.00
H629   H     0.34417   0.37036   0.69431   0.00000  Uiso   1.00
H630   H     0.66248   0.29078   0.66421   0.00000  Uiso   1.00
H631   H     0.62348   0.31167   0.70805   0.00000  Uiso   1.00
C632   C     0.33753   0.19965   0.79758   0.00000  Uiso   1.00
C633   C     0.63843   0.15823   0.78594   0.00000  Uiso   1.00
H634   H     0.60003   0.16263   0.79792   0.00000  Uiso   1.00
H635   H     0.63460   0.15099   0.74637   0.00000  Uiso   1.00
H636   H     0.65694   0.12932   0.80564   0.00000  Uiso   1.00
H637   H     0.37710   0.18893   0.79385   0.00000  Uiso   1.00
H638   H     0.33619   0.20900   0.83621   0.00000  Uiso   1.00
H639   H     0.45267   0.02919   0.80367   0.00000  Uiso   1.00
H640   H     0.46752   0.47136   0.67913   0.00000  Uiso   1.00
C641   C     0.56798   0.02609   0.68425   0.00000  Uiso   1.00
C642   C     0.61641   0.00561   0.71093   0.00000  Uiso   1.00
H643   H     0.63758   0.03060   0.73488   0.00000  Uiso   1.00
H644   H     0.60699   0.47673   0.73266   0.00000  Uiso   1.00
H645   H     0.64166   0.49381   0.68409   0.00000  Uiso   1.00
H646   H     0.54621   0.00053   0.66183   0.00000  Uiso   1.00
H647   H     0.58004   0.05061   0.65810   0.00000  Uiso   1.00
C648   C     0.54970   0.47420   0.84086   0.00000  Uiso   1.00
C649   C     0.60131   0.49535   0.83584   0.00000  Uiso   1.00
H650   H     0.62763   0.47072   0.82198   0.00000  Uiso   1.00
H651   H     0.59664   0.02428   0.81125   0.00000  Uiso   1.00
H652   H     0.61876   0.00722   0.87196   0.00000  Uiso   1.00
H653   H     0.52319   0.49937   0.85314   0.00000  Uiso   1.00
H654   H     0.55583   0.44958   0.87069   0.00000  Uiso   1.00
H655   H     0.42943   0.21293   0.52798   0.00000  Uiso   1.00
H656   H     0.54144   0.31180   0.96891   0.00000  Uiso   1.00
C657   C     0.83316   0.16500   0.74984   0.00000  Uiso   1.00
C658   C     0.83409   0.33509   0.75023   0.00000  Uiso   1.00
C659   C     0.87223   0.27107   0.55842   0.00000  Uiso   1.00
C660   C     0.80966   0.21594   0.94319   0.00000  Uiso   1.00
C661   C     0.87125   0.27100   0.60903   0.00000  Uiso   1.00
C662   C     0.80975   0.21676   0.89248   0.00000  Uiso   1.00
C663   C     0.79536   0.22904   0.60035   0.00000  Uiso   1.00
C664   C     0.85678   0.28329   0.89809   0.00000  Uiso   1.00
C665   C     0.79438   0.22897   0.54952   0.00000  Uiso   1.00
C666   C     0.85685   0.28412   0.94883   0.00000  Uiso   1.00
C667   C     0.83330   0.25002   0.52733   0.00000  Uiso   1.00
C668   C     0.83328   0.25002   0.97264   0.00000  Uiso   1.00
C669   C     0.73487   0.25079   0.73828   0.00000  Uiso   1.00
C670   C     0.93179   0.24893   0.76174   0.00000  Uiso   1.00
C671   C     0.68110   0.26062   0.73495   0.00000  Uiso   1.00
C672   C     0.98560   0.23913   0.76522   0.00000  Uiso   1.00
C673   C     0.80907   0.04719   0.78055   0.00000  Uiso   1.00
C674   C     0.81770   0.45329   0.71077   0.00000  Uiso   1.00
C675   C     0.80734   0.09312   0.78083   0.00000  Uiso   1.00
C676   C     0.81648   0.40739   0.70981   0.00000  Uiso   1.00
C677   C     0.83487   0.11687   0.74965   0.00000  Uiso   1.00
C678   C     0.83586   0.38340   0.75092   0.00000  Uiso   1.00
C679   C     0.86446   0.09462   0.71835   0.00000  Uiso   1.00
C680   C     0.85698   0.40568   0.79293   0.00000  Uiso   1.00
C681   C     0.86803   0.04832   0.71864   0.00000  Uiso   1.00
C682   C     0.85979   0.45200   0.79417   0.00000  Uiso   1.00
C683   C     0.84005   0.02448   0.75068   0.00000  Uiso   1.00
C684   C     0.84015   0.47592   0.75205   0.00000  Uiso   1.00
Cu685  Cu    0.83333   0.25000   0.79821   0.00000  Uiso   1.00
Cu686  Cu    0.83333   0.25001   0.70178   0.00000  Uiso   1.00
H687   H     0.78369   0.11010   0.80462   0.00000  Uiso   1.00
H688   H     0.79951   0.39069   0.67724   0.00000  Uiso   1.00
H689   H     0.88571   0.11359   0.69444   0.00000  Uiso   1.00
H690   H     0.87206   0.38678   0.82461   0.00000  Uiso   1.00
H691   H     0.90382   0.28715   0.54409   0.00000  Uiso   1.00
H692   H     0.79167   0.18829   0.95897   0.00000  Uiso   1.00
H693   H     0.90112   0.28777   0.63206   0.00000  Uiso   1.00
H694   H     0.79098   0.19049   0.87063   0.00000  Uiso   1.00
H695   H     0.76537   0.21233   0.61652   0.00000  Uiso   1.00
H696   H     0.87545   0.30960   0.88069   0.00000  Uiso   1.00
N697   N     0.83333   0.25001   0.62934   0.00000  Uiso   1.00
N698   N     0.83333   0.24999   0.87065   0.00000  Uiso   1.00
O699   O     0.83334   0.18572   0.79071   0.00000  Uiso   1.00
O700   O     0.83333   0.31428   0.70928   0.00000  Uiso   1.00
O701   O     0.83334   0.18573   0.70928   0.00000  Uiso   1.00
O702   O     0.83333   0.31427   0.79072   0.00000  Uiso   1.00
O703   O     0.75828   0.25000   0.78132   0.00000  Uiso   1.00
O704   O     0.90839   0.25000   0.71868   0.00000  Uiso   1.00
O705   O     0.75828   0.25000   0.69988   0.00000  Uiso   1.00
O706   O     0.90839   0.25000   0.80011   0.00000  Uiso   1.00
C707   C     0.99583   0.30029   0.70296   0.00000  Uiso   1.00
C708   C     0.69603   0.34121   0.71353   0.00000  Uiso   1.00
H709   H     0.70154   0.34848   0.75311   0.00000  Uiso   1.00
H710   H     0.73365   0.33608   0.70018   0.00000  Uiso   1.00
H711   H     0.67750   0.37036   0.69431   0.00000  Uiso   1.00
H712   H     0.99581   0.29078   0.66421   0.00000  Uiso   1.00
H713   H     0.95681   0.31167   0.70805   0.00000  Uiso   1.00
C714   C     0.67087   0.19965   0.79758   0.00000  Uiso   1.00
C715   C     0.97176   0.15823   0.78594   0.00000  Uiso   1.00
H716   H     0.93336   0.16263   0.79792   0.00000  Uiso   1.00
H717   H     0.96793   0.15099   0.74637   0.00000  Uiso   1.00
H718   H     0.99027   0.12932   0.80564   0.00000  Uiso   1.00
H719   H     0.71044   0.18893   0.79385   0.00000  Uiso   1.00
H720   H     0.66952   0.20900   0.83621   0.00000  Uiso   1.00
H721   H     0.78600   0.02919   0.80367   0.00000  Uiso   1.00
H722   H     0.80086   0.47136   0.67913   0.00000  Uiso   1.00
C723   C     0.90131   0.02609   0.68425   0.00000  Uiso   1.00
C724   C     0.94975   0.00561   0.71093   0.00000  Uiso   1.00
H725   H     0.97092   0.03060   0.73488   0.00000  Uiso   1.00
H726   H     0.94032   0.47673   0.73266   0.00000  Uiso   1.00
H727   H     0.97499   0.49381   0.68409   0.00000  Uiso   1.00
H728   H     0.87955   0.00053   0.66183   0.00000  Uiso   1.00
H729   H     0.91338   0.05061   0.65810   0.00000  Uiso   1.00
C730   C     0.88303   0.47420   0.84086   0.00000  Uiso   1.00
C731   C     0.93464   0.49535   0.83584   0.00000  Uiso   1.00
H732   H     0.96097   0.47072   0.82198   0.00000  Uiso   1.00
H733   H     0.92997   0.02428   0.81125   0.00000  Uiso   1.00
H734   H     0.95209   0.00722   0.87196   0.00000  Uiso   1.00
H735   H     0.85652   0.49937   0.85314   0.00000  Uiso   1.00
H736   H     0.88916   0.44958   0.87069   0.00000  Uiso   1.00
H737   H     0.76276   0.21293   0.52798   0.00000  Uiso   1.00
H738   H     0.87477   0.31180   0.96891   0.00000  Uiso   1.00
C739   C     0.16649   0.66500   0.74984   0.00000  Uiso   1.00
C740   C     0.16742   0.83509   0.75023   0.00000  Uiso   1.00
C741   C     0.20556   0.77107   0.55842   0.00000  Uiso   1.00
C742   C     0.14299   0.71594   0.94319   0.00000  Uiso   1.00
C743   C     0.20459   0.77100   0.60903   0.00000  Uiso   1.00
C744   C     0.14309   0.71676   0.89248   0.00000  Uiso   1.00
C745   C     0.12870   0.72904   0.60035   0.00000  Uiso   1.00
C746   C     0.19011   0.78329   0.89809   0.00000  Uiso   1.00
C747   C     0.12771   0.72897   0.54952   0.00000  Uiso   1.00
C748   C     0.19018   0.78412   0.94883   0.00000  Uiso   1.00
C749   C     0.16663   0.75002   0.52733   0.00000  Uiso   1.00
C750   C     0.16661   0.75002   0.97264   0.00000  Uiso   1.00
C751   C     0.06821   0.75079   0.73828   0.00000  Uiso   1.00
C752   C     0.26512   0.74893   0.76174   0.00000  Uiso   1.00
C753   C     0.01444   0.76062   0.73495   0.00000  Uiso   1.00
C754   C     0.31893   0.73913   0.76522   0.00000  Uiso   1.00
C755   C     0.14240   0.54719   0.78055   0.00000  Uiso   1.00
C756   C     0.15103   0.95329   0.71077   0.00000  Uiso   1.00
C757   C     0.14067   0.59312   0.78083   0.00000  Uiso   1.00
C758   C     0.14982   0.90739   0.70981   0.00000  Uiso   1.00
C759   C     0.16820   0.61687   0.74965   0.00000  Uiso   1.00
C760   C     0.16919   0.88340   0.75092   0.00000  Uiso   1.00
C761   C     0.19780   0.59462   0.71835   0.00000  Uiso   1.00
C762   C     0.19032   0.90568   0.79293   0.00000  Uiso   1.00
C763   C     0.20136   0.54832   0.71864   0.00000  Uiso   1.00
C764   C     0.19312   0.95200   0.79417   0.00000  Uiso   1.00
C765   C     0.17338   0.52448   0.75068   0.00000  Uiso   1.00
C766   C     0.17348   0.97592   0.75205   0.00000  Uiso   1.00
Cu767  Cu    0.16667   0.75000   0.79821   0.00000  Uiso   1.00
Cu768  Cu    0.16667   0.75001   0.70178   0.00000  Uiso   1.00
H769   H     0.11703   0.61010   0.80462   0.00000  Uiso   1.00
H770   H     0.13284   0.89069   0.67724   0.00000  Uiso   1.00
H771   H     0.21904   0.61359   0.69444   0.00000  Uiso   1.00
H772   H     0.20539   0.88678   0.82461   0.00000  Uiso   1.00
H773   H     0.23715   0.78715   0.54409   0.00000  Uiso   1.00
H774   H     0.12501   0.68829   0.95897   0.00000  Uiso   1.00
H775   H     0.23445   0.78777   0.63206   0.00000  Uiso   1.00
H776   H     0.12432   0.69049   0.87063   0.00000  Uiso   1.00
H777   H     0.09870   0.71233   0.61652   0.00000  Uiso   1.00
H778   H     0.20878   0.80960   0.88069   0.00000  Uiso   1.00
N779   N     0.16667   0.75001   0.62934   0.00000  Uiso   1.00
N780   N     0.16667   0.74999   0.87065   0.00000  Uiso   1.00
O781   O     0.16667   0.68572   0.79071   0.00000  Uiso   1.00
O782   O     0.16666   0.81428   0.70928   0.00000  Uiso   1.00
O783   O     0.16667   0.68573   0.70928   0.00000  Uiso   1.00
O784   O     0.16666   0.81427   0.79072   0.00000  Uiso   1.00
O785   O     0.09161   0.75000   0.78132   0.00000  Uiso   1.00
O786   O     0.24172   0.75000   0.71868   0.00000  Uiso   1.00
O787   O     0.09161   0.75000   0.69988   0.00000  Uiso   1.00
O788   O     0.24172   0.75000   0.80011   0.00000  Uiso   1.00
C789   C     0.32916   0.80029   0.70296   0.00000  Uiso   1.00
C790   C     0.02937   0.84121   0.71353   0.00000  Uiso   1.00
H791   H     0.03488   0.84848   0.75311   0.00000  Uiso   1.00
H792   H     0.06698   0.83608   0.70018   0.00000  Uiso   1.00
H793   H     0.01083   0.87036   0.69431   0.00000  Uiso   1.00
H794   H     0.32915   0.79078   0.66421   0.00000  Uiso   1.00
H795   H     0.29014   0.81167   0.70805   0.00000  Uiso   1.00
C796   C     0.00420   0.69965   0.79758   0.00000  Uiso   1.00
C797   C     0.30509   0.65823   0.78594   0.00000  Uiso   1.00
H798   H     0.26669   0.66263   0.79792   0.00000  Uiso   1.00
H799   H     0.30127   0.65099   0.74637   0.00000  Uiso   1.00
H800   H     0.32360   0.62932   0.80564   0.00000  Uiso   1.00
H801   H     0.04377   0.68893   0.79385   0.00000  Uiso   1.00
H802   H     0.00285   0.70900   0.83621   0.00000  Uiso   1.00
H803   H     0.11933   0.52919   0.80367   0.00000  Uiso   1.00
H804   H     0.13419   0.97136   0.67913   0.00000  Uiso   1.00
C805   C     0.23465   0.52609   0.68425   0.00000  Uiso   1.00
C806   C     0.28308   0.50561   0.71093   0.00000  Uiso   1.00
H807   H     0.30425   0.53060   0.73488   0.00000  Uiso   1.00
H808   H     0.27366   0.97673   0.73266   0.00000  Uiso   1.00
H809   H     0.30832   0.99381   0.68409   0.00000  Uiso   1.00
H810   H     0.21288   0.50053   0.66183   0.00000  Uiso   1.00
H811   H     0.24671   0.55061   0.65810   0.00000  Uiso   1.00
C812   C     0.21637   0.97420   0.84086   0.00000  Uiso   1.00
C813   C     0.26797   0.99535   0.83584   0.00000  Uiso   1.00
H814   H     0.29430   0.97072   0.82198   0.00000  Uiso   1.00
H815   H     0.26331   0.52428   0.81125   0.00000  Uiso   1.00
H816   H     0.28542   0.50722   0.87196   0.00000  Uiso   1.00
H817   H     0.18986   0.99937   0.85314   0.00000  Uiso   1.00
H818   H     0.22250   0.94958   0.87069   0.00000  Uiso   1.00
H819   H     0.09610   0.71293   0.52798   0.00000  Uiso   1.00
H820   H     0.20811   0.81180   0.96891   0.00000  Uiso   1.00
C821   C     0.49982   0.66500   0.74984   0.00000  Uiso   1.00
C822   C     0.50075   0.83509   0.75023   0.00000  Uiso   1.00
C823   C     0.53889   0.77107   0.55842   0.00000  Uiso   1.00
C824   C     0.47632   0.71594   0.94319   0.00000  Uiso   1.00
C825   C     0.53792   0.77100   0.60903   0.00000  Uiso   1.00
C826   C     0.47642   0.71676   0.89248   0.00000  Uiso   1.00
C827   C     0.46203   0.72904   0.60035   0.00000  Uiso   1.00
C828   C     0.52344   0.78329   0.89809   0.00000  Uiso   1.00
C829   C     0.46105   0.72897   0.54952   0.00000  Uiso   1.00
C830   C     0.52351   0.78412   0.94883   0.00000  Uiso   1.00
C831   C     0.49997   0.75002   0.52733   0.00000  Uiso   1.00
C832   C     0.49994   0.75002   0.97264   0.00000  Uiso   1.00
C833   C     0.40154   0.75079   0.73828   0.00000  Uiso   1.00
C834   C     0.59845   0.74893   0.76174   0.00000  Uiso   1.00
C835   C     0.34777   0.76062   0.73495   0.00000  Uiso   1.00
C836   C     0.65227   0.73913   0.76522   0.00000  Uiso   1.00
C837   C     0.47573   0.54719   0.78055   0.00000  Uiso   1.00
C838   C     0.48436   0.95329   0.71077   0.00000  Uiso   1.00
C839   C     0.47401   0.59312   0.78083   0.00000  Uiso   1.00
C840   C     0.48315   0.90739   0.70981   0.00000  Uiso   1.00
C841   C     0.50154   0.61687   0.74965   0.00000  Uiso   1.00
C842   C     0.50253   0.88340   0.75092   0.00000  Uiso   1.00
C843   C     0.53113   0.59462   0.71835   0.00000  Uiso   1.00
C844   C     0.52365   0.90568   0.79293   0.00000  Uiso   1.00
C845   C     0.53469   0.54832   0.71864   0.00000  Uiso   1.00
C846   C     0.52645   0.95200   0.79417   0.00000  Uiso   1.00
C847   C     0.50671   0.52448   0.75068   0.00000  Uiso   1.00
C848   C     0.50681   0.97592   0.75205   0.00000  Uiso   1.00
Cu849  Cu    0.50000   0.75000   0.79821   0.00000  Uiso   1.00
Cu850  Cu    0.50000   0.75001   0.70178   0.00000  Uiso   1.00
H851   H     0.45036   0.61010   0.80462   0.00000  Uiso   1.00
H852   H     0.46618   0.89069   0.67724   0.00000  Uiso   1.00
H853   H     0.55238   0.61359   0.69444   0.00000  Uiso   1.00
H854   H     0.53872   0.88678   0.82461   0.00000  Uiso   1.00
H855   H     0.57049   0.78715   0.54409   0.00000  Uiso   1.00
H856   H     0.45834   0.68829   0.95897   0.00000  Uiso   1.00
H857   H     0.56779   0.78777   0.63206   0.00000  Uiso   1.00
H858   H     0.45765   0.69049   0.87063   0.00000  Uiso   1.00
H859   H     0.43203   0.71233   0.61652   0.00000  Uiso   1.00
H860   H     0.54211   0.80960   0.88069   0.00000  Uiso   1.00
N861   N     0.50000   0.75001   0.62934   0.00000  Uiso   1.00
N862   N     0.50000   0.74999   0.87065   0.00000  Uiso   1.00
O863   O     0.50000   0.68572   0.79071   0.00000  Uiso   1.00
O864   O     0.50000   0.81428   0.70928   0.00000  Uiso   1.00
O865   O     0.50000   0.68573   0.70928   0.00000  Uiso   1.00
O866   O     0.50000   0.81427   0.79072   0.00000  Uiso   1.00
O867   O     0.42495   0.75000   0.78132   0.00000  Uiso   1.00
O868   O     0.57505   0.75000   0.71868   0.00000  Uiso   1.00
O869   O     0.42495   0.75000   0.69988   0.00000  Uiso   1.00
O870   O     0.57505   0.75000   0.80011   0.00000  Uiso   1.00
C871   C     0.66250   0.80029   0.70296   0.00000  Uiso   1.00
C872   C     0.36270   0.84121   0.71353   0.00000  Uiso   1.00
H873   H     0.36821   0.84848   0.75311   0.00000  Uiso   1.00
H874   H     0.40032   0.83608   0.70018   0.00000  Uiso   1.00
H875   H     0.34417   0.87036   0.69431   0.00000  Uiso   1.00
H876   H     0.66248   0.79078   0.66421   0.00000  Uiso   1.00
H877   H     0.62348   0.81167   0.70805   0.00000  Uiso   1.00
C878   C     0.33753   0.69965   0.79758   0.00000  Uiso   1.00
C879   C     0.63843   0.65823   0.78594   0.00000  Uiso   1.00
H880   H     0.60003   0.66263   0.79792   0.00000  Uiso   1.00
H881   H     0.63460   0.65099   0.74637   0.00000  Uiso   1.00
H882   H     0.65694   0.62932   0.80564   0.00000  Uiso   1.00
H883   H     0.37710   0.68893   0.79385   0.00000  Uiso   1.00
H884   H     0.33619   0.70900   0.83621   0.00000  Uiso   1.00
H885   H     0.45267   0.52919   0.80367   0.00000  Uiso   1.00
H886   H     0.46752   0.97136   0.67913   0.00000  Uiso   1.00
C887   C     0.56798   0.52609   0.68425   0.00000  Uiso   1.00
C888   C     0.61641   0.50561   0.71093   0.00000  Uiso   1.00
H889   H     0.63758   0.53060   0.73488   0.00000  Uiso   1.00
H890   H     0.60699   0.97673   0.73266   0.00000  Uiso   1.00
H891   H     0.64166   0.99381   0.68409   0.00000  Uiso   1.00
H892   H     0.54621   0.50053   0.66183   0.00000  Uiso   1.00
H893   H     0.58004   0.55061   0.65810   0.00000  Uiso   1.00
C894   C     0.54970   0.97420   0.84086   0.00000  Uiso   1.00
C895   C     0.60131   0.99535   0.83584   0.00000  Uiso   1.00
H896   H     0.62763   0.97072   0.82198   0.00000  Uiso   1.00
H897   H     0.59664   0.52428   0.81125   0.00000  Uiso   1.00
H898   H     0.61876   0.50722   0.87196   0.00000  Uiso   1.00
H899   H     0.52319   0.99937   0.85314   0.00000  Uiso   1.00
H900   H     0.55583   0.94958   0.87069   0.00000  Uiso   1.00
H901   H     0.42943   0.71293   0.52798   0.00000  Uiso   1.00
H902   H     0.54144   0.81180   0.96891   0.00000  Uiso   1.00
C903   C     0.83316   0.66500   0.74984   0.00000  Uiso   1.00
C904   C     0.83409   0.83509   0.75023   0.00000  Uiso   1.00
C905   C     0.87223   0.77107   0.55842   0.00000  Uiso   1.00
C906   C     0.80966   0.71594   0.94319   0.00000  Uiso   1.00
C907   C     0.87125   0.77100   0.60903   0.00000  Uiso   1.00
C908   C     0.80975   0.71676   0.89248   0.00000  Uiso   1.00
C909   C     0.79536   0.72904   0.60035   0.00000  Uiso   1.00
C910   C     0.85678   0.78329   0.89809   0.00000  Uiso   1.00
C911   C     0.79438   0.72897   0.54952   0.00000  Uiso   1.00
C912   C     0.85685   0.78412   0.94883   0.00000  Uiso   1.00
C913   C     0.83330   0.75002   0.52733   0.00000  Uiso   1.00
C914   C     0.83328   0.75002   0.97264   0.00000  Uiso   1.00
C915   C     0.73487   0.75079   0.73828   0.00000  Uiso   1.00
C916   C     0.93179   0.74893   0.76174   0.00000  Uiso   1.00
C917   C     0.68110   0.76062   0.73495   0.00000  Uiso   1.00
C918   C     0.98560   0.73913   0.76522   0.00000  Uiso   1.00
C919   C     0.80907   0.54719   0.78055   0.00000  Uiso   1.00
C920   C     0.81770   0.95329   0.71077   0.00000  Uiso   1.00
C921   C     0.80734   0.59312   0.78083   0.00000  Uiso   1.00
C922   C     0.81648   0.90739   0.70981   0.00000  Uiso   1.00
C923   C     0.83487   0.61687   0.74965   0.00000  Uiso   1.00
C924   C     0.83586   0.88340   0.75092   0.00000  Uiso   1.00
C925   C     0.86446   0.59462   0.71835   0.00000  Uiso   1.00
C926   C     0.85698   0.90568   0.79293   0.00000  Uiso   1.00
C927   C     0.86803   0.54832   0.71864   0.00000  Uiso   1.00
C928   C     0.85979   0.95200   0.79417   0.00000  Uiso   1.00
C929   C     0.84005   0.52448   0.75068   0.00000  Uiso   1.00
C930   C     0.84015   0.97592   0.75205   0.00000  Uiso   1.00
Cu931  Cu    0.83333   0.75000   0.79821   0.00000  Uiso   1.00
Cu932  Cu    0.83333   0.75001   0.70178   0.00000  Uiso   1.00
H933   H     0.78369   0.61010   0.80462   0.00000  Uiso   1.00
H934   H     0.79951   0.89069   0.67724   0.00000  Uiso   1.00
H935   H     0.88571   0.61359   0.69444   0.00000  Uiso   1.00
H936   H     0.87206   0.88678   0.82461   0.00000  Uiso   1.00
H937   H     0.90382   0.78715   0.54409   0.00000  Uiso   1.00
H938   H     0.79167   0.68829   0.95897   0.00000  Uiso   1.00
H939   H     0.90112   0.78777   0.63206   0.00000  Uiso   1.00
H940   H     0.79098   0.69049   0.87063   0.00000  Uiso   1.00
H941   H     0.76537   0.71233   0.61652   0.00000  Uiso   1.00
H942   H     0.87545   0.80960   0.88069   0.00000  Uiso   1.00
N943   N     0.83333   0.75001   0.62934   0.00000  Uiso   1.00
N944   N     0.83333   0.74999   0.87065   0.00000  Uiso   1.00
O945   O     0.83334   0.68572   0.79071   0.00000  Uiso   1.00
O946   O     0.83333   0.81428   0.70928   0.00000  Uiso   1.00
O947   O     0.83334   0.68573   0.70928   0.00000  Uiso   1.00
O948   O     0.83333   0.81427   0.79072   0.00000  Uiso   1.00
O949   O     0.75828   0.75000   0.78132   0.00000  Uiso   1.00
O950   O     0.90839   0.75000   0.71868   0.00000  Uiso   1.00
O951   O     0.75828   0.75000   0.69988   0.00000  Uiso   1.00
O952   O     0.90839   0.75000   0.80011   0.00000  Uiso   1.00
C953   C     0.99583   0.80029   0.70296   0.00000  Uiso   1.00
C954   C     0.69603   0.84121   0.71353   0.00000  Uiso   1.00
H955   H     0.70154   0.84848   0.75311   0.00000  Uiso   1.00
H956   H     0.73365   0.83608   0.70018   0.00000  Uiso   1.00
H957   H     0.67750   0.87036   0.69431   0.00000  Uiso   1.00
H958   H     0.99581   0.79078   0.66421   0.00000  Uiso   1.00
H959   H     0.95681   0.81167   0.70805   0.00000  Uiso   1.00
C960   C     0.67087   0.69965   0.79758   0.00000  Uiso   1.00
C961   C     0.97176   0.65823   0.78594   0.00000  Uiso   1.00
H962   H     0.93336   0.66263   0.79792   0.00000  Uiso   1.00
H963   H     0.96793   0.65099   0.74637   0.00000  Uiso   1.00
H964   H     0.99027   0.62932   0.80564   0.00000  Uiso   1.00
H965   H     0.71044   0.68893   0.79385   0.00000  Uiso   1.00
H966   H     0.66952   0.70900   0.83621   0.00000  Uiso   1.00
H967   H     0.78600   0.52919   0.80367   0.00000  Uiso   1.00
H968   H     0.80086   0.97136   0.67913   0.00000  Uiso   1.00
C969   C     0.90131   0.52609   0.68425   0.00000  Uiso   1.00
C970   C     0.94975   0.50561   0.71093   0.00000  Uiso   1.00
H971   H     0.97092   0.53060   0.73488   0.00000  Uiso   1.00
H972   H     0.94032   0.97673   0.73266   0.00000  Uiso   1.00
H973   H     0.97499   0.99381   0.68409   0.00000  Uiso   1.00
H974   H     0.87955   0.50053   0.66183   0.00000  Uiso   1.00
H975   H     0.91338   0.55061   0.65810   0.00000  Uiso   1.00
C976   C     0.88303   0.97420   0.84086   0.00000  Uiso   1.00
C977   C     0.93464   0.99535   0.83584   0.00000  Uiso   1.00
H978   H     0.96097   0.97072   0.82198   0.00000  Uiso   1.00
H979   H     0.92997   0.52428   0.81125   0.00000  Uiso   1.00
H980   H     0.95209   0.50722   0.87196   0.00000  Uiso   1.00
H981   H     0.85652   0.99937   0.85314   0.00000  Uiso   1.00
H982   H     0.88916   0.94958   0.87069   0.00000  Uiso   1.00
H983   H     0.76276   0.71293   0.52798   0.00000  Uiso   1.00
H984   H     0.87477   0.81180   0.96891   0.00000  Uiso   1.00
loop_
_geom_bond_atom_site_label_1
_geom_bond_atom_site_label_2
_geom_bond_distance
_geom_bond_site_symmetry_2
_ccdc_geom_bond_type
C1     C21     1.453   .     S
C1     O43     1.291   .     A
C1     O45     1.290   .     A
C2     O46     1.292   .     A
C2     O44     1.293   .     A
C2     C22     1.459   .     S
C3     H35     1.081   .     S
C3     C5      1.407   .     A
C3     C11     1.411   .     A
C4     H36     1.081   .     S
C4     C12     1.411   .     A
C4     C6      1.407   .     A
C5     H37     1.080   .     S
C5     N41     1.363   .     A
C6     H38     1.081   .     S
C6     N42     1.364   .     A
C7     C9      1.407   .     A
C7     N41     1.364   .     A
C7     H39     1.081   .     S
C8     C10     1.407   .     A
C8     N42     1.364   .     A
C8     H40     1.081   .     S
C9     C11     1.411   .     A
C9     H81     1.081   .     S
C10    H82     1.081   .     S
C10    C12     1.411   .     A
C11    C504    1.517   1_554 S
C12    C503    1.517   .     S
C13    O47     1.277   .     A
C13    O49     1.291   .     A
C13    C15     1.437   .     S
C14    O48     1.278   .     A
C14    C16     1.437   .     S
C14    O50     1.291   .     A
C15    C180    1.365   1_455 S
C15    C215    1.537   1_455 S
C16    C97     1.365   .     S
C16    C140    1.538   .     S
C17    C19     1.387   .     A
C17    C27     1.402   .     A
C17    H65     1.083   .     S
C18    C20     1.386   .     A
C18    C28     1.401   .     A
C18    H66     1.084   .     S
C19    H31     1.084   .     S
C19    C21     1.395   .     A
C20    C22     1.397   .     A
C20    H32     1.083   .     S
C21    C23     1.399   .     A
C22    C24     1.401   .     A
C23    H33     1.084   .     S
C23    C25     1.400   .     A
C24    C26     1.401   .     A
C24    H34     1.084   .     S
C25    C67     1.520   .     S
C25    C27     1.420   .     A
C26    C28     1.420   .     A
C26    C74     1.520   .     S
C27    C274    1.466   1_545 S
C28    C273    1.466   .     S
Cu29   N42     2.009   .     S
Cu29   O47     1.976   .     S
Cu29   O43     1.950   .     S
Cu29   O50     1.970   .     S
Cu29   Cu30    2.674   .     S
Cu29   O46     1.952   .     S
Cu30   O45     1.952   .     S
Cu30   O48     1.976   .     S
Cu30   N41     2.009   .     S
Cu30   O44     1.950   .     S
Cu30   O49     1.970   .     S
C51    H56     1.111   .     S
C51    H57     1.105   .     S
C51    C97     1.537   .     S
C51    C134    1.530   .     S
C52    H55     1.111   .     S
C52    H54     1.107   .     S
C52    H53     1.111   .     S
C52    C215    1.530   1_455 S
C58    H64     1.111   .     S
C58    H63     1.105   .     S
C58    C180    1.538   1_455 S
C58    C223    1.530   1_455 S
C59    H60     1.107   .     S
C59    H61     1.111   .     S
C59    H62     1.111   .     S
C59    C140    1.530   .     S
C67    H72     1.108   .     S
C67    C68     1.526   .     S
C67    H73     1.112   .     S
C68    H69     1.111   .     S
C68    H316    1.108   1_545 S
C68    H317    1.110   1_545 S
H70    C314    1.108   .     S
H71    C314    1.110   .     S
C74    H80     1.112   .     S
C74    C75     1.526   .     S
C74    H79     1.108   .     S
C75    H76     1.111   .     S
C75    H323    1.108   .     S
C75    H324    1.110   .     S
H77    C321    1.108   1_545 S
H78    C321    1.110   1_545 S
C83    C103    1.453   .     S
C83    O125    1.291   .     A
C83    O127    1.290   .     A
C84    O128    1.292   .     A
C84    O126    1.293   .     A
C84    C104    1.459   .     S
C85    H117    1.081   .     S
C85    C87     1.407   .     A
C85    C93     1.411   .     A
C86    H118    1.081   .     S
C86    C94     1.411   .     A
C86    C88     1.407   .     A
C87    H119    1.080   .     S
C87    N123    1.363   .     A
C88    H120    1.081   .     S
C88    N124    1.364   .     A
C89    C91     1.407   .     A
C89    N123    1.364   .     A
C89    H121    1.081   .     S
C90    C92     1.407   .     A
C90    N124    1.364   .     A
C90    H122    1.081   .     S
C91    C93     1.411   .     A
C91    H163    1.081   .     S
C92    H164    1.081   .     S
C92    C94     1.411   .     A
C93    C586    1.517   1_554 S
C94    C585    1.517   .     S
C95    O129    1.277   .     A
C95    O131    1.291   .     A
C95    C97     1.437   .     S
C96    O130    1.278   .     A
C96    C98     1.437   .     S
C96    O132    1.291   .     A
C98    C179    1.365   .     S
C98    C222    1.538   .     S
C99    C101    1.387   .     A
C99    C109    1.402   .     A
C99    H147    1.083   .     S
C100   C102    1.386   .     A
C100   C110    1.401   .     A
C100   H148    1.084   .     S
C101   H113    1.084   .     S
C101   C103    1.395   .     A
C102   C104    1.397   .     A
C102   H114    1.083   .     S
C103   C105    1.399   .     A
C104   C106    1.401   .     A
C105   H115    1.084   .     S
C105   C107    1.400   .     A
C106   C108    1.401   .     A
C106   H116    1.084   .     S
C107   C149    1.520   .     S
C107   C109    1.420   .     A
C108   C110    1.420   .     A
C108   C156    1.520   .     S
C109   C356    1.466   1_545 S
C110   C355    1.466   .     S
Cu111  N124    2.009   .     S
Cu111  O129    1.976   .     S
Cu111  O125    1.950   .     S
Cu111  O132    1.970   .     S
Cu111  Cu112   2.674   .     S
Cu111  O128    1.952   .     S
Cu112  O127    1.952   .     S
Cu112  O130    1.976   .     S
Cu112  N123    2.009   .     S
Cu112  O126    1.950   .     S
Cu112  O131    1.970   .     S
C133   H138    1.111   .     S
C133   H139    1.105   .     S
C133   C179    1.537   .     S
C133   C216    1.530   .     S
C134   H137    1.111   .     S
C134   H136    1.107   .     S
C134   H135    1.111   .     S
C140   H146    1.111   .     S
C140   H145    1.105   .     S
C141   H142    1.107   .     S
C141   H143    1.111   .     S
C141   H144    1.111   .     S
C141   C222    1.530   .     S
C149   H154    1.108   .     S
C149   C150    1.526   .     S
C149   H155    1.112   .     S
C150   H151    1.111   .     S
C150   H398    1.108   1_545 S
C150   H399    1.110   1_545 S
H152   C396    1.108   .     S
H153   C396    1.110   .     S
C156   H162    1.112   .     S
C156   C157    1.526   .     S
C156   H161    1.108   .     S
C157   H158    1.111   .     S
C157   H405    1.108   .     S
C157   H406    1.110   .     S
H159   C403    1.108   1_545 S
H160   C403    1.110   1_545 S
C165   C185    1.453   .     S
C165   O207    1.291   .     A
C165   O209    1.290   .     A
C166   O210    1.292   .     A
C166   O208    1.293   .     A
C166   C186    1.459   .     S
C167   H199    1.081   .     S
C167   C169    1.407   .     A
C167   C175    1.411   .     A
C168   H200    1.081   .     S
C168   C176    1.411   .     A
C168   C170    1.407   .     A
C169   H201    1.080   .     S
C169   N205    1.363   .     A
C170   H202    1.081   .     S
C170   N206    1.364   .     A
C171   C173    1.407   .     A
C171   N205    1.364   .     A
C171   H203    1.081   .     S
C172   C174    1.407   .     A
C172   N206    1.364   .     A
C172   H204    1.081   .     S
C173   C175    1.411   .     A
C173   H245    1.081   .     S
C174   H246    1.081   .     S
C174   C176    1.411   .     A
C175   C668    1.517   1_554 S
C176   C667    1.517   .     S
C177   O211    1.277   .     A
C177   O213    1.291   .     A
C177   C179    1.437   .     S
C178   O212    1.278   .     A
C178   C180    1.437   .     S
C178   O214    1.291   .     A
C180   C15     1.365   1_655 S
C180   C58     1.538   1_655 S
C181   C183    1.387   .     A
C181   C191    1.402   .     A
C181   H229    1.083   .     S
C182   C184    1.386   .     A
C182   C192    1.401   .     A
C182   H230    1.084   .     S
C183   H195    1.084   .     S
C183   C185    1.395   .     A
C184   C186    1.397   .     A
C184   H196    1.083   .     S
C185   C187    1.399   .     A
C186   C188    1.401   .     A
C187   H197    1.084   .     S
C187   C189    1.400   .     A
C188   C190    1.401   .     A
C188   H198    1.084   .     S
C189   C231    1.520   .     S
C189   C191    1.420   .     A
C190   C192    1.420   .     A
C190   C238    1.520   .     S
C191   C438    1.466   1_545 S
C192   C437    1.466   .     S
Cu193  N206    2.009   .     S
Cu193  O211    1.976   .     S
Cu193  O207    1.950   .     S
Cu193  O214    1.970   .     S
Cu193  Cu194   2.674   .     S
Cu193  O210    1.952   .     S
Cu194  O209    1.952   .     S
Cu194  O212    1.976   .     S
Cu194  N205    2.009   .     S
Cu194  O208    1.950   .     S
Cu194  O213    1.970   .     S
C215   H220    1.111   .     S
C215   H221    1.105   .     S
C215   C15     1.537   1_655 S
C215   C52     1.530   1_655 S
C216   H219    1.111   .     S
C216   H218    1.107   .     S
C216   H217    1.111   .     S
C222   H228    1.111   .     S
C222   H227    1.105   .     S
C223   H224    1.107   .     S
C223   H225    1.111   .     S
C223   H226    1.111   .     S
C223   C58     1.530   1_655 S
C231   H236    1.108   .     S
C231   C232    1.526   .     S
C231   H237    1.112   .     S
C232   H233    1.111   .     S
C232   H480    1.108   1_545 S
C232   H481    1.110   1_545 S
H234   C478    1.108   .     S
H235   C478    1.110   .     S
C238   H244    1.112   .     S
C238   C239    1.526   .     S
C238   H243    1.108   .     S
C239   H240    1.111   .     S
C239   H487    1.108   .     S
C239   H488    1.110   .     S
H241   C485    1.108   1_545 S
H242   C485    1.110   1_545 S
C247   C267    1.453   .     S
C247   O289    1.291   .     A
C247   O291    1.290   .     A
C248   O292    1.292   .     A
C248   O290    1.293   .     A
C248   C268    1.459   .     S
C249   H281    1.081   .     S
C249   C251    1.407   .     A
C249   C257    1.411   .     A
C250   H282    1.081   .     S
C250   C258    1.411   .     A
C250   C252    1.407   .     A
C251   H283    1.080   .     S
C251   N287    1.363   .     A
C252   H284    1.081   .     S
C252   N288    1.364   .     A
C253   C255    1.407   .     A
C253   N287    1.364   .     A
C253   H285    1.081   .     S
C254   C256    1.407   .     A
C254   N288    1.364   .     A
C254   H286    1.081   .     S
C255   C257    1.411   .     A
C255   H327    1.081   .     S
C256   H328    1.081   .     S
C256   C258    1.411   .     A
C257   C750    1.517   1_554 S
C258   C749    1.517   .     S
C259   O293    1.277   .     A
C259   O295    1.291   .     A
C259   C261    1.437   .     S
C260   O294    1.278   .     A
C260   C262    1.437   .     S
C260   O296    1.291   .     A
C261   C426    1.365   1_455 S
C261   C461    1.537   1_455 S
C262   C343    1.365   .     S
C262   C386    1.538   .     S
C263   C265    1.387   .     A
C263   C273    1.402   .     A
C263   H311    1.083   .     S
C264   C266    1.386   .     A
C264   C274    1.401   .     A
C264   H312    1.084   .     S
C265   H277    1.084   .     S
C265   C267    1.395   .     A
C266   C268    1.397   .     A
C266   H278    1.083   .     S
C267   C269    1.399   .     A
C268   C270    1.401   .     A
C269   H279    1.084   .     S
C269   C271    1.400   .     A
C270   C272    1.401   .     A
C270   H280    1.084   .     S
C271   C313    1.520   .     S
C271   C273    1.420   .     A
C272   C274    1.420   .     A
C272   C320    1.520   .     S
C274   C27     1.466   1_565 S
Cu275  N288    2.009   .     S
Cu275  O293    1.976   .     S
Cu275  O289    1.950   .     S
Cu275  O296    1.970   .     S
Cu275  Cu276   2.674   .     S
Cu275  O292    1.952   .     S
Cu276  O291    1.952   .     S
Cu276  O294    1.976   .     S
Cu276  N287    2.009   .     S
Cu276  O290    1.950   .     S
Cu276  O295    1.970   .     S
C297   H302    1.111   .     S
C297   H303    1.105   .     S
C297   C343    1.537   .     S
C297   C380    1.530   .     S
C298   H301    1.111   .     S
C298   H300    1.107   .     S
C298   H299    1.111   .     S
C298   C461    1.530   1_455 S
C304   H310    1.111   .     S
C304   H309    1.105   .     S
C304   C426    1.538   1_455 S
C304   C469    1.530   1_455 S
C305   H306    1.107   .     S
C305   H307    1.111   .     S
C305   H308    1.111   .     S
C305   C386    1.530   .     S
C313   H318    1.108   .     S
C313   C314    1.526   .     S
C313   H319    1.112   .     S
C314   H315    1.111   .     S
H316   C68     1.108   1_565 S
H317   C68     1.110   1_565 S
C320   H326    1.112   .     S
C320   C321    1.526   .     S
C320   H325    1.108   .     S
C321   H322    1.111   .     S
C321   H77     1.108   1_565 S
C321   H78     1.110   1_565 S
C329   C349    1.453   .     S
C329   O371    1.291   .     A
C329   O373    1.290   .     A
C330   O374    1.292   .     A
C330   O372    1.293   .     A
C330   C350    1.459   .     S
C331   H363    1.081   .     S
C331   C333    1.407   .     A
C331   C339    1.411   .     A
C332   H364    1.081   .     S
C332   C340    1.411   .     A
C332   C334    1.407   .     A
C333   H365    1.080   .     S
C333   N369    1.363   .     A
C334   H366    1.081   .     S
C334   N370    1.364   .     A
C335   C337    1.407   .     A
C335   N369    1.364   .     A
C335   H367    1.081   .     S
C336   C338    1.407   .     A
C336   N370    1.364   .     A
C336   H368    1.081   .     S
C337   C339    1.411   .     A
C337   H409    1.081   .     S
C338   H410    1.081   .     S
C338   C340    1.411   .     A
C339   C832    1.517   1_554 S
C340   C831    1.517   .     S
C341   O375    1.277   .     A
C341   O377    1.291   .     A
C341   C343    1.437   .     S
C342   O376    1.278   .     A
C342   C344    1.437   .     S
C342   O378    1.291   .     A
C344   C425    1.365   .     S
C344   C468    1.538   .     S
C345   C347    1.387   .     A
C345   C355    1.402   .     A
C345   H393    1.083   .     S
C346   C348    1.386   .     A
C346   C356    1.401   .     A
C346   H394    1.084   .     S
C347   H359    1.084   .     S
C347   C349    1.395   .     A
C348   C350    1.397   .     A
C348   H360    1.083   .     S
C349   C351    1.399   .     A
C350   C352    1.401   .     A
C351   H361    1.084   .     S
C351   C353    1.400   .     A
C352   C354    1.401   .     A
C352   H362    1.084   .     S
C353   C395    1.520   .     S
C353   C355    1.420   .     A
C354   C356    1.420   .     A
C354   C402    1.520   .     S
C356   C109    1.466   1_565 S
Cu357  N370    2.009   .     S
Cu357  O375    1.976   .     S
Cu357  O371    1.950   .     S
Cu357  O378    1.970   .     S
Cu357  Cu358   2.674   .     S
Cu357  O374    1.952   .     S
Cu358  O373    1.952   .     S
Cu358  O376    1.976   .     S
Cu358  N369    2.009   .     S
Cu358  O372    1.950   .     S
Cu358  O377    1.970   .     S
C379   H384    1.111   .     S
C379   H385    1.105   .     S
C379   C425    1.537   .     S
C379   C462    1.530   .     S
C380   H383    1.111   .     S
C380   H382    1.107   .     S
C380   H381    1.111   .     S
C386   H392    1.111   .     S
C386   H391    1.105   .     S
C387   H388    1.107   .     S
C387   H389    1.111   .     S
C387   H390    1.111   .     S
C387   C468    1.530   .     S
C395   H400    1.108   .     S
C395   C396    1.526   .     S
C395   H401    1.112   .     S
C396   H397    1.111   .     S
H398   C150    1.108   1_565 S
H399   C150    1.110   1_565 S
C402   H408    1.112   .     S
C402   C403    1.526   .     S
C402   H407    1.108   .     S
C403   H404    1.111   .     S
C403   H159    1.108   1_565 S
C403   H160    1.110   1_565 S
C411   C431    1.453   .     S
C411   O453    1.291   .     A
C411   O455    1.290   .     A
C412   O456    1.292   .     A
C412   O454    1.293   .     A
C412   C432    1.459   .     S
C413   H445    1.081   .     S
C413   C415    1.407   .     A
C413   C421    1.411   .     A
C414   H446    1.081   .     S
C414   C422    1.411   .     A
C414   C416    1.407   .     A
C415   H447    1.080   .     S
C415   N451    1.363   .     A
C416   H448    1.081   .     S
C416   N452    1.364   .     A
C417   C419    1.407   .     A
C417   N451    1.364   .     A
C417   H449    1.081   .     S
C418   C420    1.407   .     A
C418   N452    1.364   .     A
C418   H450    1.081   .     S
C419   C421    1.411   .     A
C419   H491    1.081   .     S
C420   H492    1.081   .     S
C420   C422    1.411   .     A
C421   C914    1.517   1_554 S
C422   C913    1.517   .     S
C423   O457    1.277   .     A
C423   O459    1.291   .     A
C423   C425    1.437   .     S
C424   O458    1.278   .     A
C424   C426    1.437   .     S
C424   O460    1.291   .     A
C426   C261    1.365   1_655 S
C426   C304    1.538   1_655 S
C427   C429    1.387   .     A
C427   C437    1.402   .     A
C427   H475    1.083   .     S
C428   C430    1.386   .     A
C428   C438    1.401   .     A
C428   H476    1.084   .     S
C429   H441    1.084   .     S
C429   C431    1.395   .     A
C430   C432    1.397   .     A
C430   H442    1.083   .     S
C431   C433    1.399   .     A
C432   C434    1.401   .     A
C433   H443    1.084   .     S
C433   C435    1.400   .     A
C434   C436    1.401   .     A
C434   H444    1.084   .     S
C435   C477    1.520   .     S
C435   C437    1.420   .     A
C436   C438    1.420   .     A
C436   C484    1.520   .     S
C438   C191    1.466   1_565 S
Cu439  N452    2.009   .     S
Cu439  O457    1.976   .     S
Cu439  O453    1.950   .     S
Cu439  O460    1.970   .     S
Cu439  Cu440   2.674   .     S
Cu439  O456    1.952   .     S
Cu440  O455    1.952   .     S
Cu440  O458    1.976   .     S
Cu440  N451    2.009   .     S
Cu440  O454    1.950   .     S
Cu440  O459    1.970   .     S
C461   H466    1.111   .     S
C461   H467    1.105   .     S
C461   C261    1.537   1_655 S
C461   C298    1.530   1_655 S
C462   H465    1.111   .     S
C462   H464    1.107   .     S
C462   H463    1.111   .     S
C468   H474    1.111   .     S
C468   H473    1.105   .     S
C469   H470    1.107   .     S
C469   H471    1.111   .     S
C469   H472    1.111   .     S
C469   C304    1.530   1_655 S
C477   H482    1.108   .     S
C477   C478    1.526   .     S
C477   H483    1.112   .     S
C478   H479    1.111   .     S
H480   C232    1.108   1_565 S
H481   C232    1.110   1_565 S
C484   H490    1.112   .     S
C484   C485    1.526   .     S
C484   H489    1.108   .     S
C485   H486    1.111   .     S
C485   H241    1.108   1_565 S
C485   H242    1.110   1_565 S
C493   C513    1.453   .     S
C493   O535    1.291   .     A
C493   O537    1.290   .     A
C494   O538    1.292   .     A
C494   O536    1.293   .     A
C494   C514    1.459   .     S
C495   H527    1.081   .     S
C495   C497    1.407   .     A
C495   C503    1.411   .     A
C496   H528    1.081   .     S
C496   C504    1.411   .     A
C496   C498    1.407   .     A
C497   H529    1.080   .     S
C497   N533    1.363   .     A
C498   H530    1.081   .     S
C498   N534    1.364   .     A
C499   C501    1.407   .     A
C499   N533    1.364   .     A
C499   H531    1.081   .     S
C500   C502    1.407   .     A
C500   N534    1.364   .     A
C500   H532    1.081   .     S
C501   C503    1.411   .     A
C501   H573    1.081   .     S
C502   H574    1.081   .     S
C502   C504    1.411   .     A
C504   C11     1.517   1_556 S
C505   O539    1.277   .     A
C505   O541    1.291   .     A
C505   C507    1.437   .     S
C506   O540    1.278   .     A
C506   C508    1.437   .     S
C506   O542    1.291   .     A
C507   C672    1.365   1_455 S
C507   C707    1.537   1_455 S
C508   C589    1.365   .     S
C508   C632    1.538   .     S
C509   C511    1.387   .     A
C509   C519    1.402   .     A
C509   H557    1.083   .     S
C510   C512    1.386   .     A
C510   C520    1.401   .     A
C510   H558    1.084   .     S
C511   H523    1.084   .     S
C511   C513    1.395   .     A
C512   C514    1.397   .     A
C512   H524    1.083   .     S
C513   C515    1.399   .     A
C514   C516    1.401   .     A
C515   H525    1.084   .     S
C515   C517    1.400   .     A
C516   C518    1.401   .     A
C516   H526    1.084   .     S
C517   C559    1.520   .     S
C517   C519    1.420   .     A
C518   C520    1.420   .     A
C518   C566    1.520   .     S
C519   C766    1.466   1_545 S
C520   C765    1.466   .     S
Cu521  N534    2.009   .     S
Cu521  O539    1.976   .     S
Cu521  O535    1.950   .     S
Cu521  O542    1.970   .     S
Cu521  Cu522   2.674   .     S
Cu521  O538    1.952   .     S
Cu522  O537    1.952   .     S
Cu522  O540    1.976   .     S
Cu522  N533    2.009   .     S
Cu522  O536    1.950   .     S
Cu522  O541    1.970   .     S
C543   H548    1.111   .     S
C543   H549    1.105   .     S
C543   C589    1.537   .     S
C543   C626    1.530   .     S
C544   H547    1.111   .     S
C544   H546    1.107   .     S
C544   H545    1.111   .     S
C544   C707    1.530   1_455 S
C550   H556    1.111   .     S
C550   H555    1.105   .     S
C550   C672    1.538   1_455 S
C550   C715    1.530   1_455 S
C551   H552    1.107   .     S
C551   H553    1.111   .     S
C551   H554    1.111   .     S
C551   C632    1.530   .     S
C559   H564    1.108   .     S
C559   C560    1.526   .     S
C559   H565    1.112   .     S
C560   H561    1.111   .     S
C560   H808    1.108   1_545 S
C560   H809    1.110   1_545 S
H562   C806    1.108   .     S
H563   C806    1.110   .     S
C566   H572    1.112   .     S
C566   C567    1.526   .     S
C566   H571    1.108   .     S
C567   H568    1.111   .     S
C567   H815    1.108   .     S
C567   H816    1.110   .     S
H569   C813    1.108   1_545 S
H570   C813    1.110   1_545 S
C575   C595    1.453   .     S
C575   O617    1.291   .     A
C575   O619    1.290   .     A
C576   O620    1.292   .     A
C576   O618    1.293   .     A
C576   C596    1.459   .     S
C577   H609    1.081   .     S
C577   C579    1.407   .     A
C577   C585    1.411   .     A
C578   H610    1.081   .     S
C578   C586    1.411   .     A
C578   C580    1.407   .     A
C579   H611    1.080   .     S
C579   N615    1.363   .     A
C580   H612    1.081   .     S
C580   N616    1.364   .     A
C581   C583    1.407   .     A
C581   N615    1.364   .     A
C581   H613    1.081   .     S
C582   C584    1.407   .     A
C582   N616    1.364   .     A
C582   H614    1.081   .     S
C583   C585    1.411   .     A
C583   H655    1.081   .     S
C584   H656    1.081   .     S
C584   C586    1.411   .     A
C586   C93     1.517   1_556 S
C587   O621    1.277   .     A
C587   O623    1.291   .     A
C587   C589    1.437   .     S
C588   O622    1.278   .     A
C588   C590    1.437   .     S
C588   O624    1.291   .     A
C590   C671    1.365   .     S
C590   C714    1.538   .     S
C591   C593    1.387   .     A
C591   C601    1.402   .     A
C591   H639    1.083   .     S
C592   C594    1.386   .     A
C592   C602    1.401   .     A
C592   H640    1.084   .     S
C593   H605    1.084   .     S
C593   C595    1.395   .     A
C594   C596    1.397   .     A
C594   H606    1.083   .     S
C595   C597    1.399   .     A
C596   C598    1.401   .     A
C597   H607    1.084   .     S
C597   C599    1.400   .     A
C598   C600    1.401   .     A
C598   H608    1.084   .     S
C599   C641    1.520   .     S
C599   C601    1.420   .     A
C600   C602    1.420   .     A
C600   C648    1.520   .     S
C601   C848    1.466   1_545 S
C602   C847    1.466   .     S
Cu603  N616    2.009   .     S
Cu603  O621    1.976   .     S
Cu603  O617    1.950   .     S
Cu603  O624    1.970   .     S
Cu603  Cu604   2.674   .     S
Cu603  O620    1.952   .     S
Cu604  O619    1.952   .     S
Cu604  O622    1.976   .     S
Cu604  N615    2.009   .     S
Cu604  O618    1.950   .     S
Cu604  O623    1.970   .     S
C625   H630    1.111   .     S
C625   H631    1.105   .     S
C625   C671    1.537   .     S
C625   C708    1.530   .     S
C626   H629    1.111   .     S
C626   H628    1.107   .     S
C626   H627    1.111   .     S
C632   H638    1.111   .     S
C632   H637    1.105   .     S
C633   H634    1.107   .     S
C633   H635    1.111   .     S
C633   H636    1.111   .     S
C633   C714    1.530   .     S
C641   H646    1.108   .     S
C641   C642    1.526   .     S
C641   H647    1.112   .     S
C642   H643    1.111   .     S
C642   H890    1.108   1_545 S
C642   H891    1.110   1_545 S
H644   C888    1.108   .     S
H645   C888    1.110   .     S
C648   H654    1.112   .     S
C648   C649    1.526   .     S
C648   H653    1.108   .     S
C649   H650    1.111   .     S
C649   H897    1.108   .     S
C649   H898    1.110   .     S
H651   C895    1.108   1_545 S
H652   C895    1.110   1_545 S
C657   C677    1.453   .     S
C657   O699    1.291   .     A
C657   O701    1.290   .     A
C658   O702    1.292   .     A
C658   O700    1.293   .     A
C658   C678    1.459   .     S
C659   H691    1.081   .     S
C659   C661    1.407   .     A
C659   C667    1.411   .     A
C660   H692    1.081   .     S
C660   C668    1.411   .     A
C660   C662    1.407   .     A
C661   H693    1.080   .     S
C661   N697    1.363   .     A
C662   H694    1.081   .     S
C662   N698    1.364   .     A
C663   C665    1.407   .     A
C663   N697    1.364   .     A
C663   H695    1.081   .     S
C664   C666    1.407   .     A
C664   N698    1.364   .     A
C664   H696    1.081   .     S
C665   C667    1.411   .     A
C665   H737    1.081   .     S
C666   H738    1.081   .     S
C666   C668    1.411   .     A
C668   C175    1.517   1_556 S
C669   O703    1.277   .     A
C669   O705    1.291   .     A
C669   C671    1.437   .     S
C670   O704    1.278   .     A
C670   C672    1.437   .     S
C670   O706    1.291   .     A
C672   C507    1.365   1_655 S
C672   C550    1.538   1_655 S
C673   C675    1.387   .     A
C673   C683    1.402   .     A
C673   H721    1.083   .     S
C674   C676    1.386   .     A
C674   C684    1.401   .     A
C674   H722    1.084   .     S
C675   H687    1.084   .     S
C675   C677    1.395   .     A
C676   C678    1.397   .     A
C676   H688    1.083   .     S
C677   C679    1.399   .     A
C678   C680    1.401   .     A
C679   H689    1.084   .     S
C679   C681    1.400   .     A
C680   C682    1.401   .     A
C680   H690    1.084   .     S
C681   C723    1.520   .     S
C681   C683    1.420   .     A
C682   C684    1.420   .     A
C682   C730    1.520   .     S
C683   C930    1.466   1_545 S
C684   C929    1.466   .     S
Cu685  N698    2.009   .     S
Cu685  O703    1.976   .     S
Cu685  O699    1.950   .     S
Cu685  O706    1.970   .     S
Cu685  Cu686   2.674   .     S
Cu685  O702    1.952   .     S
Cu686  O701    1.952   .     S
Cu686  O704    1.976   .     S
Cu686  N697    2.009   .     S
Cu686  O700    1.950   .     S
Cu686  O705    1.970   .     S
C707   H712    1.111   .     S
C707   H713    1.105   .     S
C707   C507    1.537   1_655 S
C707   C544    1.530   1_655 S
C708   H711    1.111   .     S
C708   H710    1.107   .     S
C708   H709    1.111   .     S
C714   H720    1.111   .     S
C714   H719    1.105   .     S
C715   H716    1.107   .     S
C715   H717    1.111   .     S
C715   H718    1.111   .     S
C715   C550    1.530   1_655 S
C723   H728    1.108   .     S
C723   C724    1.526   .     S
C723   H729    1.112   .     S
C724   H725    1.111   .     S
C724   H972    1.108   1_545 S
C724   H973    1.110   1_545 S
H726   C970    1.108   .     S
H727   C970    1.110   .     S
C730   H736    1.112   .     S
C730   C731    1.526   .     S
C730   H735    1.108   .     S
C731   H732    1.111   .     S
C731   H979    1.108   .     S
C731   H980    1.110   .     S
H733   C977    1.108   1_545 S
H734   C977    1.110   1_545 S
C739   C759    1.453   .     S
C739   O781    1.291   .     A
C739   O783    1.290   .     A
C740   O784    1.292   .     A
C740   O782    1.293   .     A
C740   C760    1.459   .     S
C741   H773    1.081   .     S
C741   C743    1.407   .     A
C741   C749    1.411   .     A
C742   H774    1.081   .     S
C742   C750    1.411   .     A
C742   C744    1.407   .     A
C743   H775    1.080   .     S
C743   N779    1.363   .     A
C744   H776    1.081   .     S
C744   N780    1.364   .     A
C745   C747    1.407   .     A
C745   N779    1.364   .     A
C745   H777    1.081   .     S
C746   C748    1.407   .     A
C746   N780    1.364   .     A
C746   H778    1.081   .     S
C747   C749    1.411   .     A
C747   H819    1.081   .     S
C748   H820    1.081   .     S
C748   C750    1.411   .     A
C750   C257    1.517   1_556 S
C751   O785    1.277   .     A
C751   O787    1.291   .     A
C751   C753    1.437   .     S
C752   O786    1.278   .     A
C752   C754    1.437   .     S
C752   O788    1.291   .     A
C753   C918    1.365   1_455 S
C753   C953    1.537   1_455 S
C754   C835    1.365   .     S
C754   C878    1.538   .     S
C755   C757    1.387   .     A
C755   C765    1.402   .     A
C755   H803    1.083   .     S
C756   C758    1.386   .     A
C756   C766    1.401   .     A
C756   H804    1.084   .     S
C757   H769    1.084   .     S
C757   C759    1.395   .     A
C758   C760    1.397   .     A
C758   H770    1.083   .     S
C759   C761    1.399   .     A
C760   C762    1.401   .     A
C761   H771    1.084   .     S
C761   C763    1.400   .     A
C762   C764    1.401   .     A
C762   H772    1.084   .     S
C763   C805    1.520   .     S
C763   C765    1.420   .     A
C764   C766    1.420   .     A
C764   C812    1.520   .     S
C766   C519    1.466   1_565 S
Cu767  N780    2.009   .     S
Cu767  O785    1.976   .     S
Cu767  O781    1.950   .     S
Cu767  O788    1.970   .     S
Cu767  Cu768   2.674   .     S
Cu767  O784    1.952   .     S
Cu768  O783    1.952   .     S
Cu768  O786    1.976   .     S
Cu768  N779    2.009   .     S
Cu768  O782    1.950   .     S
Cu768  O787    1.970   .     S
C789   H794    1.111   .     S
C789   H795    1.105   .     S
C789   C835    1.537   .     S
C789   C872    1.530   .     S
C790   H793    1.111   .     S
C790   H792    1.107   .     S
C790   H791    1.111   .     S
C790   C953    1.530   1_455 S
C796   H802    1.111   .     S
C796   H801    1.105   .     S
C796   C918    1.538   1_455 S
C796   C961    1.530   1_455 S
C797   H798    1.107   .     S
C797   H799    1.111   .     S
C797   H800    1.111   .     S
C797   C878    1.530   .     S
C805   H810    1.108   .     S
C805   C806    1.526   .     S
C805   H811    1.112   .     S
C806   H807    1.111   .     S
H808   C560    1.108   1_565 S
H809   C560    1.110   1_565 S
C812   H818    1.112   .     S
C812   C813    1.526   .     S
C812   H817    1.108   .     S
C813   H814    1.111   .     S
C813   H569    1.108   1_565 S
C813   H570    1.110   1_565 S
C821   C841    1.453   .     S
C821   O863    1.291   .     A
C821   O865    1.290   .     A
C822   O866    1.292   .     A
C822   O864    1.293   .     A
C822   C842    1.459   .     S
C823   H855    1.081   .     S
C823   C825    1.407   .     A
C823   C831    1.411   .     A
C824   H856    1.081   .     S
C824   C832    1.411   .     A
C824   C826    1.407   .     A
C825   H857    1.080   .     S
C825   N861    1.363   .     A
C826   H858    1.081   .     S
C826   N862    1.364   .     A
C827   C829    1.407   .     A
C827   N861    1.364   .     A
C827   H859    1.081   .     S
C828   C830    1.407   .     A
C828   N862    1.364   .     A
C828   H860    1.081   .     S
C829   C831    1.411   .     A
C829   H901    1.081   .     S
C830   H902    1.081   .     S
C830   C832    1.411   .     A
C832   C339    1.517   1_556 S
C833   O867    1.277   .     A
C833   O869    1.291   .     A
C833   C835    1.437   .     S
C834   O868    1.278   .     A
C834   C836    1.437   .     S
C834   O870    1.291   .     A
C836   C917    1.365   .     S
C836   C960    1.538   .     S
C837   C839    1.387   .     A
C837   C847    1.402   .     A
C837   H885    1.083   .     S
C838   C840    1.386   .     A
C838   C848    1.401   .     A
C838   H886    1.084   .     S
C839   H851    1.084   .     S
C839   C841    1.395   .     A
C840   C842    1.397   .     A
C840   H852    1.083   .     S
C841   C843    1.399   .     A
C842   C844    1.401   .     A
C843   H853    1.084   .     S
C843   C845    1.400   .     A
C844   C846    1.401   .     A
C844   H854    1.084   .     S
C845   C887    1.520   .     S
C845   C847    1.420   .     A
C846   C848    1.420   .     A
C846   C894    1.520   .     S
C848   C601    1.466   1_565 S
Cu849  N862    2.009   .     S
Cu849  O867    1.976   .     S
Cu849  O863    1.950   .     S
Cu849  O870    1.970   .     S
Cu849  Cu850   2.674   .     S
Cu849  O866    1.952   .     S
Cu850  O865    1.952   .     S
Cu850  O868    1.976   .     S
Cu850  N861    2.009   .     S
Cu850  O864    1.950   .     S
Cu850  O869    1.970   .     S
C871   H876    1.111   .     S
C871   H877    1.105   .     S
C871   C917    1.537   .     S
C871   C954    1.530   .     S
C872   H875    1.111   .     S
C872   H874    1.107   .     S
C872   H873    1.111   .     S
C878   H884    1.111   .     S
C878   H883    1.105   .     S
C879   H880    1.107   .     S
C879   H881    1.111   .     S
C879   H882    1.111   .     S
C879   C960    1.530   .     S
C887   H892    1.108   .     S
C887   C888    1.526   .     S
C887   H893    1.112   .     S
C888   H889    1.111   .     S
H890   C642    1.108   1_565 S
H891   C642    1.110   1_565 S
C894   H900    1.112   .     S
C894   C895    1.526   .     S
C894   H899    1.108   .     S
C895   H896    1.111   .     S
C895   H651    1.108   1_565 S
C895   H652    1.110   1_565 S
C903   C923    1.453   .     S
C903   O945    1.291   .     A
C903   O947    1.290   .     A
C904   O948    1.292   .     A
C904   O946    1.293   .     A
C904   C924    1.459   .     S
C905   H937    1.081   .     S
C905   C907    1.407   .     A
C905   C913    1.411   .     A
C906   H938    1.081   .     S
C906   C914    1.411   .     A
C906   C908    1.407   .     A
C907   H939    1.080   .     S
C907   N943    1.363   .     A
C908   H940    1.081   .     S
C908   N944    1.364   .     A
C909   C911    1.407   .     A
C909   N943    1.364   .     A
C909   H941    1.081   .     S
C910   C912    1.407   .     A
C910   N944    1.364   .     A
C910   H942    1.081   .     S
C911   C913    1.411   .     A
C911   H983    1.081   .     S
C912   H984    1.081   .     S
C912   C914    1.411   .     A
C914   C421    1.517   1_556 S
C915   O949    1.277   .     A
C915   O951    1.291   .     A
C915   C917    1.437   .     S
C916   O950    1.278   .     A
C916   C918    1.437   .     S
C916   O952    1.291   .     A
C918   C753    1.365   1_655 S
C918   C796    1.538   1_655 S
C919   C921    1.387   .     A
C919   C929    1.402   .     A
C919   H967    1.083   .     S
C920   C922    1.386   .     A
C920   C930    1.401   .     A
C920   H968    1.084   .     S
C921   H933    1.084   .     S
C921   C923    1.395   .     A
C922   C924    1.397   .     A
C922   H934    1.083   .     S
C923   C925    1.399   .     A
C924   C926    1.401   .     A
C925   H935    1.084   .     S
C925   C927    1.400   .     A
C926   C928    1.401   .     A
C926   H936    1.084   .     S
C927   C969    1.520   .     S
C927   C929    1.420   .     A
C928   C930    1.420   .     A
C928   C976    1.520   .     S
C930   C683    1.466   1_565 S
Cu931  N944    2.009   .     S
Cu931  O949    1.976   .     S
Cu931  O945    1.950   .     S
Cu931  O952    1.970   .     S
Cu931  Cu932   2.674   .     S
Cu931  O948    1.952   .     S
Cu932  O947    1.952   .     S
Cu932  O950    1.976   .     S
Cu932  N943    2.009   .     S
Cu932  O946    1.950   .     S
Cu932  O951    1.970   .     S
C953   H958    1.111   .     S
C953   H959    1.105   .     S
C953   C753    1.537   1_655 S
C953   C790    1.530   1_655 S
C954   H957    1.111   .     S
C954   H956    1.107   .     S
C954   H955    1.111   .     S
C960   H966    1.111   .     S
C960   H965    1.105   .     S
C961   H962    1.107   .     S
C961   H963    1.111   .     S
C961   H964    1.111   .     S
C961   C796    1.530   1_655 S
C969   H974    1.108   .     S
C969   C970    1.526   .     S
C969   H975    1.112   .     S
C970   H971    1.111   .     S
H972   C724    1.108   1_565 S
H973   C724    1.110   1_565 S
C976   H982    1.112   .     S
C976   C977    1.526   .     S
C976   H981    1.108   .     S
C977   H978    1.111   .     S
C977   H733    1.108   1_565 S
C977   H734    1.110   1_565 S
