data_str_m2_o2_o10_pcu_sym.177
_audit_creation_date              2020-01-03
_audit_creation_method            'Materials Studio'
_symmetry_space_group_name_H-M    'P1'
_symmetry_Int_Tables_number       1
_symmetry_cell_setting            triclinic
loop_
_symmetry_equiv_pos_as_xyz
  x,y,z
_cell_length_a                    26.2216
_cell_length_b                    30.2752
_cell_length_c                    27.7384
_cell_angle_alpha                 90.1372
_cell_angle_beta                  97.8938
_cell_angle_gamma                 90.1501
loop_
_atom_site_label
_atom_site_type_symbol
_atom_site_fract_x
_atom_site_fract_y
_atom_site_fract_z
_atom_site_U_iso_or_equiv
_atom_site_adp_type
_atom_site_occupancy
C1     C     0.16673   0.16498   0.24990   0.00000  Uiso   1.00
C2     C     0.16679   0.33479   0.25009   0.00000  Uiso   1.00
C3     C     0.20665   0.27012   0.05920   0.00000  Uiso   1.00
C4     C     0.14204   0.21628   0.44274   0.00000  Uiso   1.00
C5     C     0.20569   0.27007   0.10980   0.00000  Uiso   1.00
C6     C     0.14216   0.21710   0.39204   0.00000  Uiso   1.00
C7     C     0.12771   0.22986   0.09958   0.00000  Uiso   1.00
C8     C     0.19111   0.28290   0.39857   0.00000  Uiso   1.00
C9     C     0.12677   0.22974   0.04874   0.00000  Uiso   1.00
C10    C     0.19127   0.28369   0.44932   0.00000  Uiso   1.00
C11    C     0.16670   0.24994   0.02735   0.00000  Uiso   1.00
C12    C     0.16668   0.24996   0.47266   0.00000  Uiso   1.00
C13    C     0.06790   0.24976   0.23756   0.00000  Uiso   1.00
C14    C     0.26543   0.24994   0.26243   0.00000  Uiso   1.00
C15    C     0.01264   0.24960   0.23068   0.00000  Uiso   1.00
C16    C     0.32067   0.24983   0.26928   0.00000  Uiso   1.00
C17    C     0.13727   0.04730   0.28024   0.00000  Uiso   1.00
C18    C     0.21297   0.45199   0.24550   0.00000  Uiso   1.00
C19    C     0.13448   0.09315   0.27843   0.00000  Uiso   1.00
C20    C     0.21339   0.40603   0.24430   0.00000  Uiso   1.00
C21    C     0.16592   0.11670   0.24950   0.00000  Uiso   1.00
C22    C     0.16791   0.38268   0.25050   0.00000  Uiso   1.00
C23    C     0.19768   0.09326   0.22119   0.00000  Uiso   1.00
C24    C     0.12304   0.40572   0.25731   0.00000  Uiso   1.00
C25    C     0.19728   0.04734   0.22132   0.00000  Uiso   1.00
C26    C     0.12297   0.45160   0.25676   0.00000  Uiso   1.00
C27    C     0.16764   0.02395   0.25109   0.00000  Uiso   1.00
C28    C     0.16791   0.47520   0.25124   0.00000  Uiso   1.00
Cu29   Cu    0.16667   0.24999   0.29822   0.00000  Uiso   1.00
Cu30   Cu    0.16667   0.25000   0.20179   0.00000  Uiso   1.00
H31    H     0.32604   0.24943   0.19362   0.00000  Uiso   1.00
H32    H     0.00729   0.25002   0.30633   0.00000  Uiso   1.00
H33    H     0.11465   0.02998   0.30410   0.00000  Uiso   1.00
H34    H     0.24845   0.46947   0.24240   0.00000  Uiso   1.00
H35    H     0.22051   0.03004   0.19803   0.00000  Uiso   1.00
H36    H     0.08741   0.46865   0.26011   0.00000  Uiso   1.00
H37    H     0.23903   0.28547   0.04548   0.00000  Uiso   1.00
H38    H     0.12323   0.18894   0.45818   0.00000  Uiso   1.00
H39    H     0.23652   0.28609   0.13343   0.00000  Uiso   1.00
H40    H     0.12266   0.19113   0.36982   0.00000  Uiso   1.00
H41    H     0.09689   0.21385   0.11516   0.00000  Uiso   1.00
H42    H     0.21053   0.30893   0.38153   0.00000  Uiso   1.00
H43    H     0.09440   0.21436   0.02654   0.00000  Uiso   1.00
H44    H     0.21005   0.31103   0.46980   0.00000  Uiso   1.00
N45    N     0.16667   0.25001   0.12935   0.00000  Uiso   1.00
N46    N     0.16667   0.24999   0.37066   0.00000  Uiso   1.00
O47    O     0.16667   0.18572   0.29072   0.00000  Uiso   1.00
O48    O     0.16666   0.31427   0.20929   0.00000  Uiso   1.00
O49    O     0.16667   0.18573   0.20928   0.00000  Uiso   1.00
O50    O     0.16666   0.31427   0.29072   0.00000  Uiso   1.00
O51    O     0.09161   0.25000   0.28132   0.00000  Uiso   1.00
O52    O     0.24172   0.25000   0.21868   0.00000  Uiso   1.00
O53    O     0.09161   0.25000   0.19989   0.00000  Uiso   1.00
O54    O     0.24172   0.25000   0.30012   0.00000  Uiso   1.00
O55    O     0.10010   0.11331   0.30490   0.00000  Uiso   1.00
H56    H     0.08875   0.14155   0.28908   0.00000  Uiso   1.00
O57    O     0.25909   0.38579   0.23763   0.00000  Uiso   1.00
H58    H     0.25581   0.35335   0.23980   0.00000  Uiso   1.00
I59    I     0.25054   0.12384   0.17967   0.00000  Uiso   1.00
I60    I     0.05370   0.37310   0.26773   0.00000  Uiso   1.00
C61    C     0.50006   0.16498   0.24990   0.00000  Uiso   1.00
C62    C     0.50012   0.33479   0.25009   0.00000  Uiso   1.00
C63    C     0.53999   0.27012   0.05920   0.00000  Uiso   1.00
C64    C     0.47537   0.21628   0.44274   0.00000  Uiso   1.00
C65    C     0.53902   0.27007   0.10980   0.00000  Uiso   1.00
C66    C     0.47549   0.21710   0.39204   0.00000  Uiso   1.00
C67    C     0.46104   0.22986   0.09958   0.00000  Uiso   1.00
C68    C     0.52445   0.28290   0.39857   0.00000  Uiso   1.00
C69    C     0.46010   0.22974   0.04874   0.00000  Uiso   1.00
C70    C     0.52460   0.28369   0.44932   0.00000  Uiso   1.00
C71    C     0.50004   0.24994   0.02735   0.00000  Uiso   1.00
C72    C     0.50001   0.24996   0.47266   0.00000  Uiso   1.00
C73    C     0.40123   0.24976   0.23756   0.00000  Uiso   1.00
C74    C     0.59876   0.24994   0.26243   0.00000  Uiso   1.00
C75    C     0.34598   0.24960   0.23068   0.00000  Uiso   1.00
C76    C     0.65401   0.24983   0.26928   0.00000  Uiso   1.00
C77    C     0.47061   0.04730   0.28024   0.00000  Uiso   1.00
C78    C     0.54630   0.45199   0.24550   0.00000  Uiso   1.00
C79    C     0.46781   0.09315   0.27843   0.00000  Uiso   1.00
C80    C     0.54673   0.40603   0.24430   0.00000  Uiso   1.00
C81    C     0.49926   0.11670   0.24950   0.00000  Uiso   1.00
C82    C     0.50124   0.38268   0.25050   0.00000  Uiso   1.00
C83    C     0.53102   0.09326   0.22119   0.00000  Uiso   1.00
C84    C     0.45637   0.40572   0.25731   0.00000  Uiso   1.00
C85    C     0.53062   0.04734   0.22132   0.00000  Uiso   1.00
C86    C     0.45631   0.45160   0.25676   0.00000  Uiso   1.00
C87    C     0.50098   0.02395   0.25109   0.00000  Uiso   1.00
C88    C     0.50124   0.47520   0.25124   0.00000  Uiso   1.00
Cu89   Cu    0.50000   0.24999   0.29822   0.00000  Uiso   1.00
Cu90   Cu    0.50000   0.25000   0.20179   0.00000  Uiso   1.00
H91    H     0.65937   0.24943   0.19362   0.00000  Uiso   1.00
H92    H     0.34062   0.25002   0.30633   0.00000  Uiso   1.00
H93    H     0.44799   0.02998   0.30410   0.00000  Uiso   1.00
H94    H     0.58178   0.46947   0.24240   0.00000  Uiso   1.00
H95    H     0.55384   0.03004   0.19803   0.00000  Uiso   1.00
H96    H     0.42074   0.46865   0.26011   0.00000  Uiso   1.00
H97    H     0.57237   0.28547   0.04548   0.00000  Uiso   1.00
H98    H     0.45657   0.18894   0.45818   0.00000  Uiso   1.00
H99    H     0.56985   0.28609   0.13343   0.00000  Uiso   1.00
H100   H     0.45599   0.19113   0.36982   0.00000  Uiso   1.00
H101   H     0.43022   0.21385   0.11516   0.00000  Uiso   1.00
H102   H     0.54386   0.30893   0.38153   0.00000  Uiso   1.00
H103   H     0.42773   0.21436   0.02654   0.00000  Uiso   1.00
H104   H     0.54339   0.31103   0.46980   0.00000  Uiso   1.00
N105   N     0.50000   0.25001   0.12935   0.00000  Uiso   1.00
N106   N     0.50000   0.24999   0.37066   0.00000  Uiso   1.00
O107   O     0.50000   0.18572   0.29072   0.00000  Uiso   1.00
O108   O     0.50000   0.31427   0.20929   0.00000  Uiso   1.00
O109   O     0.50000   0.18573   0.20928   0.00000  Uiso   1.00
O110   O     0.50000   0.31427   0.29072   0.00000  Uiso   1.00
O111   O     0.42495   0.25000   0.28132   0.00000  Uiso   1.00
O112   O     0.57505   0.25000   0.21868   0.00000  Uiso   1.00
O113   O     0.42495   0.25000   0.19989   0.00000  Uiso   1.00
O114   O     0.57505   0.25000   0.30012   0.00000  Uiso   1.00
O115   O     0.43343   0.11331   0.30490   0.00000  Uiso   1.00
H116   H     0.42208   0.14155   0.28908   0.00000  Uiso   1.00
O117   O     0.59242   0.38579   0.23763   0.00000  Uiso   1.00
H118   H     0.58915   0.35335   0.23980   0.00000  Uiso   1.00
I119   I     0.58388   0.12384   0.17967   0.00000  Uiso   1.00
I120   I     0.38704   0.37310   0.26773   0.00000  Uiso   1.00
C121   C     0.83340   0.16498   0.24990   0.00000  Uiso   1.00
C122   C     0.83346   0.33479   0.25009   0.00000  Uiso   1.00
C123   C     0.87332   0.27012   0.05920   0.00000  Uiso   1.00
C124   C     0.80870   0.21628   0.44274   0.00000  Uiso   1.00
C125   C     0.87235   0.27007   0.10980   0.00000  Uiso   1.00
C126   C     0.80882   0.21710   0.39204   0.00000  Uiso   1.00
C127   C     0.79437   0.22986   0.09958   0.00000  Uiso   1.00
C128   C     0.85778   0.28290   0.39857   0.00000  Uiso   1.00
C129   C     0.79343   0.22974   0.04874   0.00000  Uiso   1.00
C130   C     0.85794   0.28369   0.44932   0.00000  Uiso   1.00
C131   C     0.83337   0.24994   0.02735   0.00000  Uiso   1.00
C132   C     0.83334   0.24996   0.47266   0.00000  Uiso   1.00
C133   C     0.73457   0.24976   0.23756   0.00000  Uiso   1.00
C134   C     0.93210   0.24994   0.26243   0.00000  Uiso   1.00
C135   C     0.67931   0.24960   0.23068   0.00000  Uiso   1.00
C136   C     0.98734   0.24983   0.26928   0.00000  Uiso   1.00
C137   C     0.80394   0.04730   0.28024   0.00000  Uiso   1.00
C138   C     0.87963   0.45199   0.24550   0.00000  Uiso   1.00
C139   C     0.80115   0.09315   0.27843   0.00000  Uiso   1.00
C140   C     0.88006   0.40603   0.24430   0.00000  Uiso   1.00
C141   C     0.83259   0.11670   0.24950   0.00000  Uiso   1.00
C142   C     0.83457   0.38268   0.25050   0.00000  Uiso   1.00
C143   C     0.86435   0.09326   0.22119   0.00000  Uiso   1.00
C144   C     0.78971   0.40572   0.25731   0.00000  Uiso   1.00
C145   C     0.86395   0.04734   0.22132   0.00000  Uiso   1.00
C146   C     0.78964   0.45160   0.25676   0.00000  Uiso   1.00
C147   C     0.83431   0.02395   0.25109   0.00000  Uiso   1.00
C148   C     0.83458   0.47520   0.25124   0.00000  Uiso   1.00
Cu149  Cu    0.83333   0.24999   0.29822   0.00000  Uiso   1.00
Cu150  Cu    0.83333   0.25000   0.20179   0.00000  Uiso   1.00
H151   H     0.99270   0.24943   0.19362   0.00000  Uiso   1.00
H152   H     0.67395   0.25002   0.30633   0.00000  Uiso   1.00
H153   H     0.78132   0.02998   0.30410   0.00000  Uiso   1.00
H154   H     0.91511   0.46947   0.24240   0.00000  Uiso   1.00
H155   H     0.88718   0.03004   0.19803   0.00000  Uiso   1.00
H156   H     0.75407   0.46865   0.26011   0.00000  Uiso   1.00
H157   H     0.90570   0.28547   0.04548   0.00000  Uiso   1.00
H158   H     0.78990   0.18894   0.45818   0.00000  Uiso   1.00
H159   H     0.90318   0.28609   0.13343   0.00000  Uiso   1.00
H160   H     0.78932   0.19113   0.36982   0.00000  Uiso   1.00
H161   H     0.76355   0.21385   0.11516   0.00000  Uiso   1.00
H162   H     0.87720   0.30893   0.38153   0.00000  Uiso   1.00
H163   H     0.76107   0.21436   0.02654   0.00000  Uiso   1.00
H164   H     0.87672   0.31103   0.46980   0.00000  Uiso   1.00
N165   N     0.83333   0.25001   0.12935   0.00000  Uiso   1.00
N166   N     0.83333   0.24999   0.37066   0.00000  Uiso   1.00
O167   O     0.83334   0.18572   0.29072   0.00000  Uiso   1.00
O168   O     0.83333   0.31427   0.20929   0.00000  Uiso   1.00
O169   O     0.83334   0.18573   0.20928   0.00000  Uiso   1.00
O170   O     0.83333   0.31427   0.29072   0.00000  Uiso   1.00
O171   O     0.75828   0.25000   0.28132   0.00000  Uiso   1.00
O172   O     0.90839   0.25000   0.21868   0.00000  Uiso   1.00
O173   O     0.75828   0.25000   0.19989   0.00000  Uiso   1.00
O174   O     0.90839   0.25000   0.30012   0.00000  Uiso   1.00
O175   O     0.76676   0.11331   0.30490   0.00000  Uiso   1.00
H176   H     0.75541   0.14155   0.28908   0.00000  Uiso   1.00
O177   O     0.92575   0.38579   0.23763   0.00000  Uiso   1.00
H178   H     0.92248   0.35335   0.23980   0.00000  Uiso   1.00
I179   I     0.91721   0.12384   0.17967   0.00000  Uiso   1.00
I180   I     0.72037   0.37310   0.26773   0.00000  Uiso   1.00
C181   C     0.16673   0.66498   0.24990   0.00000  Uiso   1.00
C182   C     0.16679   0.83479   0.25009   0.00000  Uiso   1.00
C183   C     0.20665   0.77012   0.05920   0.00000  Uiso   1.00
C184   C     0.14204   0.71628   0.44274   0.00000  Uiso   1.00
C185   C     0.20569   0.77007   0.10980   0.00000  Uiso   1.00
C186   C     0.14216   0.71710   0.39204   0.00000  Uiso   1.00
C187   C     0.12771   0.72986   0.09958   0.00000  Uiso   1.00
C188   C     0.19111   0.78290   0.39857   0.00000  Uiso   1.00
C189   C     0.12677   0.72974   0.04874   0.00000  Uiso   1.00
C190   C     0.19127   0.78369   0.44932   0.00000  Uiso   1.00
C191   C     0.16670   0.74994   0.02735   0.00000  Uiso   1.00
C192   C     0.16668   0.74996   0.47266   0.00000  Uiso   1.00
C193   C     0.06790   0.74976   0.23756   0.00000  Uiso   1.00
C194   C     0.26543   0.74994   0.26243   0.00000  Uiso   1.00
C195   C     0.01264   0.74960   0.23068   0.00000  Uiso   1.00
C196   C     0.32067   0.74983   0.26928   0.00000  Uiso   1.00
C197   C     0.13727   0.54730   0.28024   0.00000  Uiso   1.00
C198   C     0.21297   0.95199   0.24550   0.00000  Uiso   1.00
C199   C     0.13448   0.59315   0.27843   0.00000  Uiso   1.00
C200   C     0.21339   0.90603   0.24430   0.00000  Uiso   1.00
C201   C     0.16592   0.61670   0.24950   0.00000  Uiso   1.00
C202   C     0.16791   0.88268   0.25050   0.00000  Uiso   1.00
C203   C     0.19768   0.59326   0.22119   0.00000  Uiso   1.00
C204   C     0.12304   0.90572   0.25731   0.00000  Uiso   1.00
C205   C     0.19728   0.54734   0.22132   0.00000  Uiso   1.00
C206   C     0.12297   0.95160   0.25676   0.00000  Uiso   1.00
C207   C     0.16764   0.52395   0.25109   0.00000  Uiso   1.00
C208   C     0.16791   0.97520   0.25124   0.00000  Uiso   1.00
Cu209  Cu    0.16667   0.74999   0.29822   0.00000  Uiso   1.00
Cu210  Cu    0.16667   0.75000   0.20179   0.00000  Uiso   1.00
H211   H     0.32604   0.74943   0.19362   0.00000  Uiso   1.00
H212   H     0.00729   0.75002   0.30633   0.00000  Uiso   1.00
H213   H     0.11465   0.52998   0.30410   0.00000  Uiso   1.00
H214   H     0.24845   0.96947   0.24240   0.00000  Uiso   1.00
H215   H     0.22051   0.53004   0.19803   0.00000  Uiso   1.00
H216   H     0.08741   0.96865   0.26011   0.00000  Uiso   1.00
H217   H     0.23903   0.78547   0.04548   0.00000  Uiso   1.00
H218   H     0.12323   0.68894   0.45818   0.00000  Uiso   1.00
H219   H     0.23652   0.78609   0.13343   0.00000  Uiso   1.00
H220   H     0.12266   0.69113   0.36982   0.00000  Uiso   1.00
H221   H     0.09689   0.71385   0.11516   0.00000  Uiso   1.00
H222   H     0.21053   0.80893   0.38153   0.00000  Uiso   1.00
H223   H     0.09440   0.71436   0.02654   0.00000  Uiso   1.00
H224   H     0.21005   0.81103   0.46980   0.00000  Uiso   1.00
N225   N     0.16667   0.75001   0.12935   0.00000  Uiso   1.00
N226   N     0.16667   0.74999   0.37066   0.00000  Uiso   1.00
O227   O     0.16667   0.68572   0.29072   0.00000  Uiso   1.00
O228   O     0.16666   0.81427   0.20929   0.00000  Uiso   1.00
O229   O     0.16667   0.68573   0.20928   0.00000  Uiso   1.00
O230   O     0.16666   0.81427   0.29072   0.00000  Uiso   1.00
O231   O     0.09161   0.75000   0.28132   0.00000  Uiso   1.00
O232   O     0.24172   0.75000   0.21868   0.00000  Uiso   1.00
O233   O     0.09161   0.75000   0.19989   0.00000  Uiso   1.00
O234   O     0.24172   0.75000   0.30012   0.00000  Uiso   1.00
O235   O     0.10010   0.61331   0.30490   0.00000  Uiso   1.00
H236   H     0.08875   0.64155   0.28908   0.00000  Uiso   1.00
O237   O     0.25909   0.88579   0.23763   0.00000  Uiso   1.00
H238   H     0.25581   0.85335   0.23980   0.00000  Uiso   1.00
I239   I     0.25054   0.62384   0.17967   0.00000  Uiso   1.00
I240   I     0.05370   0.87310   0.26773   0.00000  Uiso   1.00
C241   C     0.50006   0.66498   0.24990   0.00000  Uiso   1.00
C242   C     0.50012   0.83479   0.25009   0.00000  Uiso   1.00
C243   C     0.53999   0.77012   0.05920   0.00000  Uiso   1.00
C244   C     0.47537   0.71628   0.44274   0.00000  Uiso   1.00
C245   C     0.53902   0.77007   0.10980   0.00000  Uiso   1.00
C246   C     0.47549   0.71710   0.39204   0.00000  Uiso   1.00
C247   C     0.46104   0.72986   0.09958   0.00000  Uiso   1.00
C248   C     0.52445   0.78290   0.39857   0.00000  Uiso   1.00
C249   C     0.46010   0.72974   0.04874   0.00000  Uiso   1.00
C250   C     0.52460   0.78369   0.44932   0.00000  Uiso   1.00
C251   C     0.50004   0.74994   0.02735   0.00000  Uiso   1.00
C252   C     0.50001   0.74996   0.47266   0.00000  Uiso   1.00
C253   C     0.40123   0.74976   0.23756   0.00000  Uiso   1.00
C254   C     0.59876   0.74994   0.26243   0.00000  Uiso   1.00
C255   C     0.34598   0.74960   0.23068   0.00000  Uiso   1.00
C256   C     0.65401   0.74983   0.26928   0.00000  Uiso   1.00
C257   C     0.47061   0.54730   0.28024   0.00000  Uiso   1.00
C258   C     0.54630   0.95199   0.24550   0.00000  Uiso   1.00
C259   C     0.46781   0.59315   0.27843   0.00000  Uiso   1.00
C260   C     0.54673   0.90603   0.24430   0.00000  Uiso   1.00
C261   C     0.49926   0.61670   0.24950   0.00000  Uiso   1.00
C262   C     0.50124   0.88268   0.25050   0.00000  Uiso   1.00
C263   C     0.53102   0.59326   0.22119   0.00000  Uiso   1.00
C264   C     0.45637   0.90572   0.25731   0.00000  Uiso   1.00
C265   C     0.53062   0.54734   0.22132   0.00000  Uiso   1.00
C266   C     0.45631   0.95160   0.25676   0.00000  Uiso   1.00
C267   C     0.50098   0.52395   0.25109   0.00000  Uiso   1.00
C268   C     0.50124   0.97520   0.25124   0.00000  Uiso   1.00
Cu269  Cu    0.50000   0.74999   0.29822   0.00000  Uiso   1.00
Cu270  Cu    0.50000   0.75000   0.20179   0.00000  Uiso   1.00
H271   H     0.65937   0.74943   0.19362   0.00000  Uiso   1.00
H272   H     0.34062   0.75002   0.30633   0.00000  Uiso   1.00
H273   H     0.44799   0.52998   0.30410   0.00000  Uiso   1.00
H274   H     0.58178   0.96947   0.24240   0.00000  Uiso   1.00
H275   H     0.55384   0.53004   0.19803   0.00000  Uiso   1.00
H276   H     0.42074   0.96865   0.26011   0.00000  Uiso   1.00
H277   H     0.57237   0.78547   0.04548   0.00000  Uiso   1.00
H278   H     0.45657   0.68894   0.45818   0.00000  Uiso   1.00
H279   H     0.56985   0.78609   0.13343   0.00000  Uiso   1.00
H280   H     0.45599   0.69113   0.36982   0.00000  Uiso   1.00
H281   H     0.43022   0.71385   0.11516   0.00000  Uiso   1.00
H282   H     0.54386   0.80893   0.38153   0.00000  Uiso   1.00
H283   H     0.42773   0.71436   0.02654   0.00000  Uiso   1.00
H284   H     0.54339   0.81103   0.46980   0.00000  Uiso   1.00
N285   N     0.50000   0.75001   0.12935   0.00000  Uiso   1.00
N286   N     0.50000   0.74999   0.37066   0.00000  Uiso   1.00
O287   O     0.50000   0.68572   0.29072   0.00000  Uiso   1.00
O288   O     0.50000   0.81427   0.20929   0.00000  Uiso   1.00
O289   O     0.50000   0.68573   0.20928   0.00000  Uiso   1.00
O290   O     0.50000   0.81427   0.29072   0.00000  Uiso   1.00
O291   O     0.42495   0.75000   0.28132   0.00000  Uiso   1.00
O292   O     0.57505   0.75000   0.21868   0.00000  Uiso   1.00
O293   O     0.42495   0.75000   0.19989   0.00000  Uiso   1.00
O294   O     0.57505   0.75000   0.30012   0.00000  Uiso   1.00
O295   O     0.43343   0.61331   0.30490   0.00000  Uiso   1.00
H296   H     0.42208   0.64155   0.28908   0.00000  Uiso   1.00
O297   O     0.59242   0.88579   0.23763   0.00000  Uiso   1.00
H298   H     0.58915   0.85335   0.23980   0.00000  Uiso   1.00
I299   I     0.58388   0.62384   0.17967   0.00000  Uiso   1.00
I300   I     0.38704   0.87310   0.26773   0.00000  Uiso   1.00
C301   C     0.83340   0.66498   0.24990   0.00000  Uiso   1.00
C302   C     0.83346   0.83479   0.25009   0.00000  Uiso   1.00
C303   C     0.87332   0.77012   0.05920   0.00000  Uiso   1.00
C304   C     0.80870   0.71628   0.44274   0.00000  Uiso   1.00
C305   C     0.87235   0.77007   0.10980   0.00000  Uiso   1.00
C306   C     0.80882   0.71710   0.39204   0.00000  Uiso   1.00
C307   C     0.79437   0.72986   0.09958   0.00000  Uiso   1.00
C308   C     0.85778   0.78290   0.39857   0.00000  Uiso   1.00
C309   C     0.79343   0.72974   0.04874   0.00000  Uiso   1.00
C310   C     0.85794   0.78369   0.44932   0.00000  Uiso   1.00
C311   C     0.83337   0.74994   0.02735   0.00000  Uiso   1.00
C312   C     0.83334   0.74996   0.47266   0.00000  Uiso   1.00
C313   C     0.73457   0.74976   0.23756   0.00000  Uiso   1.00
C314   C     0.93210   0.74994   0.26243   0.00000  Uiso   1.00
C315   C     0.67931   0.74960   0.23068   0.00000  Uiso   1.00
C316   C     0.98734   0.74983   0.26928   0.00000  Uiso   1.00
C317   C     0.80394   0.54730   0.28024   0.00000  Uiso   1.00
C318   C     0.87963   0.95199   0.24550   0.00000  Uiso   1.00
C319   C     0.80115   0.59315   0.27843   0.00000  Uiso   1.00
C320   C     0.88006   0.90603   0.24430   0.00000  Uiso   1.00
C321   C     0.83259   0.61670   0.24950   0.00000  Uiso   1.00
C322   C     0.83457   0.88268   0.25050   0.00000  Uiso   1.00
C323   C     0.86435   0.59326   0.22119   0.00000  Uiso   1.00
C324   C     0.78971   0.90572   0.25731   0.00000  Uiso   1.00
C325   C     0.86395   0.54734   0.22132   0.00000  Uiso   1.00
C326   C     0.78964   0.95160   0.25676   0.00000  Uiso   1.00
C327   C     0.83431   0.52395   0.25109   0.00000  Uiso   1.00
C328   C     0.83458   0.97520   0.25124   0.00000  Uiso   1.00
Cu329  Cu    0.83333   0.74999   0.29822   0.00000  Uiso   1.00
Cu330  Cu    0.83333   0.75000   0.20179   0.00000  Uiso   1.00
H331   H     0.99270   0.74943   0.19362   0.00000  Uiso   1.00
H332   H     0.67395   0.75002   0.30633   0.00000  Uiso   1.00
H333   H     0.78132   0.52998   0.30410   0.00000  Uiso   1.00
H334   H     0.91511   0.96947   0.24240   0.00000  Uiso   1.00
H335   H     0.88718   0.53004   0.19803   0.00000  Uiso   1.00
H336   H     0.75407   0.96865   0.26011   0.00000  Uiso   1.00
H337   H     0.90570   0.78547   0.04548   0.00000  Uiso   1.00
H338   H     0.78990   0.68894   0.45818   0.00000  Uiso   1.00
H339   H     0.90318   0.78609   0.13343   0.00000  Uiso   1.00
H340   H     0.78932   0.69113   0.36982   0.00000  Uiso   1.00
H341   H     0.76355   0.71385   0.11516   0.00000  Uiso   1.00
H342   H     0.87720   0.80893   0.38153   0.00000  Uiso   1.00
H343   H     0.76107   0.71436   0.02654   0.00000  Uiso   1.00
H344   H     0.87672   0.81103   0.46980   0.00000  Uiso   1.00
N345   N     0.83333   0.75001   0.12935   0.00000  Uiso   1.00
N346   N     0.83333   0.74999   0.37066   0.00000  Uiso   1.00
O347   O     0.83334   0.68572   0.29072   0.00000  Uiso   1.00
O348   O     0.83333   0.81427   0.20929   0.00000  Uiso   1.00
O349   O     0.83334   0.68573   0.20928   0.00000  Uiso   1.00
O350   O     0.83333   0.81427   0.29072   0.00000  Uiso   1.00
O351   O     0.75828   0.75000   0.28132   0.00000  Uiso   1.00
O352   O     0.90839   0.75000   0.21868   0.00000  Uiso   1.00
O353   O     0.75828   0.75000   0.19989   0.00000  Uiso   1.00
O354   O     0.90839   0.75000   0.30012   0.00000  Uiso   1.00
O355   O     0.76676   0.61331   0.30490   0.00000  Uiso   1.00
H356   H     0.75541   0.64155   0.28908   0.00000  Uiso   1.00
O357   O     0.92575   0.88579   0.23763   0.00000  Uiso   1.00
H358   H     0.92248   0.85335   0.23980   0.00000  Uiso   1.00
I359   I     0.91721   0.62384   0.17967   0.00000  Uiso   1.00
I360   I     0.72037   0.87310   0.26773   0.00000  Uiso   1.00
C361   C     0.16673   0.16498   0.74990   0.00000  Uiso   1.00
C362   C     0.16679   0.33479   0.75009   0.00000  Uiso   1.00
C363   C     0.20665   0.27012   0.55920   0.00000  Uiso   1.00
C364   C     0.14204   0.21628   0.94274   0.00000  Uiso   1.00
C365   C     0.20569   0.27007   0.60980   0.00000  Uiso   1.00
C366   C     0.14216   0.21710   0.89204   0.00000  Uiso   1.00
C367   C     0.12771   0.22986   0.59958   0.00000  Uiso   1.00
C368   C     0.19111   0.28290   0.89857   0.00000  Uiso   1.00
C369   C     0.12677   0.22974   0.54874   0.00000  Uiso   1.00
C370   C     0.19127   0.28369   0.94932   0.00000  Uiso   1.00
C371   C     0.16670   0.24994   0.52735   0.00000  Uiso   1.00
C372   C     0.16668   0.24996   0.97266   0.00000  Uiso   1.00
C373   C     0.06790   0.24976   0.73756   0.00000  Uiso   1.00
C374   C     0.26543   0.24994   0.76243   0.00000  Uiso   1.00
C375   C     0.01264   0.24960   0.73068   0.00000  Uiso   1.00
C376   C     0.32067   0.24983   0.76928   0.00000  Uiso   1.00
C377   C     0.13727   0.04730   0.78024   0.00000  Uiso   1.00
C378   C     0.21297   0.45199   0.74550   0.00000  Uiso   1.00
C379   C     0.13448   0.09315   0.77843   0.00000  Uiso   1.00
C380   C     0.21339   0.40603   0.74430   0.00000  Uiso   1.00
C381   C     0.16592   0.11670   0.74950   0.00000  Uiso   1.00
C382   C     0.16791   0.38268   0.75050   0.00000  Uiso   1.00
C383   C     0.19768   0.09326   0.72119   0.00000  Uiso   1.00
C384   C     0.12304   0.40572   0.75731   0.00000  Uiso   1.00
C385   C     0.19728   0.04734   0.72132   0.00000  Uiso   1.00
C386   C     0.12297   0.45160   0.75676   0.00000  Uiso   1.00
C387   C     0.16764   0.02395   0.75109   0.00000  Uiso   1.00
C388   C     0.16791   0.47520   0.75124   0.00000  Uiso   1.00
Cu389  Cu    0.16667   0.24999   0.79822   0.00000  Uiso   1.00
Cu390  Cu    0.16667   0.25000   0.70179   0.00000  Uiso   1.00
H391   H     0.32604   0.24943   0.69362   0.00000  Uiso   1.00
H392   H     0.00729   0.25002   0.80633   0.00000  Uiso   1.00
H393   H     0.11465   0.02998   0.80410   0.00000  Uiso   1.00
H394   H     0.24845   0.46947   0.74240   0.00000  Uiso   1.00
H395   H     0.22051   0.03004   0.69803   0.00000  Uiso   1.00
H396   H     0.08741   0.46865   0.76011   0.00000  Uiso   1.00
H397   H     0.23903   0.28547   0.54548   0.00000  Uiso   1.00
H398   H     0.12323   0.18894   0.95818   0.00000  Uiso   1.00
H399   H     0.23652   0.28609   0.63343   0.00000  Uiso   1.00
H400   H     0.12266   0.19113   0.86982   0.00000  Uiso   1.00
H401   H     0.09689   0.21385   0.61516   0.00000  Uiso   1.00
H402   H     0.21053   0.30893   0.88153   0.00000  Uiso   1.00
H403   H     0.09440   0.21436   0.52654   0.00000  Uiso   1.00
H404   H     0.21005   0.31103   0.96980   0.00000  Uiso   1.00
N405   N     0.16667   0.25001   0.62935   0.00000  Uiso   1.00
N406   N     0.16667   0.24999   0.87066   0.00000  Uiso   1.00
O407   O     0.16667   0.18572   0.79072   0.00000  Uiso   1.00
O408   O     0.16666   0.31427   0.70929   0.00000  Uiso   1.00
O409   O     0.16667   0.18573   0.70928   0.00000  Uiso   1.00
O410   O     0.16666   0.31427   0.79072   0.00000  Uiso   1.00
O411   O     0.09161   0.25000   0.78132   0.00000  Uiso   1.00
O412   O     0.24172   0.25000   0.71868   0.00000  Uiso   1.00
O413   O     0.09161   0.25000   0.69989   0.00000  Uiso   1.00
O414   O     0.24172   0.25000   0.80012   0.00000  Uiso   1.00
O415   O     0.10010   0.11331   0.80490   0.00000  Uiso   1.00
H416   H     0.08875   0.14155   0.78908   0.00000  Uiso   1.00
O417   O     0.25909   0.38579   0.73763   0.00000  Uiso   1.00
H418   H     0.25581   0.35335   0.73980   0.00000  Uiso   1.00
I419   I     0.25054   0.12384   0.67967   0.00000  Uiso   1.00
I420   I     0.05370   0.37310   0.76773   0.00000  Uiso   1.00
C421   C     0.50006   0.16498   0.74990   0.00000  Uiso   1.00
C422   C     0.50012   0.33479   0.75009   0.00000  Uiso   1.00
C423   C     0.53999   0.27012   0.55920   0.00000  Uiso   1.00
C424   C     0.47537   0.21628   0.94274   0.00000  Uiso   1.00
C425   C     0.53902   0.27007   0.60980   0.00000  Uiso   1.00
C426   C     0.47549   0.21710   0.89204   0.00000  Uiso   1.00
C427   C     0.46104   0.22986   0.59958   0.00000  Uiso   1.00
C428   C     0.52445   0.28290   0.89857   0.00000  Uiso   1.00
C429   C     0.46010   0.22974   0.54874   0.00000  Uiso   1.00
C430   C     0.52460   0.28369   0.94932   0.00000  Uiso   1.00
C431   C     0.50004   0.24994   0.52735   0.00000  Uiso   1.00
C432   C     0.50001   0.24996   0.97266   0.00000  Uiso   1.00
C433   C     0.40123   0.24976   0.73756   0.00000  Uiso   1.00
C434   C     0.59876   0.24994   0.76243   0.00000  Uiso   1.00
C435   C     0.34598   0.24960   0.73068   0.00000  Uiso   1.00
C436   C     0.65401   0.24983   0.76928   0.00000  Uiso   1.00
C437   C     0.47061   0.04730   0.78024   0.00000  Uiso   1.00
C438   C     0.54630   0.45199   0.74550   0.00000  Uiso   1.00
C439   C     0.46781   0.09315   0.77843   0.00000  Uiso   1.00
C440   C     0.54673   0.40603   0.74430   0.00000  Uiso   1.00
C441   C     0.49926   0.11670   0.74950   0.00000  Uiso   1.00
C442   C     0.50124   0.38268   0.75050   0.00000  Uiso   1.00
C443   C     0.53102   0.09326   0.72119   0.00000  Uiso   1.00
C444   C     0.45637   0.40572   0.75731   0.00000  Uiso   1.00
C445   C     0.53062   0.04734   0.72132   0.00000  Uiso   1.00
C446   C     0.45631   0.45160   0.75676   0.00000  Uiso   1.00
C447   C     0.50098   0.02395   0.75109   0.00000  Uiso   1.00
C448   C     0.50124   0.47520   0.75124   0.00000  Uiso   1.00
Cu449  Cu    0.50000   0.24999   0.79822   0.00000  Uiso   1.00
Cu450  Cu    0.50000   0.25000   0.70179   0.00000  Uiso   1.00
H451   H     0.65937   0.24943   0.69362   0.00000  Uiso   1.00
H452   H     0.34062   0.25002   0.80633   0.00000  Uiso   1.00
H453   H     0.44799   0.02998   0.80410   0.00000  Uiso   1.00
H454   H     0.58178   0.46947   0.74240   0.00000  Uiso   1.00
H455   H     0.55384   0.03004   0.69803   0.00000  Uiso   1.00
H456   H     0.42074   0.46865   0.76011   0.00000  Uiso   1.00
H457   H     0.57237   0.28547   0.54548   0.00000  Uiso   1.00
H458   H     0.45657   0.18894   0.95818   0.00000  Uiso   1.00
H459   H     0.56985   0.28609   0.63343   0.00000  Uiso   1.00
H460   H     0.45599   0.19113   0.86982   0.00000  Uiso   1.00
H461   H     0.43022   0.21385   0.61516   0.00000  Uiso   1.00
H462   H     0.54386   0.30893   0.88153   0.00000  Uiso   1.00
H463   H     0.42773   0.21436   0.52654   0.00000  Uiso   1.00
H464   H     0.54339   0.31103   0.96980   0.00000  Uiso   1.00
N465   N     0.50000   0.25001   0.62935   0.00000  Uiso   1.00
N466   N     0.50000   0.24999   0.87066   0.00000  Uiso   1.00
O467   O     0.50000   0.18572   0.79072   0.00000  Uiso   1.00
O468   O     0.50000   0.31427   0.70929   0.00000  Uiso   1.00
O469   O     0.50000   0.18573   0.70928   0.00000  Uiso   1.00
O470   O     0.50000   0.31427   0.79072   0.00000  Uiso   1.00
O471   O     0.42495   0.25000   0.78132   0.00000  Uiso   1.00
O472   O     0.57505   0.25000   0.71868   0.00000  Uiso   1.00
O473   O     0.42495   0.25000   0.69989   0.00000  Uiso   1.00
O474   O     0.57505   0.25000   0.80012   0.00000  Uiso   1.00
O475   O     0.43343   0.11331   0.80490   0.00000  Uiso   1.00
H476   H     0.42208   0.14155   0.78908   0.00000  Uiso   1.00
O477   O     0.59242   0.38579   0.73763   0.00000  Uiso   1.00
H478   H     0.58915   0.35335   0.73980   0.00000  Uiso   1.00
I479   I     0.58388   0.12384   0.67967   0.00000  Uiso   1.00
I480   I     0.38704   0.37310   0.76773   0.00000  Uiso   1.00
C481   C     0.83340   0.16498   0.74990   0.00000  Uiso   1.00
C482   C     0.83346   0.33479   0.75009   0.00000  Uiso   1.00
C483   C     0.87332   0.27012   0.55920   0.00000  Uiso   1.00
C484   C     0.80870   0.21628   0.94274   0.00000  Uiso   1.00
C485   C     0.87235   0.27007   0.60980   0.00000  Uiso   1.00
C486   C     0.80882   0.21710   0.89204   0.00000  Uiso   1.00
C487   C     0.79437   0.22986   0.59958   0.00000  Uiso   1.00
C488   C     0.85778   0.28290   0.89857   0.00000  Uiso   1.00
C489   C     0.79343   0.22974   0.54874   0.00000  Uiso   1.00
C490   C     0.85794   0.28369   0.94932   0.00000  Uiso   1.00
C491   C     0.83337   0.24994   0.52735   0.00000  Uiso   1.00
C492   C     0.83334   0.24996   0.97266   0.00000  Uiso   1.00
C493   C     0.73457   0.24976   0.73756   0.00000  Uiso   1.00
C494   C     0.93210   0.24994   0.76243   0.00000  Uiso   1.00
C495   C     0.67931   0.24960   0.73068   0.00000  Uiso   1.00
C496   C     0.98734   0.24983   0.76928   0.00000  Uiso   1.00
C497   C     0.80394   0.04730   0.78024   0.00000  Uiso   1.00
C498   C     0.87963   0.45199   0.74550   0.00000  Uiso   1.00
C499   C     0.80115   0.09315   0.77843   0.00000  Uiso   1.00
C500   C     0.88006   0.40603   0.74430   0.00000  Uiso   1.00
C501   C     0.83259   0.11670   0.74950   0.00000  Uiso   1.00
C502   C     0.83457   0.38268   0.75050   0.00000  Uiso   1.00
C503   C     0.86435   0.09326   0.72119   0.00000  Uiso   1.00
C504   C     0.78971   0.40572   0.75731   0.00000  Uiso   1.00
C505   C     0.86395   0.04734   0.72132   0.00000  Uiso   1.00
C506   C     0.78964   0.45160   0.75676   0.00000  Uiso   1.00
C507   C     0.83431   0.02395   0.75109   0.00000  Uiso   1.00
C508   C     0.83458   0.47520   0.75124   0.00000  Uiso   1.00
Cu509  Cu    0.83333   0.24999   0.79822   0.00000  Uiso   1.00
Cu510  Cu    0.83333   0.25000   0.70179   0.00000  Uiso   1.00
H511   H     0.99270   0.24943   0.69362   0.00000  Uiso   1.00
H512   H     0.67395   0.25002   0.80633   0.00000  Uiso   1.00
H513   H     0.78132   0.02998   0.80410   0.00000  Uiso   1.00
H514   H     0.91511   0.46947   0.74240   0.00000  Uiso   1.00
H515   H     0.88718   0.03004   0.69803   0.00000  Uiso   1.00
H516   H     0.75407   0.46865   0.76011   0.00000  Uiso   1.00
H517   H     0.90570   0.28547   0.54548   0.00000  Uiso   1.00
H518   H     0.78990   0.18894   0.95818   0.00000  Uiso   1.00
H519   H     0.90318   0.28609   0.63343   0.00000  Uiso   1.00
H520   H     0.78932   0.19113   0.86982   0.00000  Uiso   1.00
H521   H     0.76355   0.21385   0.61516   0.00000  Uiso   1.00
H522   H     0.87720   0.30893   0.88153   0.00000  Uiso   1.00
H523   H     0.76107   0.21436   0.52654   0.00000  Uiso   1.00
H524   H     0.87672   0.31103   0.96980   0.00000  Uiso   1.00
N525   N     0.83333   0.25001   0.62935   0.00000  Uiso   1.00
N526   N     0.83333   0.24999   0.87066   0.00000  Uiso   1.00
O527   O     0.83334   0.18572   0.79072   0.00000  Uiso   1.00
O528   O     0.83333   0.31427   0.70929   0.00000  Uiso   1.00
O529   O     0.83334   0.18573   0.70928   0.00000  Uiso   1.00
O530   O     0.83333   0.31427   0.79072   0.00000  Uiso   1.00
O531   O     0.75828   0.25000   0.78132   0.00000  Uiso   1.00
O532   O     0.90839   0.25000   0.71868   0.00000  Uiso   1.00
O533   O     0.75828   0.25000   0.69989   0.00000  Uiso   1.00
O534   O     0.90839   0.25000   0.80012   0.00000  Uiso   1.00
O535   O     0.76676   0.11331   0.80490   0.00000  Uiso   1.00
H536   H     0.75541   0.14155   0.78908   0.00000  Uiso   1.00
O537   O     0.92575   0.38579   0.73763   0.00000  Uiso   1.00
H538   H     0.92248   0.35335   0.73980   0.00000  Uiso   1.00
I539   I     0.91721   0.12384   0.67967   0.00000  Uiso   1.00
I540   I     0.72037   0.37310   0.76773   0.00000  Uiso   1.00
C541   C     0.16673   0.66498   0.74990   0.00000  Uiso   1.00
C542   C     0.16679   0.83479   0.75009   0.00000  Uiso   1.00
C543   C     0.20665   0.77012   0.55920   0.00000  Uiso   1.00
C544   C     0.14204   0.71628   0.94274   0.00000  Uiso   1.00
C545   C     0.20569   0.77007   0.60980   0.00000  Uiso   1.00
C546   C     0.14216   0.71710   0.89204   0.00000  Uiso   1.00
C547   C     0.12771   0.72986   0.59958   0.00000  Uiso   1.00
C548   C     0.19111   0.78290   0.89857   0.00000  Uiso   1.00
C549   C     0.12677   0.72974   0.54874   0.00000  Uiso   1.00
C550   C     0.19127   0.78369   0.94932   0.00000  Uiso   1.00
C551   C     0.16670   0.74994   0.52735   0.00000  Uiso   1.00
C552   C     0.16668   0.74996   0.97266   0.00000  Uiso   1.00
C553   C     0.06790   0.74976   0.73756   0.00000  Uiso   1.00
C554   C     0.26543   0.74994   0.76243   0.00000  Uiso   1.00
C555   C     0.01264   0.74960   0.73068   0.00000  Uiso   1.00
C556   C     0.32067   0.74983   0.76928   0.00000  Uiso   1.00
C557   C     0.13727   0.54730   0.78024   0.00000  Uiso   1.00
C558   C     0.21297   0.95199   0.74550   0.00000  Uiso   1.00
C559   C     0.13448   0.59315   0.77843   0.00000  Uiso   1.00
C560   C     0.21339   0.90603   0.74430   0.00000  Uiso   1.00
C561   C     0.16592   0.61670   0.74950   0.00000  Uiso   1.00
C562   C     0.16791   0.88268   0.75050   0.00000  Uiso   1.00
C563   C     0.19768   0.59326   0.72119   0.00000  Uiso   1.00
C564   C     0.12304   0.90572   0.75731   0.00000  Uiso   1.00
C565   C     0.19728   0.54734   0.72132   0.00000  Uiso   1.00
C566   C     0.12297   0.95160   0.75676   0.00000  Uiso   1.00
C567   C     0.16764   0.52395   0.75109   0.00000  Uiso   1.00
C568   C     0.16791   0.97520   0.75124   0.00000  Uiso   1.00
Cu569  Cu    0.16667   0.74999   0.79822   0.00000  Uiso   1.00
Cu570  Cu    0.16667   0.75000   0.70179   0.00000  Uiso   1.00
H571   H     0.32604   0.74943   0.69362   0.00000  Uiso   1.00
H572   H     0.00729   0.75002   0.80633   0.00000  Uiso   1.00
H573   H     0.11465   0.52998   0.80410   0.00000  Uiso   1.00
H574   H     0.24845   0.96947   0.74240   0.00000  Uiso   1.00
H575   H     0.22051   0.53004   0.69803   0.00000  Uiso   1.00
H576   H     0.08741   0.96865   0.76011   0.00000  Uiso   1.00
H577   H     0.23903   0.78547   0.54548   0.00000  Uiso   1.00
H578   H     0.12323   0.68894   0.95818   0.00000  Uiso   1.00
H579   H     0.23652   0.78609   0.63343   0.00000  Uiso   1.00
H580   H     0.12266   0.69113   0.86982   0.00000  Uiso   1.00
H581   H     0.09689   0.71385   0.61516   0.00000  Uiso   1.00
H582   H     0.21053   0.80893   0.88153   0.00000  Uiso   1.00
H583   H     0.09440   0.71436   0.52654   0.00000  Uiso   1.00
H584   H     0.21005   0.81103   0.96980   0.00000  Uiso   1.00
N585   N     0.16667   0.75001   0.62935   0.00000  Uiso   1.00
N586   N     0.16667   0.74999   0.87066   0.00000  Uiso   1.00
O587   O     0.16667   0.68572   0.79072   0.00000  Uiso   1.00
O588   O     0.16666   0.81427   0.70929   0.00000  Uiso   1.00
O589   O     0.16667   0.68573   0.70928   0.00000  Uiso   1.00
O590   O     0.16666   0.81427   0.79072   0.00000  Uiso   1.00
O591   O     0.09161   0.75000   0.78132   0.00000  Uiso   1.00
O592   O     0.24172   0.75000   0.71868   0.00000  Uiso   1.00
O593   O     0.09161   0.75000   0.69989   0.00000  Uiso   1.00
O594   O     0.24172   0.75000   0.80012   0.00000  Uiso   1.00
O595   O     0.10010   0.61331   0.80490   0.00000  Uiso   1.00
H596   H     0.08875   0.64155   0.78908   0.00000  Uiso   1.00
O597   O     0.25909   0.88579   0.73763   0.00000  Uiso   1.00
H598   H     0.25581   0.85335   0.73980   0.00000  Uiso   1.00
I599   I     0.25054   0.62384   0.67967   0.00000  Uiso   1.00
I600   I     0.05370   0.87310   0.76773   0.00000  Uiso   1.00
C601   C     0.50006   0.66498   0.74990   0.00000  Uiso   1.00
C602   C     0.50012   0.83479   0.75009   0.00000  Uiso   1.00
C603   C     0.53999   0.77012   0.55920   0.00000  Uiso   1.00
C604   C     0.47537   0.71628   0.94274   0.00000  Uiso   1.00
C605   C     0.53902   0.77007   0.60980   0.00000  Uiso   1.00
C606   C     0.47549   0.71710   0.89204   0.00000  Uiso   1.00
C607   C     0.46104   0.72986   0.59958   0.00000  Uiso   1.00
C608   C     0.52445   0.78290   0.89857   0.00000  Uiso   1.00
C609   C     0.46010   0.72974   0.54874   0.00000  Uiso   1.00
C610   C     0.52460   0.78369   0.94932   0.00000  Uiso   1.00
C611   C     0.50004   0.74994   0.52735   0.00000  Uiso   1.00
C612   C     0.50001   0.74996   0.97266   0.00000  Uiso   1.00
C613   C     0.40123   0.74976   0.73756   0.00000  Uiso   1.00
C614   C     0.59876   0.74994   0.76243   0.00000  Uiso   1.00
C615   C     0.34598   0.74960   0.73068   0.00000  Uiso   1.00
C616   C     0.65401   0.74983   0.76928   0.00000  Uiso   1.00
C617   C     0.47061   0.54730   0.78024   0.00000  Uiso   1.00
C618   C     0.54630   0.95199   0.74550   0.00000  Uiso   1.00
C619   C     0.46781   0.59315   0.77843   0.00000  Uiso   1.00
C620   C     0.54673   0.90603   0.74430   0.00000  Uiso   1.00
C621   C     0.49926   0.61670   0.74950   0.00000  Uiso   1.00
C622   C     0.50124   0.88268   0.75050   0.00000  Uiso   1.00
C623   C     0.53102   0.59326   0.72119   0.00000  Uiso   1.00
C624   C     0.45637   0.90572   0.75731   0.00000  Uiso   1.00
C625   C     0.53062   0.54734   0.72132   0.00000  Uiso   1.00
C626   C     0.45631   0.95160   0.75676   0.00000  Uiso   1.00
C627   C     0.50098   0.52395   0.75109   0.00000  Uiso   1.00
C628   C     0.50124   0.97520   0.75124   0.00000  Uiso   1.00
Cu629  Cu    0.50000   0.74999   0.79822   0.00000  Uiso   1.00
Cu630  Cu    0.50000   0.75000   0.70179   0.00000  Uiso   1.00
H631   H     0.65937   0.74943   0.69362   0.00000  Uiso   1.00
H632   H     0.34062   0.75002   0.80633   0.00000  Uiso   1.00
H633   H     0.44799   0.52998   0.80410   0.00000  Uiso   1.00
H634   H     0.58178   0.96947   0.74240   0.00000  Uiso   1.00
H635   H     0.55384   0.53004   0.69803   0.00000  Uiso   1.00
H636   H     0.42074   0.96865   0.76011   0.00000  Uiso   1.00
H637   H     0.57237   0.78547   0.54548   0.00000  Uiso   1.00
H638   H     0.45657   0.68894   0.95818   0.00000  Uiso   1.00
H639   H     0.56985   0.78609   0.63343   0.00000  Uiso   1.00
H640   H     0.45599   0.69113   0.86982   0.00000  Uiso   1.00
H641   H     0.43022   0.71385   0.61516   0.00000  Uiso   1.00
H642   H     0.54386   0.80893   0.88153   0.00000  Uiso   1.00
H643   H     0.42773   0.71436   0.52654   0.00000  Uiso   1.00
H644   H     0.54339   0.81103   0.96980   0.00000  Uiso   1.00
N645   N     0.50000   0.75001   0.62935   0.00000  Uiso   1.00
N646   N     0.50000   0.74999   0.87066   0.00000  Uiso   1.00
O647   O     0.50000   0.68572   0.79072   0.00000  Uiso   1.00
O648   O     0.50000   0.81427   0.70929   0.00000  Uiso   1.00
O649   O     0.50000   0.68573   0.70928   0.00000  Uiso   1.00
O650   O     0.50000   0.81427   0.79072   0.00000  Uiso   1.00
O651   O     0.42495   0.75000   0.78132   0.00000  Uiso   1.00
O652   O     0.57505   0.75000   0.71868   0.00000  Uiso   1.00
O653   O     0.42495   0.75000   0.69989   0.00000  Uiso   1.00
O654   O     0.57505   0.75000   0.80012   0.00000  Uiso   1.00
O655   O     0.43343   0.61331   0.80490   0.00000  Uiso   1.00
H656   H     0.42208   0.64155   0.78908   0.00000  Uiso   1.00
O657   O     0.59242   0.88579   0.73763   0.00000  Uiso   1.00
H658   H     0.58915   0.85335   0.73980   0.00000  Uiso   1.00
I659   I     0.58388   0.62384   0.67967   0.00000  Uiso   1.00
I660   I     0.38704   0.87310   0.76773   0.00000  Uiso   1.00
C661   C     0.83340   0.66498   0.74990   0.00000  Uiso   1.00
C662   C     0.83346   0.83479   0.75009   0.00000  Uiso   1.00
C663   C     0.87332   0.77012   0.55920   0.00000  Uiso   1.00
C664   C     0.80870   0.71628   0.94274   0.00000  Uiso   1.00
C665   C     0.87235   0.77007   0.60980   0.00000  Uiso   1.00
C666   C     0.80882   0.71710   0.89204   0.00000  Uiso   1.00
C667   C     0.79437   0.72986   0.59958   0.00000  Uiso   1.00
C668   C     0.85778   0.78290   0.89857   0.00000  Uiso   1.00
C669   C     0.79343   0.72974   0.54874   0.00000  Uiso   1.00
C670   C     0.85794   0.78369   0.94932   0.00000  Uiso   1.00
C671   C     0.83337   0.74994   0.52735   0.00000  Uiso   1.00
C672   C     0.83334   0.74996   0.97266   0.00000  Uiso   1.00
C673   C     0.73457   0.74976   0.73756   0.00000  Uiso   1.00
C674   C     0.93210   0.74994   0.76243   0.00000  Uiso   1.00
C675   C     0.67931   0.74960   0.73068   0.00000  Uiso   1.00
C676   C     0.98734   0.74983   0.76928   0.00000  Uiso   1.00
C677   C     0.80394   0.54730   0.78024   0.00000  Uiso   1.00
C678   C     0.87963   0.95199   0.74550   0.00000  Uiso   1.00
C679   C     0.80115   0.59315   0.77843   0.00000  Uiso   1.00
C680   C     0.88006   0.90603   0.74430   0.00000  Uiso   1.00
C681   C     0.83259   0.61670   0.74950   0.00000  Uiso   1.00
C682   C     0.83457   0.88268   0.75050   0.00000  Uiso   1.00
C683   C     0.86435   0.59326   0.72119   0.00000  Uiso   1.00
C684   C     0.78971   0.90572   0.75731   0.00000  Uiso   1.00
C685   C     0.86395   0.54734   0.72132   0.00000  Uiso   1.00
C686   C     0.78964   0.95160   0.75676   0.00000  Uiso   1.00
C687   C     0.83431   0.52395   0.75109   0.00000  Uiso   1.00
C688   C     0.83458   0.97520   0.75124   0.00000  Uiso   1.00
Cu689  Cu    0.83333   0.74999   0.79822   0.00000  Uiso   1.00
Cu690  Cu    0.83333   0.75000   0.70179   0.00000  Uiso   1.00
H691   H     0.99270   0.74943   0.69362   0.00000  Uiso   1.00
H692   H     0.67395   0.75002   0.80633   0.00000  Uiso   1.00
H693   H     0.78132   0.52998   0.80410   0.00000  Uiso   1.00
H694   H     0.91511   0.96947   0.74240   0.00000  Uiso   1.00
H695   H     0.88718   0.53004   0.69803   0.00000  Uiso   1.00
H696   H     0.75407   0.96865   0.76011   0.00000  Uiso   1.00
H697   H     0.90570   0.78547   0.54548   0.00000  Uiso   1.00
H698   H     0.78990   0.68894   0.95818   0.00000  Uiso   1.00
H699   H     0.90318   0.78609   0.63343   0.00000  Uiso   1.00
H700   H     0.78932   0.69113   0.86982   0.00000  Uiso   1.00
H701   H     0.76355   0.71385   0.61516   0.00000  Uiso   1.00
H702   H     0.87720   0.80893   0.88153   0.00000  Uiso   1.00
H703   H     0.76107   0.71436   0.52654   0.00000  Uiso   1.00
H704   H     0.87672   0.81103   0.96980   0.00000  Uiso   1.00
N705   N     0.83333   0.75001   0.62935   0.00000  Uiso   1.00
N706   N     0.83333   0.74999   0.87066   0.00000  Uiso   1.00
O707   O     0.83334   0.68572   0.79072   0.00000  Uiso   1.00
O708   O     0.83333   0.81427   0.70929   0.00000  Uiso   1.00
O709   O     0.83334   0.68573   0.70928   0.00000  Uiso   1.00
O710   O     0.83333   0.81427   0.79072   0.00000  Uiso   1.00
O711   O     0.75828   0.75000   0.78132   0.00000  Uiso   1.00
O712   O     0.90839   0.75000   0.71868   0.00000  Uiso   1.00
O713   O     0.75828   0.75000   0.69989   0.00000  Uiso   1.00
O714   O     0.90839   0.75000   0.80012   0.00000  Uiso   1.00
O715   O     0.76676   0.61331   0.80490   0.00000  Uiso   1.00
H716   H     0.75541   0.64155   0.78908   0.00000  Uiso   1.00
O717   O     0.92575   0.88579   0.73763   0.00000  Uiso   1.00
H718   H     0.92248   0.85335   0.73980   0.00000  Uiso   1.00
I719   I     0.91721   0.62384   0.67967   0.00000  Uiso   1.00
I720   I     0.72037   0.87310   0.76773   0.00000  Uiso   1.00
loop_
_geom_bond_atom_site_label_1
_geom_bond_atom_site_label_2
_geom_bond_distance
_geom_bond_site_symmetry_2
_ccdc_geom_bond_type
C1     C21     1.462   .     S
C1     O47     1.294   .     A
C1     O49     1.291   .     A
C2     C22     1.450   .     S
C2     O50     1.289   .     A
C2     O48     1.289   .     A
C3     C11     1.411   .     A
C3     H37     1.081   .     S
C3     C5      1.407   .     A
C4     C6      1.407   .     A
C4     C12     1.411   .     A
C4     H38     1.081   .     S
C5     H39     1.081   .     S
C5     N45     1.364   .     A
C6     H40     1.081   .     S
C6     N46     1.364   .     A
C7     N45     1.364   .     A
C7     C9      1.407   .     A
C7     H41     1.081   .     S
C8     H42     1.081   .     S
C8     C10     1.407   .     A
C8     N46     1.364   .     A
C9     C11     1.411   .     A
C9     H43     1.081   .     S
C10    C12     1.411   .     A
C10    H44     1.081   .     S
C11    C372    1.517   1_554 S
C12    C371    1.517   .     S
C13    C15     1.435   .     S
C13    O51     1.286   .     A
C13    O53     1.287   .     A
C14    O52     1.285   .     A
C14    O54     1.288   .     A
C14    C16     1.435   .     S
C15    C136    1.335   1_455 S
C15    H151    1.087   1_455 S
C16    C75     1.335   .     S
C16    H92     1.087   .     S
C17    H33     1.083   .     S
C17    C27     1.402   .     A
C17    C19     1.391   .     A
C18    H34     1.083   .     S
C18    C28     1.404   .     A
C18    C20     1.392   .     A
C19    O55     1.381   .     S
C19    C21     1.419   .     A
C20    O57     1.382   .     S
C20    C22     1.416   .     A
C21    C23     1.412   .     A
C22    C24     1.404   .     A
C23    C25     1.390   .     A
C23    I59     2.131   .     S
C24    I60     2.122   .     S
C24    C26     1.389   .     A
C25    H35     1.082   .     S
C25    C27     1.401   .     A
C26    C28     1.403   .     A
C26    H36     1.082   .     S
C27    C208    1.476   1_545 S
C28    C207    1.476   .     S
Cu29   Cu30    2.675   .     S
Cu29   N46     2.009   .     S
Cu29   O47     1.956   .     S
Cu29   O50     1.958   .     S
Cu29   O54     1.961   .     S
Cu29   O51     1.959   .     S
Cu30   N45     2.009   .     S
Cu30   O49     1.958   .     S
Cu30   O53     1.961   .     S
Cu30   O48     1.956   .     S
Cu30   O52     1.959   .     S
H31    C75     1.087   .     S
H32    C136    1.087   1_455 S
O55    H56     0.990   .     S
O57    H58     0.988   .     S
C61    C81     1.462   .     S
C61    O107    1.294   .     A
C61    O109    1.291   .     A
C62    C82     1.450   .     S
C62    O110    1.289   .     A
C62    O108    1.289   .     A
C63    C71     1.411   .     A
C63    H97     1.081   .     S
C63    C65     1.407   .     A
C64    C66     1.407   .     A
C64    C72     1.411   .     A
C64    H98     1.081   .     S
C65    H99     1.081   .     S
C65    N105    1.364   .     A
C66    H100    1.081   .     S
C66    N106    1.364   .     A
C67    N105    1.364   .     A
C67    C69     1.407   .     A
C67    H101    1.081   .     S
C68    H102    1.081   .     S
C68    C70     1.407   .     A
C68    N106    1.364   .     A
C69    C71     1.411   .     A
C69    H103    1.081   .     S
C70    C72     1.411   .     A
C70    H104    1.081   .     S
C71    C432    1.517   1_554 S
C72    C431    1.517   .     S
C73    C75     1.435   .     S
C73    O111    1.286   .     A
C73    O113    1.287   .     A
C74    O112    1.285   .     A
C74    O114    1.288   .     A
C74    C76     1.435   .     S
C76    C135    1.335   .     S
C76    H152    1.087   .     S
C77    H93     1.083   .     S
C77    C87     1.402   .     A
C77    C79     1.391   .     A
C78    H94     1.083   .     S
C78    C88     1.404   .     A
C78    C80     1.392   .     A
C79    O115    1.381   .     S
C79    C81     1.419   .     A
C80    O117    1.382   .     S
C80    C82     1.416   .     A
C81    C83     1.412   .     A
C82    C84     1.404   .     A
C83    C85     1.390   .     A
C83    I119    2.131   .     S
C84    I120    2.122   .     S
C84    C86     1.389   .     A
C85    H95     1.082   .     S
C85    C87     1.401   .     A
C86    C88     1.403   .     A
C86    H96     1.082   .     S
C87    C268    1.476   1_545 S
C88    C267    1.476   .     S
Cu89   Cu90    2.675   .     S
Cu89   N106    2.009   .     S
Cu89   O107    1.956   .     S
Cu89   O110    1.958   .     S
Cu89   O114    1.961   .     S
Cu89   O111    1.959   .     S
Cu90   N105    2.009   .     S
Cu90   O109    1.958   .     S
Cu90   O113    1.961   .     S
Cu90   O108    1.956   .     S
Cu90   O112    1.959   .     S
H91    C135    1.087   .     S
O115   H116    0.990   .     S
O117   H118    0.988   .     S
C121   C141    1.462   .     S
C121   O167    1.294   .     A
C121   O169    1.291   .     A
C122   C142    1.450   .     S
C122   O170    1.289   .     A
C122   O168    1.289   .     A
C123   C131    1.411   .     A
C123   H157    1.081   .     S
C123   C125    1.407   .     A
C124   C126    1.407   .     A
C124   C132    1.411   .     A
C124   H158    1.081   .     S
C125   H159    1.081   .     S
C125   N165    1.364   .     A
C126   H160    1.081   .     S
C126   N166    1.364   .     A
C127   N165    1.364   .     A
C127   C129    1.407   .     A
C127   H161    1.081   .     S
C128   H162    1.081   .     S
C128   C130    1.407   .     A
C128   N166    1.364   .     A
C129   C131    1.411   .     A
C129   H163    1.081   .     S
C130   C132    1.411   .     A
C130   H164    1.081   .     S
C131   C492    1.517   1_554 S
C132   C491    1.517   .     S
C133   C135    1.435   .     S
C133   O171    1.286   .     A
C133   O173    1.287   .     A
C134   O172    1.285   .     A
C134   O174    1.288   .     A
C134   C136    1.435   .     S
C136   C15     1.335   1_655 S
C136   H32     1.087   1_655 S
C137   H153    1.083   .     S
C137   C147    1.402   .     A
C137   C139    1.391   .     A
C138   H154    1.083   .     S
C138   C148    1.404   .     A
C138   C140    1.392   .     A
C139   O175    1.381   .     S
C139   C141    1.419   .     A
C140   O177    1.382   .     S
C140   C142    1.416   .     A
C141   C143    1.412   .     A
C142   C144    1.404   .     A
C143   C145    1.390   .     A
C143   I179    2.131   .     S
C144   I180    2.122   .     S
C144   C146    1.389   .     A
C145   H155    1.082   .     S
C145   C147    1.401   .     A
C146   C148    1.403   .     A
C146   H156    1.082   .     S
C147   C328    1.476   1_545 S
C148   C327    1.476   .     S
Cu149  Cu150   2.675   .     S
Cu149  N166    2.009   .     S
Cu149  O167    1.956   .     S
Cu149  O170    1.958   .     S
Cu149  O174    1.961   .     S
Cu149  O171    1.959   .     S
Cu150  N165    2.009   .     S
Cu150  O169    1.958   .     S
Cu150  O173    1.961   .     S
Cu150  O168    1.956   .     S
Cu150  O172    1.959   .     S
H151   C15     1.087   1_655 S
O175   H176    0.990   .     S
O177   H178    0.988   .     S
C181   C201    1.462   .     S
C181   O227    1.294   .     A
C181   O229    1.291   .     A
C182   C202    1.450   .     S
C182   O230    1.289   .     A
C182   O228    1.289   .     A
C183   C191    1.411   .     A
C183   H217    1.081   .     S
C183   C185    1.407   .     A
C184   C186    1.407   .     A
C184   C192    1.411   .     A
C184   H218    1.081   .     S
C185   H219    1.081   .     S
C185   N225    1.364   .     A
C186   H220    1.081   .     S
C186   N226    1.364   .     A
C187   N225    1.364   .     A
C187   C189    1.407   .     A
C187   H221    1.081   .     S
C188   H222    1.081   .     S
C188   C190    1.407   .     A
C188   N226    1.364   .     A
C189   C191    1.411   .     A
C189   H223    1.081   .     S
C190   C192    1.411   .     A
C190   H224    1.081   .     S
C191   C552    1.517   1_554 S
C192   C551    1.517   .     S
C193   C195    1.435   .     S
C193   O231    1.286   .     A
C193   O233    1.287   .     A
C194   O232    1.285   .     A
C194   O234    1.288   .     A
C194   C196    1.435   .     S
C195   C316    1.335   1_455 S
C195   H331    1.087   1_455 S
C196   C255    1.335   .     S
C196   H272    1.087   .     S
C197   H213    1.083   .     S
C197   C207    1.402   .     A
C197   C199    1.391   .     A
C198   H214    1.083   .     S
C198   C208    1.404   .     A
C198   C200    1.392   .     A
C199   O235    1.381   .     S
C199   C201    1.419   .     A
C200   O237    1.382   .     S
C200   C202    1.416   .     A
C201   C203    1.412   .     A
C202   C204    1.404   .     A
C203   C205    1.390   .     A
C203   I239    2.131   .     S
C204   I240    2.122   .     S
C204   C206    1.389   .     A
C205   H215    1.082   .     S
C205   C207    1.401   .     A
C206   C208    1.403   .     A
C206   H216    1.082   .     S
C208   C27     1.476   1_565 S
Cu209  Cu210   2.675   .     S
Cu209  N226    2.009   .     S
Cu209  O227    1.956   .     S
Cu209  O230    1.958   .     S
Cu209  O234    1.961   .     S
Cu209  O231    1.959   .     S
Cu210  N225    2.009   .     S
Cu210  O229    1.958   .     S
Cu210  O233    1.961   .     S
Cu210  O228    1.956   .     S
Cu210  O232    1.959   .     S
H211   C255    1.087   .     S
H212   C316    1.087   1_455 S
O235   H236    0.990   .     S
O237   H238    0.988   .     S
C241   C261    1.462   .     S
C241   O287    1.294   .     A
C241   O289    1.291   .     A
C242   C262    1.450   .     S
C242   O290    1.289   .     A
C242   O288    1.289   .     A
C243   C251    1.411   .     A
C243   H277    1.081   .     S
C243   C245    1.407   .     A
C244   C246    1.407   .     A
C244   C252    1.411   .     A
C244   H278    1.081   .     S
C245   H279    1.081   .     S
C245   N285    1.364   .     A
C246   H280    1.081   .     S
C246   N286    1.364   .     A
C247   N285    1.364   .     A
C247   C249    1.407   .     A
C247   H281    1.081   .     S
C248   H282    1.081   .     S
C248   C250    1.407   .     A
C248   N286    1.364   .     A
C249   C251    1.411   .     A
C249   H283    1.081   .     S
C250   C252    1.411   .     A
C250   H284    1.081   .     S
C251   C612    1.517   1_554 S
C252   C611    1.517   .     S
C253   C255    1.435   .     S
C253   O291    1.286   .     A
C253   O293    1.287   .     A
C254   O292    1.285   .     A
C254   O294    1.288   .     A
C254   C256    1.435   .     S
C256   C315    1.335   .     S
C256   H332    1.087   .     S
C257   H273    1.083   .     S
C257   C267    1.402   .     A
C257   C259    1.391   .     A
C258   H274    1.083   .     S
C258   C268    1.404   .     A
C258   C260    1.392   .     A
C259   O295    1.381   .     S
C259   C261    1.419   .     A
C260   O297    1.382   .     S
C260   C262    1.416   .     A
C261   C263    1.412   .     A
C262   C264    1.404   .     A
C263   C265    1.390   .     A
C263   I299    2.131   .     S
C264   I300    2.122   .     S
C264   C266    1.389   .     A
C265   H275    1.082   .     S
C265   C267    1.401   .     A
C266   C268    1.403   .     A
C266   H276    1.082   .     S
C268   C87     1.476   1_565 S
Cu269  Cu270   2.675   .     S
Cu269  N286    2.009   .     S
Cu269  O287    1.956   .     S
Cu269  O290    1.958   .     S
Cu269  O294    1.961   .     S
Cu269  O291    1.959   .     S
Cu270  N285    2.009   .     S
Cu270  O289    1.958   .     S
Cu270  O293    1.961   .     S
Cu270  O288    1.956   .     S
Cu270  O292    1.959   .     S
H271   C315    1.087   .     S
O295   H296    0.990   .     S
O297   H298    0.988   .     S
C301   C321    1.462   .     S
C301   O347    1.294   .     A
C301   O349    1.291   .     A
C302   C322    1.450   .     S
C302   O350    1.289   .     A
C302   O348    1.289   .     A
C303   C311    1.411   .     A
C303   H337    1.081   .     S
C303   C305    1.407   .     A
C304   C306    1.407   .     A
C304   C312    1.411   .     A
C304   H338    1.081   .     S
C305   H339    1.081   .     S
C305   N345    1.364   .     A
C306   H340    1.081   .     S
C306   N346    1.364   .     A
C307   N345    1.364   .     A
C307   C309    1.407   .     A
C307   H341    1.081   .     S
C308   H342    1.081   .     S
C308   C310    1.407   .     A
C308   N346    1.364   .     A
C309   C311    1.411   .     A
C309   H343    1.081   .     S
C310   C312    1.411   .     A
C310   H344    1.081   .     S
C311   C672    1.517   1_554 S
C312   C671    1.517   .     S
C313   C315    1.435   .     S
C313   O351    1.286   .     A
C313   O353    1.287   .     A
C314   O352    1.285   .     A
C314   O354    1.288   .     A
C314   C316    1.435   .     S
C316   C195    1.335   1_655 S
C316   H212    1.087   1_655 S
C317   H333    1.083   .     S
C317   C327    1.402   .     A
C317   C319    1.391   .     A
C318   H334    1.083   .     S
C318   C328    1.404   .     A
C318   C320    1.392   .     A
C319   O355    1.381   .     S
C319   C321    1.419   .     A
C320   O357    1.382   .     S
C320   C322    1.416   .     A
C321   C323    1.412   .     A
C322   C324    1.404   .     A
C323   C325    1.390   .     A
C323   I359    2.131   .     S
C324   I360    2.122   .     S
C324   C326    1.389   .     A
C325   H335    1.082   .     S
C325   C327    1.401   .     A
C326   C328    1.403   .     A
C326   H336    1.082   .     S
C328   C147    1.476   1_565 S
Cu329  Cu330   2.675   .     S
Cu329  N346    2.009   .     S
Cu329  O347    1.956   .     S
Cu329  O350    1.958   .     S
Cu329  O354    1.961   .     S
Cu329  O351    1.959   .     S
Cu330  N345    2.009   .     S
Cu330  O349    1.958   .     S
Cu330  O353    1.961   .     S
Cu330  O348    1.956   .     S
Cu330  O352    1.959   .     S
H331   C195    1.087   1_655 S
O355   H356    0.990   .     S
O357   H358    0.988   .     S
C361   C381    1.462   .     S
C361   O407    1.294   .     A
C361   O409    1.291   .     A
C362   C382    1.450   .     S
C362   O410    1.289   .     A
C362   O408    1.289   .     A
C363   C371    1.411   .     A
C363   H397    1.081   .     S
C363   C365    1.407   .     A
C364   C366    1.407   .     A
C364   C372    1.411   .     A
C364   H398    1.081   .     S
C365   H399    1.081   .     S
C365   N405    1.364   .     A
C366   H400    1.081   .     S
C366   N406    1.364   .     A
C367   N405    1.364   .     A
C367   C369    1.407   .     A
C367   H401    1.081   .     S
C368   H402    1.081   .     S
C368   C370    1.407   .     A
C368   N406    1.364   .     A
C369   C371    1.411   .     A
C369   H403    1.081   .     S
C370   C372    1.411   .     A
C370   H404    1.081   .     S
C372   C11     1.517   1_556 S
C373   C375    1.435   .     S
C373   O411    1.286   .     A
C373   O413    1.287   .     A
C374   O412    1.285   .     A
C374   O414    1.288   .     A
C374   C376    1.435   .     S
C375   C496    1.335   1_455 S
C375   H511    1.087   1_455 S
C376   C435    1.335   .     S
C376   H452    1.087   .     S
C377   H393    1.083   .     S
C377   C387    1.402   .     A
C377   C379    1.391   .     A
C378   H394    1.083   .     S
C378   C388    1.404   .     A
C378   C380    1.392   .     A
C379   O415    1.381   .     S
C379   C381    1.419   .     A
C380   O417    1.382   .     S
C380   C382    1.416   .     A
C381   C383    1.412   .     A
C382   C384    1.404   .     A
C383   C385    1.390   .     A
C383   I419    2.131   .     S
C384   I420    2.122   .     S
C384   C386    1.389   .     A
C385   H395    1.082   .     S
C385   C387    1.401   .     A
C386   C388    1.403   .     A
C386   H396    1.082   .     S
C387   C568    1.476   1_545 S
C388   C567    1.476   .     S
Cu389  Cu390   2.675   .     S
Cu389  N406    2.009   .     S
Cu389  O407    1.956   .     S
Cu389  O410    1.958   .     S
Cu389  O414    1.961   .     S
Cu389  O411    1.959   .     S
Cu390  N405    2.009   .     S
Cu390  O409    1.958   .     S
Cu390  O413    1.961   .     S
Cu390  O408    1.956   .     S
Cu390  O412    1.959   .     S
H391   C435    1.087   .     S
H392   C496    1.087   1_455 S
O415   H416    0.990   .     S
O417   H418    0.988   .     S
C421   C441    1.462   .     S
C421   O467    1.294   .     A
C421   O469    1.291   .     A
C422   C442    1.450   .     S
C422   O470    1.289   .     A
C422   O468    1.289   .     A
C423   C431    1.411   .     A
C423   H457    1.081   .     S
C423   C425    1.407   .     A
C424   C426    1.407   .     A
C424   C432    1.411   .     A
C424   H458    1.081   .     S
C425   H459    1.081   .     S
C425   N465    1.364   .     A
C426   H460    1.081   .     S
C426   N466    1.364   .     A
C427   N465    1.364   .     A
C427   C429    1.407   .     A
C427   H461    1.081   .     S
C428   H462    1.081   .     S
C428   C430    1.407   .     A
C428   N466    1.364   .     A
C429   C431    1.411   .     A
C429   H463    1.081   .     S
C430   C432    1.411   .     A
C430   H464    1.081   .     S
C432   C71     1.517   1_556 S
C433   C435    1.435   .     S
C433   O471    1.286   .     A
C433   O473    1.287   .     A
C434   O472    1.285   .     A
C434   O474    1.288   .     A
C434   C436    1.435   .     S
C436   C495    1.335   .     S
C436   H512    1.087   .     S
C437   H453    1.083   .     S
C437   C447    1.402   .     A
C437   C439    1.391   .     A
C438   H454    1.083   .     S
C438   C448    1.404   .     A
C438   C440    1.392   .     A
C439   O475    1.381   .     S
C439   C441    1.419   .     A
C440   O477    1.382   .     S
C440   C442    1.416   .     A
C441   C443    1.412   .     A
C442   C444    1.404   .     A
C443   C445    1.390   .     A
C443   I479    2.131   .     S
C444   I480    2.122   .     S
C444   C446    1.389   .     A
C445   H455    1.082   .     S
C445   C447    1.401   .     A
C446   C448    1.403   .     A
C446   H456    1.082   .     S
C447   C628    1.476   1_545 S
C448   C627    1.476   .     S
Cu449  Cu450   2.675   .     S
Cu449  N466    2.009   .     S
Cu449  O467    1.956   .     S
Cu449  O470    1.958   .     S
Cu449  O474    1.961   .     S
Cu449  O471    1.959   .     S
Cu450  N465    2.009   .     S
Cu450  O469    1.958   .     S
Cu450  O473    1.961   .     S
Cu450  O468    1.956   .     S
Cu450  O472    1.959   .     S
H451   C495    1.087   .     S
O475   H476    0.990   .     S
O477   H478    0.988   .     S
C481   C501    1.462   .     S
C481   O527    1.294   .     A
C481   O529    1.291   .     A
C482   C502    1.450   .     S
C482   O530    1.289   .     A
C482   O528    1.289   .     A
C483   C491    1.411   .     A
C483   H517    1.081   .     S
C483   C485    1.407   .     A
C484   C486    1.407   .     A
C484   C492    1.411   .     A
C484   H518    1.081   .     S
C485   H519    1.081   .     S
C485   N525    1.364   .     A
C486   H520    1.081   .     S
C486   N526    1.364   .     A
C487   N525    1.364   .     A
C487   C489    1.407   .     A
C487   H521    1.081   .     S
C488   H522    1.081   .     S
C488   C490    1.407   .     A
C488   N526    1.364   .     A
C489   C491    1.411   .     A
C489   H523    1.081   .     S
C490   C492    1.411   .     A
C490   H524    1.081   .     S
C492   C131    1.517   1_556 S
C493   C495    1.435   .     S
C493   O531    1.286   .     A
C493   O533    1.287   .     A
C494   O532    1.285   .     A
C494   O534    1.288   .     A
C494   C496    1.435   .     S
C496   C375    1.335   1_655 S
C496   H392    1.087   1_655 S
C497   H513    1.083   .     S
C497   C507    1.402   .     A
C497   C499    1.391   .     A
C498   H514    1.083   .     S
C498   C508    1.404   .     A
C498   C500    1.392   .     A
C499   O535    1.381   .     S
C499   C501    1.419   .     A
C500   O537    1.382   .     S
C500   C502    1.416   .     A
C501   C503    1.412   .     A
C502   C504    1.404   .     A
C503   C505    1.390   .     A
C503   I539    2.131   .     S
C504   I540    2.122   .     S
C504   C506    1.389   .     A
C505   H515    1.082   .     S
C505   C507    1.401   .     A
C506   C508    1.403   .     A
C506   H516    1.082   .     S
C507   C688    1.476   1_545 S
C508   C687    1.476   .     S
Cu509  Cu510   2.675   .     S
Cu509  N526    2.009   .     S
Cu509  O527    1.956   .     S
Cu509  O530    1.958   .     S
Cu509  O534    1.961   .     S
Cu509  O531    1.959   .     S
Cu510  N525    2.009   .     S
Cu510  O529    1.958   .     S
Cu510  O533    1.961   .     S
Cu510  O528    1.956   .     S
Cu510  O532    1.959   .     S
H511   C375    1.087   1_655 S
O535   H536    0.990   .     S
O537   H538    0.988   .     S
C541   C561    1.462   .     S
C541   O587    1.294   .     A
C541   O589    1.291   .     A
C542   C562    1.450   .     S
C542   O590    1.289   .     A
C542   O588    1.289   .     A
C543   C551    1.411   .     A
C543   H577    1.081   .     S
C543   C545    1.407   .     A
C544   C546    1.407   .     A
C544   C552    1.411   .     A
C544   H578    1.081   .     S
C545   H579    1.081   .     S
C545   N585    1.364   .     A
C546   H580    1.081   .     S
C546   N586    1.364   .     A
C547   N585    1.364   .     A
C547   C549    1.407   .     A
C547   H581    1.081   .     S
C548   H582    1.081   .     S
C548   C550    1.407   .     A
C548   N586    1.364   .     A
C549   C551    1.411   .     A
C549   H583    1.081   .     S
C550   C552    1.411   .     A
C550   H584    1.081   .     S
C552   C191    1.517   1_556 S
C553   C555    1.435   .     S
C553   O591    1.286   .     A
C553   O593    1.287   .     A
C554   O592    1.285   .     A
C554   O594    1.288   .     A
C554   C556    1.435   .     S
C555   C676    1.335   1_455 S
C555   H691    1.087   1_455 S
C556   C615    1.335   .     S
C556   H632    1.087   .     S
C557   H573    1.083   .     S
C557   C567    1.402   .     A
C557   C559    1.391   .     A
C558   H574    1.083   .     S
C558   C568    1.404   .     A
C558   C560    1.392   .     A
C559   O595    1.381   .     S
C559   C561    1.419   .     A
C560   O597    1.382   .     S
C560   C562    1.416   .     A
C561   C563    1.412   .     A
C562   C564    1.404   .     A
C563   C565    1.390   .     A
C563   I599    2.131   .     S
C564   I600    2.122   .     S
C564   C566    1.389   .     A
C565   H575    1.082   .     S
C565   C567    1.401   .     A
C566   C568    1.403   .     A
C566   H576    1.082   .     S
C568   C387    1.476   1_565 S
Cu569  Cu570   2.675   .     S
Cu569  N586    2.009   .     S
Cu569  O587    1.956   .     S
Cu569  O590    1.958   .     S
Cu569  O594    1.961   .     S
Cu569  O591    1.959   .     S
Cu570  N585    2.009   .     S
Cu570  O589    1.958   .     S
Cu570  O593    1.961   .     S
Cu570  O588    1.956   .     S
Cu570  O592    1.959   .     S
H571   C615    1.087   .     S
H572   C676    1.087   1_455 S
O595   H596    0.990   .     S
O597   H598    0.988   .     S
C601   C621    1.462   .     S
C601   O647    1.294   .     A
C601   O649    1.291   .     A
C602   C622    1.450   .     S
C602   O650    1.289   .     A
C602   O648    1.289   .     A
C603   C611    1.411   .     A
C603   H637    1.081   .     S
C603   C605    1.407   .     A
C604   C606    1.407   .     A
C604   C612    1.411   .     A
C604   H638    1.081   .     S
C605   H639    1.081   .     S
C605   N645    1.364   .     A
C606   H640    1.081   .     S
C606   N646    1.364   .     A
C607   N645    1.364   .     A
C607   C609    1.407   .     A
C607   H641    1.081   .     S
C608   H642    1.081   .     S
C608   C610    1.407   .     A
C608   N646    1.364   .     A
C609   C611    1.411   .     A
C609   H643    1.081   .     S
C610   C612    1.411   .     A
C610   H644    1.081   .     S
C612   C251    1.517   1_556 S
C613   C615    1.435   .     S
C613   O651    1.286   .     A
C613   O653    1.287   .     A
C614   O652    1.285   .     A
C614   O654    1.288   .     A
C614   C616    1.435   .     S
C616   C675    1.335   .     S
C616   H692    1.087   .     S
C617   H633    1.083   .     S
C617   C627    1.402   .     A
C617   C619    1.391   .     A
C618   H634    1.083   .     S
C618   C628    1.404   .     A
C618   C620    1.392   .     A
C619   O655    1.381   .     S
C619   C621    1.419   .     A
C620   O657    1.382   .     S
C620   C622    1.416   .     A
C621   C623    1.412   .     A
C622   C624    1.404   .     A
C623   C625    1.390   .     A
C623   I659    2.131   .     S
C624   I660    2.122   .     S
C624   C626    1.389   .     A
C625   H635    1.082   .     S
C625   C627    1.401   .     A
C626   C628    1.403   .     A
C626   H636    1.082   .     S
C628   C447    1.476   1_565 S
Cu629  Cu630   2.675   .     S
Cu629  N646    2.009   .     S
Cu629  O647    1.956   .     S
Cu629  O650    1.958   .     S
Cu629  O654    1.961   .     S
Cu629  O651    1.959   .     S
Cu630  N645    2.009   .     S
Cu630  O649    1.958   .     S
Cu630  O653    1.961   .     S
Cu630  O648    1.956   .     S
Cu630  O652    1.959   .     S
H631   C675    1.087   .     S
O655   H656    0.990   .     S
O657   H658    0.988   .     S
C661   C681    1.462   .     S
C661   O707    1.294   .     A
C661   O709    1.291   .     A
C662   C682    1.450   .     S
C662   O710    1.289   .     A
C662   O708    1.289   .     A
C663   C671    1.411   .     A
C663   H697    1.081   .     S
C663   C665    1.407   .     A
C664   C666    1.407   .     A
C664   C672    1.411   .     A
C664   H698    1.081   .     S
C665   H699    1.081   .     S
C665   N705    1.364   .     A
C666   H700    1.081   .     S
C666   N706    1.364   .     A
C667   N705    1.364   .     A
C667   C669    1.407   .     A
C667   H701    1.081   .     S
C668   H702    1.081   .     S
C668   C670    1.407   .     A
C668   N706    1.364   .     A
C669   C671    1.411   .     A
C669   H703    1.081   .     S
C670   C672    1.411   .     A
C670   H704    1.081   .     S
C672   C311    1.517   1_556 S
C673   C675    1.435   .     S
C673   O711    1.286   .     A
C673   O713    1.287   .     A
C674   O712    1.285   .     A
C674   O714    1.288   .     A
C674   C676    1.435   .     S
C676   C555    1.335   1_655 S
C676   H572    1.087   1_655 S
C677   H693    1.083   .     S
C677   C687    1.402   .     A
C677   C679    1.391   .     A
C678   H694    1.083   .     S
C678   C688    1.404   .     A
C678   C680    1.392   .     A
C679   O715    1.381   .     S
C679   C681    1.419   .     A
C680   O717    1.382   .     S
C680   C682    1.416   .     A
C681   C683    1.412   .     A
C682   C684    1.404   .     A
C683   C685    1.390   .     A
C683   I719    2.131   .     S
C684   I720    2.122   .     S
C684   C686    1.389   .     A
C685   H695    1.082   .     S
C685   C687    1.401   .     A
C686   C688    1.403   .     A
C686   H696    1.082   .     S
C688   C507    1.476   1_565 S
Cu689  Cu690   2.675   .     S
Cu689  N706    2.009   .     S
Cu689  O707    1.956   .     S
Cu689  O710    1.958   .     S
Cu689  O714    1.961   .     S
Cu689  O711    1.959   .     S
Cu690  N705    2.009   .     S
Cu690  O709    1.958   .     S
Cu690  O713    1.961   .     S
Cu690  O708    1.956   .     S
Cu690  O712    1.959   .     S
H691   C555    1.087   1_655 S
O715   H716    0.990   .     S
O717   H718    0.988   .     S
