data_str_m2_o1_o18_pcu_sym.82
_audit_creation_date              2020-01-03
_audit_creation_method            'Materials Studio'
_symmetry_space_group_name_H-M    'P1'
_symmetry_Int_Tables_number       1
_symmetry_cell_setting            triclinic
loop_
_symmetry_equiv_pos_as_xyz
  x,y,z
_cell_length_a                    28.8840
_cell_length_b                    32.1853
_cell_length_c                    30.9037
_cell_angle_alpha                 88.2202
_cell_angle_beta                  74.7586
_cell_angle_gamma                 88.2507
loop_
_atom_site_label
_atom_site_type_symbol
_atom_site_fract_x
_atom_site_fract_y
_atom_site_fract_z
_atom_site_U_iso_or_equiv
_atom_site_adp_type
_atom_site_occupancy
C1     C     0.00068   0.08760   0.24934   0.00000  Uiso   1.00
C2     C     0.30299   0.02240   0.28463   0.00000  Uiso   1.00
C3     C     0.33193   0.29040   0.25112   0.00000  Uiso   1.00
C4     C     0.00144   0.04293   0.24895   0.00000  Uiso   1.00
C5     C     0.18876   0.13317   0.26572   0.00000  Uiso   1.00
C6     C     0.14454   0.20018   0.23434   0.00000  Uiso   1.00
C7     C     0.13973   0.13273   0.26572   0.00000  Uiso   1.00
C8     C     0.19352   0.20065   0.23446   0.00000  Uiso   1.00
C9     C     0.30615   0.16687   0.33607   0.00000  Uiso   1.00
C10    C     0.02722   0.16664   0.16392   0.00000  Uiso   1.00
C11    C     0.29084   0.16633   0.38547   0.00000  Uiso   1.00
C12    C     0.33265   0.24573   0.25069   0.00000  Uiso   1.00
C13    C     0.04282   0.16912   0.11454   0.00000  Uiso   1.00
C14    C     0.30739   0.15347   0.45742   0.00000  Uiso   1.00
C15    C     0.02784   0.18894   0.04337   0.00000  Uiso   1.00
C16    C     0.32360   0.15893   0.41116   0.00000  Uiso   1.00
C17    C     0.01087   0.18041   0.08906   0.00000  Uiso   1.00
C18    C     0.24192   0.17145   0.40709   0.00000  Uiso   1.00
C19    C     0.09169   0.16336   0.09303   0.00000  Uiso   1.00
C20    C     0.22481   0.16859   0.45415   0.00000  Uiso   1.00
C21    C     0.10991   0.17125   0.04663   0.00000  Uiso   1.00
C22    C     0.25843   0.15811   0.47908   0.00000  Uiso   1.00
C23    C     0.19477   0.15617   0.04753   0.00000  Uiso   1.00
C24    C     0.07685   0.18438   0.02196   0.00000  Uiso   1.00
C25    C     0.17531   0.17456   0.47691   0.00000  Uiso   1.00
C26    C     0.15979   0.16706   0.02423   0.00000  Uiso   1.00
C27    C     0.06473   0.04220   0.17453   0.00000  Uiso   1.00
C28    C     0.26887   0.29110   0.32568   0.00000  Uiso   1.00
C29    C     0.11487   0.09427   0.28387   0.00000  Uiso   1.00
C30    C     0.12523   0.05757   0.25928   0.00000  Uiso   1.00
C31    C     0.10544   0.01998   0.27827   0.00000  Uiso   1.00
C32    C     0.07532   0.01878   0.32182   0.00000  Uiso   1.00
C33    C     0.06583   0.05500   0.34679   0.00000  Uiso   1.00
C34    C     0.14099   0.18849   0.45404   0.00000  Uiso   1.00
C35    C     0.08631   0.09243   0.32809   0.00000  Uiso   1.00
C36    C     0.21826   0.23910   0.21628   0.00000  Uiso   1.00
C37    C     0.20892   0.27555   0.24135   0.00000  Uiso   1.00
C38    C     0.22824   0.31325   0.22221   0.00000  Uiso   1.00
C39    C     0.25684   0.31480   0.17804   0.00000  Uiso   1.00
C40    C     0.26504   0.27887   0.15258   0.00000  Uiso   1.00
C41    C     0.24492   0.24137   0.17145   0.00000  Uiso   1.00
C42    C     0.24301   0.15213   0.02533   0.00000  Uiso   1.00
C43    C     0.09284   0.19318   0.47622   0.00000  Uiso   1.00
C44    C     0.03205   0.02081   0.21363   0.00000  Uiso   1.00
C45    C     0.30142   0.31251   0.28651   0.00000  Uiso   1.00
C46    C     0.03042   0.31093   0.21548   0.00000  Uiso   1.00
Cu47   Cu    0.04689   0.16667   0.25000   0.00000  Uiso   1.00
Cu48   Cu    0.28645   0.16666   0.25000   0.00000  Uiso   1.00
H49    H     0.26846   0.14386   0.04462   0.00000  Uiso   1.00
H50    H     0.15010   0.19710   0.41895   0.00000  Uiso   1.00
H51    H     0.05346   0.29294   0.18876   0.00000  Uiso   1.00
H52    H     0.27996   0.04039   0.31134   0.00000  Uiso   1.00
H53    H     0.20480   0.10647   0.27888   0.00000  Uiso   1.00
H54    H     0.12849   0.22687   0.22118   0.00000  Uiso   1.00
H55    H     0.06385   0.07578   0.17080   0.00000  Uiso   1.00
H56    H     0.26972   0.25752   0.32935   0.00000  Uiso   1.00
H57    H     0.14873   0.05810   0.22558   0.00000  Uiso   1.00
H58    H     0.11322   0.32517   0.25914   0.00000  Uiso   1.00
H59    H     0.05969   0.32307   0.33633   0.00000  Uiso   1.00
H60    H     0.06786   0.20390   0.45728   0.00000  Uiso   1.00
H61    H     0.04335   0.05393   0.38086   0.00000  Uiso   1.00
H62    H     0.08135   0.11972   0.34821   0.00000  Uiso   1.00
H63    H     0.18654   0.27474   0.27551   0.00000  Uiso   1.00
H64    H     0.22124   0.00787   0.24169   0.00000  Uiso   1.00
H65    H     0.27211   0.01059   0.16342   0.00000  Uiso   1.00
H66    H     0.28610   0.28025   0.11799   0.00000  Uiso   1.00
H67    H     0.24831   0.21438   0.15105   0.00000  Uiso   1.00
H68    H     0.11468   0.15288   0.11359   0.00000  Uiso   1.00
H69    H     0.21769   0.17648   0.38625   0.00000  Uiso   1.00
H70    H     0.30634   0.18351   0.10434   0.00000  Uiso   1.00
H71    H     0.02822   0.15640   0.39569   0.00000  Uiso   1.00
H72    H     0.33323   0.14514   0.47618   0.00000  Uiso   1.00
H73    H     0.00256   0.19972   0.02487   0.00000  Uiso   1.00
H74    H     0.18652   0.15103   0.08326   0.00000  Uiso   1.00
N75    N     0.11736   0.16668   0.24999   0.00000  Uiso   1.00
N76    N     0.21597   0.16666   0.25001   0.00000  Uiso   1.00
O77    O     0.03958   0.10655   0.25000   0.00000  Uiso   1.00
O78    O     0.24056   0.31086   0.35462   0.00000  Uiso   1.00
O79    O     0.29375   0.22678   0.25000   0.00000  Uiso   1.00
O80    O     0.29372   0.10654   0.25000   0.00000  Uiso   1.00
O81    O     0.03961   0.22679   0.24999   0.00000  Uiso   1.00
O82    O     0.01852   0.16668   0.31491   0.00000  Uiso   1.00
O83    O     0.31481   0.16666   0.18508   0.00000  Uiso   1.00
O84    O     0.27267   0.16667   0.31492   0.00000  Uiso   1.00
O85    O     0.06067   0.16667   0.18508   0.00000  Uiso   1.00
O86    O     0.09318   0.02244   0.14571   0.00000  Uiso   1.00
C87    C     0.33401   0.08760   0.24934   0.00000  Uiso   1.00
C88    C     0.63632   0.02240   0.28463   0.00000  Uiso   1.00
C89    C     0.66527   0.29040   0.25112   0.00000  Uiso   1.00
C90    C     0.33477   0.04293   0.24895   0.00000  Uiso   1.00
C91    C     0.52210   0.13317   0.26572   0.00000  Uiso   1.00
C92    C     0.47787   0.20018   0.23434   0.00000  Uiso   1.00
C93    C     0.47306   0.13273   0.26572   0.00000  Uiso   1.00
C94    C     0.52685   0.20065   0.23446   0.00000  Uiso   1.00
C95    C     0.63948   0.16687   0.33607   0.00000  Uiso   1.00
C96    C     0.36055   0.16664   0.16392   0.00000  Uiso   1.00
C97    C     0.62418   0.16633   0.38547   0.00000  Uiso   1.00
C98    C     0.66599   0.24573   0.25069   0.00000  Uiso   1.00
C99    C     0.37616   0.16912   0.11454   0.00000  Uiso   1.00
C100   C     0.64072   0.15347   0.45742   0.00000  Uiso   1.00
C101   C     0.36117   0.18894   0.04337   0.00000  Uiso   1.00
C102   C     0.65693   0.15893   0.41116   0.00000  Uiso   1.00
C103   C     0.34421   0.18041   0.08906   0.00000  Uiso   1.00
C104   C     0.57525   0.17145   0.40709   0.00000  Uiso   1.00
C105   C     0.42502   0.16336   0.09303   0.00000  Uiso   1.00
C106   C     0.55815   0.16859   0.45415   0.00000  Uiso   1.00
C107   C     0.44325   0.17125   0.04663   0.00000  Uiso   1.00
C108   C     0.59176   0.15811   0.47908   0.00000  Uiso   1.00
C109   C     0.52810   0.15617   0.04753   0.00000  Uiso   1.00
C110   C     0.41018   0.18438   0.02196   0.00000  Uiso   1.00
C111   C     0.50864   0.17456   0.47691   0.00000  Uiso   1.00
C112   C     0.49313   0.16706   0.02423   0.00000  Uiso   1.00
C113   C     0.39806   0.04220   0.17453   0.00000  Uiso   1.00
C114   C     0.60220   0.29110   0.32568   0.00000  Uiso   1.00
C115   C     0.44820   0.09427   0.28387   0.00000  Uiso   1.00
C116   C     0.45856   0.05757   0.25928   0.00000  Uiso   1.00
C117   C     0.43877   0.01998   0.27827   0.00000  Uiso   1.00
C118   C     0.40865   0.01878   0.32182   0.00000  Uiso   1.00
C119   C     0.39917   0.05500   0.34679   0.00000  Uiso   1.00
C120   C     0.47432   0.18849   0.45404   0.00000  Uiso   1.00
C121   C     0.41965   0.09243   0.32809   0.00000  Uiso   1.00
C122   C     0.55159   0.23910   0.21628   0.00000  Uiso   1.00
C123   C     0.54225   0.27555   0.24135   0.00000  Uiso   1.00
C124   C     0.56157   0.31325   0.22221   0.00000  Uiso   1.00
C125   C     0.59017   0.31480   0.17804   0.00000  Uiso   1.00
C126   C     0.59838   0.27887   0.15258   0.00000  Uiso   1.00
C127   C     0.57825   0.24137   0.17145   0.00000  Uiso   1.00
C128   C     0.57634   0.15213   0.02533   0.00000  Uiso   1.00
C129   C     0.42617   0.19318   0.47622   0.00000  Uiso   1.00
C130   C     0.36538   0.02081   0.21363   0.00000  Uiso   1.00
C131   C     0.63475   0.31251   0.28651   0.00000  Uiso   1.00
C132   C     0.36375   0.31093   0.21548   0.00000  Uiso   1.00
Cu133  Cu    0.38022   0.16667   0.25000   0.00000  Uiso   1.00
Cu134  Cu    0.61978   0.16666   0.25000   0.00000  Uiso   1.00
H135   H     0.60179   0.14386   0.04462   0.00000  Uiso   1.00
H136   H     0.48344   0.19710   0.41895   0.00000  Uiso   1.00
H137   H     0.38679   0.29294   0.18876   0.00000  Uiso   1.00
H138   H     0.61329   0.04039   0.31134   0.00000  Uiso   1.00
H139   H     0.53813   0.10647   0.27888   0.00000  Uiso   1.00
H140   H     0.46183   0.22687   0.22118   0.00000  Uiso   1.00
H141   H     0.39718   0.07578   0.17080   0.00000  Uiso   1.00
H142   H     0.60305   0.25752   0.32935   0.00000  Uiso   1.00
H143   H     0.48207   0.05810   0.22558   0.00000  Uiso   1.00
H144   H     0.44655   0.32517   0.25914   0.00000  Uiso   1.00
H145   H     0.39302   0.32307   0.33633   0.00000  Uiso   1.00
H146   H     0.40119   0.20390   0.45728   0.00000  Uiso   1.00
H147   H     0.37668   0.05393   0.38086   0.00000  Uiso   1.00
H148   H     0.41468   0.11972   0.34821   0.00000  Uiso   1.00
H149   H     0.51987   0.27474   0.27551   0.00000  Uiso   1.00
H150   H     0.55458   0.00787   0.24169   0.00000  Uiso   1.00
H151   H     0.60545   0.01059   0.16342   0.00000  Uiso   1.00
H152   H     0.61943   0.28025   0.11799   0.00000  Uiso   1.00
H153   H     0.58164   0.21438   0.15105   0.00000  Uiso   1.00
H154   H     0.44801   0.15288   0.11359   0.00000  Uiso   1.00
H155   H     0.55102   0.17648   0.38625   0.00000  Uiso   1.00
H156   H     0.63968   0.18351   0.10434   0.00000  Uiso   1.00
H157   H     0.36156   0.15640   0.39569   0.00000  Uiso   1.00
H158   H     0.66656   0.14514   0.47618   0.00000  Uiso   1.00
H159   H     0.33589   0.19972   0.02487   0.00000  Uiso   1.00
H160   H     0.51985   0.15103   0.08326   0.00000  Uiso   1.00
N161   N     0.45069   0.16668   0.24999   0.00000  Uiso   1.00
N162   N     0.54931   0.16666   0.25001   0.00000  Uiso   1.00
O163   O     0.37291   0.10655   0.25000   0.00000  Uiso   1.00
O164   O     0.57389   0.31086   0.35462   0.00000  Uiso   1.00
O165   O     0.62709   0.22678   0.25000   0.00000  Uiso   1.00
O166   O     0.62706   0.10654   0.25000   0.00000  Uiso   1.00
O167   O     0.37294   0.22679   0.24999   0.00000  Uiso   1.00
O168   O     0.35186   0.16668   0.31491   0.00000  Uiso   1.00
O169   O     0.64814   0.16666   0.18508   0.00000  Uiso   1.00
O170   O     0.60600   0.16667   0.31492   0.00000  Uiso   1.00
O171   O     0.39400   0.16667   0.18508   0.00000  Uiso   1.00
O172   O     0.42651   0.02244   0.14571   0.00000  Uiso   1.00
C173   C     0.66735   0.08760   0.24934   0.00000  Uiso   1.00
C174   C     0.96966   0.02240   0.28463   0.00000  Uiso   1.00
C175   C     0.99860   0.29040   0.25112   0.00000  Uiso   1.00
C176   C     0.66810   0.04293   0.24895   0.00000  Uiso   1.00
C177   C     0.85543   0.13317   0.26572   0.00000  Uiso   1.00
C178   C     0.81120   0.20018   0.23434   0.00000  Uiso   1.00
C179   C     0.80639   0.13273   0.26572   0.00000  Uiso   1.00
C180   C     0.86018   0.20065   0.23446   0.00000  Uiso   1.00
C181   C     0.97282   0.16687   0.33607   0.00000  Uiso   1.00
C182   C     0.69389   0.16664   0.16392   0.00000  Uiso   1.00
C183   C     0.95751   0.16633   0.38547   0.00000  Uiso   1.00
C184   C     0.99932   0.24573   0.25069   0.00000  Uiso   1.00
C185   C     0.70949   0.16912   0.11454   0.00000  Uiso   1.00
C186   C     0.97405   0.15347   0.45742   0.00000  Uiso   1.00
C187   C     0.69450   0.18894   0.04337   0.00000  Uiso   1.00
C188   C     0.99027   0.15893   0.41116   0.00000  Uiso   1.00
C189   C     0.67754   0.18041   0.08906   0.00000  Uiso   1.00
C190   C     0.90858   0.17145   0.40709   0.00000  Uiso   1.00
C191   C     0.75835   0.16336   0.09303   0.00000  Uiso   1.00
C192   C     0.89148   0.16859   0.45415   0.00000  Uiso   1.00
C193   C     0.77658   0.17125   0.04663   0.00000  Uiso   1.00
C194   C     0.92510   0.15811   0.47908   0.00000  Uiso   1.00
C195   C     0.86143   0.15617   0.04753   0.00000  Uiso   1.00
C196   C     0.74351   0.18438   0.02196   0.00000  Uiso   1.00
C197   C     0.84197   0.17456   0.47691   0.00000  Uiso   1.00
C198   C     0.82646   0.16706   0.02423   0.00000  Uiso   1.00
C199   C     0.73139   0.04220   0.17453   0.00000  Uiso   1.00
C200   C     0.93553   0.29110   0.32568   0.00000  Uiso   1.00
C201   C     0.78153   0.09427   0.28387   0.00000  Uiso   1.00
C202   C     0.79190   0.05757   0.25928   0.00000  Uiso   1.00
C203   C     0.77211   0.01998   0.27827   0.00000  Uiso   1.00
C204   C     0.74198   0.01878   0.32182   0.00000  Uiso   1.00
C205   C     0.73250   0.05500   0.34679   0.00000  Uiso   1.00
C206   C     0.80765   0.18849   0.45404   0.00000  Uiso   1.00
C207   C     0.75298   0.09243   0.32809   0.00000  Uiso   1.00
C208   C     0.88493   0.23910   0.21628   0.00000  Uiso   1.00
C209   C     0.87558   0.27555   0.24135   0.00000  Uiso   1.00
C210   C     0.89490   0.31325   0.22221   0.00000  Uiso   1.00
C211   C     0.92350   0.31480   0.17804   0.00000  Uiso   1.00
C212   C     0.93171   0.27887   0.15258   0.00000  Uiso   1.00
C213   C     0.91159   0.24137   0.17145   0.00000  Uiso   1.00
C214   C     0.90968   0.15213   0.02533   0.00000  Uiso   1.00
C215   C     0.75951   0.19318   0.47622   0.00000  Uiso   1.00
C216   C     0.69871   0.02081   0.21363   0.00000  Uiso   1.00
C217   C     0.96808   0.31251   0.28651   0.00000  Uiso   1.00
C218   C     0.69709   0.31093   0.21548   0.00000  Uiso   1.00
Cu219  Cu    0.71355   0.16667   0.25000   0.00000  Uiso   1.00
Cu220  Cu    0.95311   0.16666   0.25000   0.00000  Uiso   1.00
H221   H     0.93512   0.14386   0.04462   0.00000  Uiso   1.00
H222   H     0.81677   0.19710   0.41895   0.00000  Uiso   1.00
H223   H     0.72012   0.29294   0.18876   0.00000  Uiso   1.00
H224   H     0.94663   0.04039   0.31134   0.00000  Uiso   1.00
H225   H     0.87147   0.10647   0.27888   0.00000  Uiso   1.00
H226   H     0.79516   0.22687   0.22118   0.00000  Uiso   1.00
H227   H     0.73052   0.07578   0.17080   0.00000  Uiso   1.00
H228   H     0.93639   0.25752   0.32935   0.00000  Uiso   1.00
H229   H     0.81540   0.05810   0.22558   0.00000  Uiso   1.00
H230   H     0.77988   0.32517   0.25914   0.00000  Uiso   1.00
H231   H     0.72636   0.32307   0.33633   0.00000  Uiso   1.00
H232   H     0.73453   0.20390   0.45728   0.00000  Uiso   1.00
H233   H     0.71002   0.05393   0.38086   0.00000  Uiso   1.00
H234   H     0.74801   0.11972   0.34821   0.00000  Uiso   1.00
H235   H     0.85320   0.27474   0.27551   0.00000  Uiso   1.00
H236   H     0.88791   0.00787   0.24169   0.00000  Uiso   1.00
H237   H     0.93878   0.01059   0.16342   0.00000  Uiso   1.00
H238   H     0.95276   0.28025   0.11799   0.00000  Uiso   1.00
H239   H     0.91498   0.21438   0.15105   0.00000  Uiso   1.00
H240   H     0.78135   0.15288   0.11359   0.00000  Uiso   1.00
H241   H     0.88436   0.17648   0.38625   0.00000  Uiso   1.00
H242   H     0.97301   0.18351   0.10434   0.00000  Uiso   1.00
H243   H     0.69489   0.15640   0.39569   0.00000  Uiso   1.00
H244   H     0.99989   0.14514   0.47618   0.00000  Uiso   1.00
H245   H     0.66922   0.19972   0.02487   0.00000  Uiso   1.00
H246   H     0.85319   0.15103   0.08326   0.00000  Uiso   1.00
N247   N     0.78403   0.16668   0.24999   0.00000  Uiso   1.00
N248   N     0.88264   0.16666   0.25001   0.00000  Uiso   1.00
O249   O     0.70625   0.10655   0.25000   0.00000  Uiso   1.00
O250   O     0.90723   0.31086   0.35462   0.00000  Uiso   1.00
O251   O     0.96042   0.22678   0.25000   0.00000  Uiso   1.00
O252   O     0.96039   0.10654   0.25000   0.00000  Uiso   1.00
O253   O     0.70628   0.22679   0.24999   0.00000  Uiso   1.00
O254   O     0.68519   0.16668   0.31491   0.00000  Uiso   1.00
O255   O     0.98148   0.16666   0.18508   0.00000  Uiso   1.00
O256   O     0.93933   0.16667   0.31492   0.00000  Uiso   1.00
O257   O     0.72733   0.16667   0.18508   0.00000  Uiso   1.00
O258   O     0.75984   0.02244   0.14571   0.00000  Uiso   1.00
C259   C     0.00068   0.42093   0.24934   0.00000  Uiso   1.00
C260   C     0.30299   0.35573   0.28463   0.00000  Uiso   1.00
C261   C     0.33193   0.62373   0.25112   0.00000  Uiso   1.00
C262   C     0.00144   0.37626   0.24895   0.00000  Uiso   1.00
C263   C     0.18876   0.46650   0.26572   0.00000  Uiso   1.00
C264   C     0.14454   0.53351   0.23434   0.00000  Uiso   1.00
C265   C     0.13973   0.46606   0.26572   0.00000  Uiso   1.00
C266   C     0.19352   0.53398   0.23446   0.00000  Uiso   1.00
C267   C     0.30615   0.50020   0.33607   0.00000  Uiso   1.00
C268   C     0.02722   0.49997   0.16392   0.00000  Uiso   1.00
C269   C     0.29084   0.49966   0.38547   0.00000  Uiso   1.00
C270   C     0.33265   0.57907   0.25069   0.00000  Uiso   1.00
C271   C     0.04282   0.50245   0.11454   0.00000  Uiso   1.00
C272   C     0.30739   0.48680   0.45742   0.00000  Uiso   1.00
C273   C     0.02784   0.52227   0.04337   0.00000  Uiso   1.00
C274   C     0.32360   0.49226   0.41116   0.00000  Uiso   1.00
C275   C     0.01087   0.51374   0.08906   0.00000  Uiso   1.00
C276   C     0.24192   0.50478   0.40709   0.00000  Uiso   1.00
C277   C     0.09169   0.49669   0.09303   0.00000  Uiso   1.00
C278   C     0.22481   0.50193   0.45415   0.00000  Uiso   1.00
C279   C     0.10991   0.50458   0.04663   0.00000  Uiso   1.00
C280   C     0.25843   0.49144   0.47908   0.00000  Uiso   1.00
C281   C     0.19477   0.48950   0.04753   0.00000  Uiso   1.00
C282   C     0.07685   0.51771   0.02196   0.00000  Uiso   1.00
C283   C     0.17531   0.50789   0.47691   0.00000  Uiso   1.00
C284   C     0.15979   0.50039   0.02423   0.00000  Uiso   1.00
C285   C     0.06473   0.37553   0.17453   0.00000  Uiso   1.00
C286   C     0.26887   0.62444   0.32568   0.00000  Uiso   1.00
C287   C     0.11487   0.42760   0.28387   0.00000  Uiso   1.00
C288   C     0.12523   0.39090   0.25928   0.00000  Uiso   1.00
C289   C     0.10544   0.35331   0.27827   0.00000  Uiso   1.00
C290   C     0.07532   0.35211   0.32182   0.00000  Uiso   1.00
C291   C     0.06583   0.38833   0.34679   0.00000  Uiso   1.00
C292   C     0.14099   0.52182   0.45404   0.00000  Uiso   1.00
C293   C     0.08631   0.42576   0.32809   0.00000  Uiso   1.00
C294   C     0.21826   0.57244   0.21628   0.00000  Uiso   1.00
C295   C     0.20892   0.60888   0.24135   0.00000  Uiso   1.00
C296   C     0.22824   0.64658   0.22221   0.00000  Uiso   1.00
C297   C     0.25684   0.64814   0.17804   0.00000  Uiso   1.00
C298   C     0.26504   0.61220   0.15258   0.00000  Uiso   1.00
C299   C     0.24492   0.57471   0.17145   0.00000  Uiso   1.00
C300   C     0.24301   0.48546   0.02533   0.00000  Uiso   1.00
C301   C     0.09284   0.52651   0.47622   0.00000  Uiso   1.00
C302   C     0.03205   0.35415   0.21363   0.00000  Uiso   1.00
C303   C     0.30142   0.64584   0.28651   0.00000  Uiso   1.00
C304   C     0.03042   0.64426   0.21548   0.00000  Uiso   1.00
Cu305  Cu    0.04689   0.50001   0.25000   0.00000  Uiso   1.00
Cu306  Cu    0.28645   0.49999   0.25000   0.00000  Uiso   1.00
H307   H     0.26846   0.47719   0.04462   0.00000  Uiso   1.00
H308   H     0.15010   0.53044   0.41895   0.00000  Uiso   1.00
H309   H     0.05346   0.62627   0.18876   0.00000  Uiso   1.00
H310   H     0.27996   0.37372   0.31134   0.00000  Uiso   1.00
H311   H     0.20480   0.43981   0.27888   0.00000  Uiso   1.00
H312   H     0.12849   0.56020   0.22118   0.00000  Uiso   1.00
H313   H     0.06385   0.40912   0.17080   0.00000  Uiso   1.00
H314   H     0.26972   0.59085   0.32935   0.00000  Uiso   1.00
H315   H     0.14873   0.39143   0.22558   0.00000  Uiso   1.00
H316   H     0.11322   0.65851   0.25914   0.00000  Uiso   1.00
H317   H     0.05969   0.65641   0.33633   0.00000  Uiso   1.00
H318   H     0.06786   0.53723   0.45728   0.00000  Uiso   1.00
H319   H     0.04335   0.38726   0.38086   0.00000  Uiso   1.00
H320   H     0.08135   0.45305   0.34821   0.00000  Uiso   1.00
H321   H     0.18654   0.60807   0.27551   0.00000  Uiso   1.00
H322   H     0.22124   0.34120   0.24169   0.00000  Uiso   1.00
H323   H     0.27211   0.34392   0.16342   0.00000  Uiso   1.00
H324   H     0.28610   0.61358   0.11799   0.00000  Uiso   1.00
H325   H     0.24831   0.54772   0.15105   0.00000  Uiso   1.00
H326   H     0.11468   0.48621   0.11359   0.00000  Uiso   1.00
H327   H     0.21769   0.50981   0.38625   0.00000  Uiso   1.00
H328   H     0.30634   0.51684   0.10434   0.00000  Uiso   1.00
H329   H     0.02822   0.48973   0.39569   0.00000  Uiso   1.00
H330   H     0.33323   0.47847   0.47618   0.00000  Uiso   1.00
H331   H     0.00256   0.53305   0.02487   0.00000  Uiso   1.00
H332   H     0.18652   0.48437   0.08326   0.00000  Uiso   1.00
N333   N     0.11736   0.50001   0.24999   0.00000  Uiso   1.00
N334   N     0.21597   0.49999   0.25001   0.00000  Uiso   1.00
O335   O     0.03958   0.43989   0.25000   0.00000  Uiso   1.00
O336   O     0.24056   0.64419   0.35462   0.00000  Uiso   1.00
O337   O     0.29375   0.56011   0.25000   0.00000  Uiso   1.00
O338   O     0.29372   0.43988   0.25000   0.00000  Uiso   1.00
O339   O     0.03961   0.56012   0.24999   0.00000  Uiso   1.00
O340   O     0.01852   0.50001   0.31491   0.00000  Uiso   1.00
O341   O     0.31481   0.49999   0.18508   0.00000  Uiso   1.00
O342   O     0.27267   0.50000   0.31492   0.00000  Uiso   1.00
O343   O     0.06067   0.50000   0.18508   0.00000  Uiso   1.00
O344   O     0.09318   0.35577   0.14571   0.00000  Uiso   1.00
C345   C     0.33401   0.42093   0.24934   0.00000  Uiso   1.00
C346   C     0.63632   0.35573   0.28463   0.00000  Uiso   1.00
C347   C     0.66527   0.62373   0.25112   0.00000  Uiso   1.00
C348   C     0.33477   0.37626   0.24895   0.00000  Uiso   1.00
C349   C     0.52210   0.46650   0.26572   0.00000  Uiso   1.00
C350   C     0.47787   0.53351   0.23434   0.00000  Uiso   1.00
C351   C     0.47306   0.46606   0.26572   0.00000  Uiso   1.00
C352   C     0.52685   0.53398   0.23446   0.00000  Uiso   1.00
C353   C     0.63948   0.50020   0.33607   0.00000  Uiso   1.00
C354   C     0.36055   0.49997   0.16392   0.00000  Uiso   1.00
C355   C     0.62418   0.49966   0.38547   0.00000  Uiso   1.00
C356   C     0.66599   0.57907   0.25069   0.00000  Uiso   1.00
C357   C     0.37616   0.50245   0.11454   0.00000  Uiso   1.00
C358   C     0.64072   0.48680   0.45742   0.00000  Uiso   1.00
C359   C     0.36117   0.52227   0.04337   0.00000  Uiso   1.00
C360   C     0.65693   0.49226   0.41116   0.00000  Uiso   1.00
C361   C     0.34421   0.51374   0.08906   0.00000  Uiso   1.00
C362   C     0.57525   0.50478   0.40709   0.00000  Uiso   1.00
C363   C     0.42502   0.49669   0.09303   0.00000  Uiso   1.00
C364   C     0.55815   0.50193   0.45415   0.00000  Uiso   1.00
C365   C     0.44325   0.50458   0.04663   0.00000  Uiso   1.00
C366   C     0.59176   0.49144   0.47908   0.00000  Uiso   1.00
C367   C     0.52810   0.48950   0.04753   0.00000  Uiso   1.00
C368   C     0.41018   0.51771   0.02196   0.00000  Uiso   1.00
C369   C     0.50864   0.50789   0.47691   0.00000  Uiso   1.00
C370   C     0.49313   0.50039   0.02423   0.00000  Uiso   1.00
C371   C     0.39806   0.37553   0.17453   0.00000  Uiso   1.00
C372   C     0.60220   0.62444   0.32568   0.00000  Uiso   1.00
C373   C     0.44820   0.42760   0.28387   0.00000  Uiso   1.00
C374   C     0.45856   0.39090   0.25928   0.00000  Uiso   1.00
C375   C     0.43877   0.35331   0.27827   0.00000  Uiso   1.00
C376   C     0.40865   0.35211   0.32182   0.00000  Uiso   1.00
C377   C     0.39917   0.38833   0.34679   0.00000  Uiso   1.00
C378   C     0.47432   0.52182   0.45404   0.00000  Uiso   1.00
C379   C     0.41965   0.42576   0.32809   0.00000  Uiso   1.00
C380   C     0.55159   0.57244   0.21628   0.00000  Uiso   1.00
C381   C     0.54225   0.60888   0.24135   0.00000  Uiso   1.00
C382   C     0.56157   0.64658   0.22221   0.00000  Uiso   1.00
C383   C     0.59017   0.64814   0.17804   0.00000  Uiso   1.00
C384   C     0.59838   0.61220   0.15258   0.00000  Uiso   1.00
C385   C     0.57825   0.57471   0.17145   0.00000  Uiso   1.00
C386   C     0.57634   0.48546   0.02533   0.00000  Uiso   1.00
C387   C     0.42617   0.52651   0.47622   0.00000  Uiso   1.00
C388   C     0.36538   0.35415   0.21363   0.00000  Uiso   1.00
C389   C     0.63475   0.64584   0.28651   0.00000  Uiso   1.00
C390   C     0.36375   0.64426   0.21548   0.00000  Uiso   1.00
Cu391  Cu    0.38022   0.50001   0.25000   0.00000  Uiso   1.00
Cu392  Cu    0.61978   0.49999   0.25000   0.00000  Uiso   1.00
H393   H     0.60179   0.47719   0.04462   0.00000  Uiso   1.00
H394   H     0.48344   0.53044   0.41895   0.00000  Uiso   1.00
H395   H     0.38679   0.62627   0.18876   0.00000  Uiso   1.00
H396   H     0.61329   0.37372   0.31134   0.00000  Uiso   1.00
H397   H     0.53813   0.43981   0.27888   0.00000  Uiso   1.00
H398   H     0.46183   0.56020   0.22118   0.00000  Uiso   1.00
H399   H     0.39718   0.40912   0.17080   0.00000  Uiso   1.00
H400   H     0.60305   0.59085   0.32935   0.00000  Uiso   1.00
H401   H     0.48207   0.39143   0.22558   0.00000  Uiso   1.00
H402   H     0.44655   0.65851   0.25914   0.00000  Uiso   1.00
H403   H     0.39302   0.65641   0.33633   0.00000  Uiso   1.00
H404   H     0.40119   0.53723   0.45728   0.00000  Uiso   1.00
H405   H     0.37668   0.38726   0.38086   0.00000  Uiso   1.00
H406   H     0.41468   0.45305   0.34821   0.00000  Uiso   1.00
H407   H     0.51987   0.60807   0.27551   0.00000  Uiso   1.00
H408   H     0.55458   0.34120   0.24169   0.00000  Uiso   1.00
H409   H     0.60545   0.34392   0.16342   0.00000  Uiso   1.00
H410   H     0.61943   0.61358   0.11799   0.00000  Uiso   1.00
H411   H     0.58164   0.54772   0.15105   0.00000  Uiso   1.00
H412   H     0.44801   0.48621   0.11359   0.00000  Uiso   1.00
H413   H     0.55102   0.50981   0.38625   0.00000  Uiso   1.00
H414   H     0.63968   0.51684   0.10434   0.00000  Uiso   1.00
H415   H     0.36156   0.48973   0.39569   0.00000  Uiso   1.00
H416   H     0.66656   0.47847   0.47618   0.00000  Uiso   1.00
H417   H     0.33589   0.53305   0.02487   0.00000  Uiso   1.00
H418   H     0.51985   0.48437   0.08326   0.00000  Uiso   1.00
N419   N     0.45069   0.50001   0.24999   0.00000  Uiso   1.00
N420   N     0.54931   0.49999   0.25001   0.00000  Uiso   1.00
O421   O     0.37291   0.43989   0.25000   0.00000  Uiso   1.00
O422   O     0.57389   0.64419   0.35462   0.00000  Uiso   1.00
O423   O     0.62709   0.56011   0.25000   0.00000  Uiso   1.00
O424   O     0.62706   0.43988   0.25000   0.00000  Uiso   1.00
O425   O     0.37294   0.56012   0.24999   0.00000  Uiso   1.00
O426   O     0.35186   0.50001   0.31491   0.00000  Uiso   1.00
O427   O     0.64814   0.49999   0.18508   0.00000  Uiso   1.00
O428   O     0.60600   0.50000   0.31492   0.00000  Uiso   1.00
O429   O     0.39400   0.50000   0.18508   0.00000  Uiso   1.00
O430   O     0.42651   0.35577   0.14571   0.00000  Uiso   1.00
C431   C     0.66735   0.42093   0.24934   0.00000  Uiso   1.00
C432   C     0.96966   0.35573   0.28463   0.00000  Uiso   1.00
C433   C     0.99860   0.62373   0.25112   0.00000  Uiso   1.00
C434   C     0.66810   0.37626   0.24895   0.00000  Uiso   1.00
C435   C     0.85543   0.46650   0.26572   0.00000  Uiso   1.00
C436   C     0.81120   0.53351   0.23434   0.00000  Uiso   1.00
C437   C     0.80639   0.46606   0.26572   0.00000  Uiso   1.00
C438   C     0.86018   0.53398   0.23446   0.00000  Uiso   1.00
C439   C     0.97282   0.50020   0.33607   0.00000  Uiso   1.00
C440   C     0.69389   0.49997   0.16392   0.00000  Uiso   1.00
C441   C     0.95751   0.49966   0.38547   0.00000  Uiso   1.00
C442   C     0.99932   0.57907   0.25069   0.00000  Uiso   1.00
C443   C     0.70949   0.50245   0.11454   0.00000  Uiso   1.00
C444   C     0.97405   0.48680   0.45742   0.00000  Uiso   1.00
C445   C     0.69450   0.52227   0.04337   0.00000  Uiso   1.00
C446   C     0.99027   0.49226   0.41116   0.00000  Uiso   1.00
C447   C     0.67754   0.51374   0.08906   0.00000  Uiso   1.00
C448   C     0.90858   0.50478   0.40709   0.00000  Uiso   1.00
C449   C     0.75835   0.49669   0.09303   0.00000  Uiso   1.00
C450   C     0.89148   0.50193   0.45415   0.00000  Uiso   1.00
C451   C     0.77658   0.50458   0.04663   0.00000  Uiso   1.00
C452   C     0.92510   0.49144   0.47908   0.00000  Uiso   1.00
C453   C     0.86143   0.48950   0.04753   0.00000  Uiso   1.00
C454   C     0.74351   0.51771   0.02196   0.00000  Uiso   1.00
C455   C     0.84197   0.50789   0.47691   0.00000  Uiso   1.00
C456   C     0.82646   0.50039   0.02423   0.00000  Uiso   1.00
C457   C     0.73139   0.37553   0.17453   0.00000  Uiso   1.00
C458   C     0.93553   0.62444   0.32568   0.00000  Uiso   1.00
C459   C     0.78153   0.42760   0.28387   0.00000  Uiso   1.00
C460   C     0.79190   0.39090   0.25928   0.00000  Uiso   1.00
C461   C     0.77211   0.35331   0.27827   0.00000  Uiso   1.00
C462   C     0.74198   0.35211   0.32182   0.00000  Uiso   1.00
C463   C     0.73250   0.38833   0.34679   0.00000  Uiso   1.00
C464   C     0.80765   0.52182   0.45404   0.00000  Uiso   1.00
C465   C     0.75298   0.42576   0.32809   0.00000  Uiso   1.00
C466   C     0.88493   0.57244   0.21628   0.00000  Uiso   1.00
C467   C     0.87558   0.60888   0.24135   0.00000  Uiso   1.00
C468   C     0.89490   0.64658   0.22221   0.00000  Uiso   1.00
C469   C     0.92350   0.64814   0.17804   0.00000  Uiso   1.00
C470   C     0.93171   0.61220   0.15258   0.00000  Uiso   1.00
C471   C     0.91159   0.57471   0.17145   0.00000  Uiso   1.00
C472   C     0.90968   0.48546   0.02533   0.00000  Uiso   1.00
C473   C     0.75951   0.52651   0.47622   0.00000  Uiso   1.00
C474   C     0.69871   0.35415   0.21363   0.00000  Uiso   1.00
C475   C     0.96808   0.64584   0.28651   0.00000  Uiso   1.00
C476   C     0.69709   0.64426   0.21548   0.00000  Uiso   1.00
Cu477  Cu    0.71355   0.50001   0.25000   0.00000  Uiso   1.00
Cu478  Cu    0.95311   0.49999   0.25000   0.00000  Uiso   1.00
H479   H     0.93512   0.47719   0.04462   0.00000  Uiso   1.00
H480   H     0.81677   0.53044   0.41895   0.00000  Uiso   1.00
H481   H     0.72012   0.62627   0.18876   0.00000  Uiso   1.00
H482   H     0.94663   0.37372   0.31134   0.00000  Uiso   1.00
H483   H     0.87147   0.43981   0.27888   0.00000  Uiso   1.00
H484   H     0.79516   0.56020   0.22118   0.00000  Uiso   1.00
H485   H     0.73052   0.40912   0.17080   0.00000  Uiso   1.00
H486   H     0.93639   0.59085   0.32935   0.00000  Uiso   1.00
H487   H     0.81540   0.39143   0.22558   0.00000  Uiso   1.00
H488   H     0.77988   0.65851   0.25914   0.00000  Uiso   1.00
H489   H     0.72636   0.65641   0.33633   0.00000  Uiso   1.00
H490   H     0.73453   0.53723   0.45728   0.00000  Uiso   1.00
H491   H     0.71002   0.38726   0.38086   0.00000  Uiso   1.00
H492   H     0.74801   0.45305   0.34821   0.00000  Uiso   1.00
H493   H     0.85320   0.60807   0.27551   0.00000  Uiso   1.00
H494   H     0.88791   0.34120   0.24169   0.00000  Uiso   1.00
H495   H     0.93878   0.34392   0.16342   0.00000  Uiso   1.00
H496   H     0.95276   0.61358   0.11799   0.00000  Uiso   1.00
H497   H     0.91498   0.54772   0.15105   0.00000  Uiso   1.00
H498   H     0.78135   0.48621   0.11359   0.00000  Uiso   1.00
H499   H     0.88436   0.50981   0.38625   0.00000  Uiso   1.00
H500   H     0.97301   0.51684   0.10434   0.00000  Uiso   1.00
H501   H     0.69489   0.48973   0.39569   0.00000  Uiso   1.00
H502   H     0.99989   0.47847   0.47618   0.00000  Uiso   1.00
H503   H     0.66922   0.53305   0.02487   0.00000  Uiso   1.00
H504   H     0.85319   0.48437   0.08326   0.00000  Uiso   1.00
N505   N     0.78403   0.50001   0.24999   0.00000  Uiso   1.00
N506   N     0.88264   0.49999   0.25001   0.00000  Uiso   1.00
O507   O     0.70625   0.43989   0.25000   0.00000  Uiso   1.00
O508   O     0.90723   0.64419   0.35462   0.00000  Uiso   1.00
O509   O     0.96042   0.56011   0.25000   0.00000  Uiso   1.00
O510   O     0.96039   0.43988   0.25000   0.00000  Uiso   1.00
O511   O     0.70628   0.56012   0.24999   0.00000  Uiso   1.00
O512   O     0.68519   0.50001   0.31491   0.00000  Uiso   1.00
O513   O     0.98148   0.49999   0.18508   0.00000  Uiso   1.00
O514   O     0.93933   0.50000   0.31492   0.00000  Uiso   1.00
O515   O     0.72733   0.50000   0.18508   0.00000  Uiso   1.00
O516   O     0.75984   0.35577   0.14571   0.00000  Uiso   1.00
C517   C     0.00068   0.75426   0.24934   0.00000  Uiso   1.00
C518   C     0.30299   0.68906   0.28463   0.00000  Uiso   1.00
C519   C     0.33193   0.95707   0.25112   0.00000  Uiso   1.00
C520   C     0.00144   0.70959   0.24895   0.00000  Uiso   1.00
C521   C     0.18876   0.79983   0.26572   0.00000  Uiso   1.00
C522   C     0.14454   0.86684   0.23434   0.00000  Uiso   1.00
C523   C     0.13973   0.79939   0.26572   0.00000  Uiso   1.00
C524   C     0.19352   0.86731   0.23446   0.00000  Uiso   1.00
C525   C     0.30615   0.83353   0.33607   0.00000  Uiso   1.00
C526   C     0.02722   0.83330   0.16392   0.00000  Uiso   1.00
C527   C     0.29084   0.83299   0.38547   0.00000  Uiso   1.00
C528   C     0.33265   0.91240   0.25069   0.00000  Uiso   1.00
C529   C     0.04282   0.83578   0.11454   0.00000  Uiso   1.00
C530   C     0.30739   0.82014   0.45742   0.00000  Uiso   1.00
C531   C     0.02784   0.85561   0.04337   0.00000  Uiso   1.00
C532   C     0.32360   0.82560   0.41116   0.00000  Uiso   1.00
C533   C     0.01087   0.84708   0.08906   0.00000  Uiso   1.00
C534   C     0.24192   0.83812   0.40709   0.00000  Uiso   1.00
C535   C     0.09169   0.83002   0.09303   0.00000  Uiso   1.00
C536   C     0.22481   0.83526   0.45415   0.00000  Uiso   1.00
C537   C     0.10991   0.83791   0.04663   0.00000  Uiso   1.00
C538   C     0.25843   0.82477   0.47908   0.00000  Uiso   1.00
C539   C     0.19477   0.82283   0.04753   0.00000  Uiso   1.00
C540   C     0.07685   0.85105   0.02196   0.00000  Uiso   1.00
C541   C     0.17531   0.84123   0.47691   0.00000  Uiso   1.00
C542   C     0.15979   0.83372   0.02423   0.00000  Uiso   1.00
C543   C     0.06473   0.70887   0.17453   0.00000  Uiso   1.00
C544   C     0.26887   0.95777   0.32568   0.00000  Uiso   1.00
C545   C     0.11487   0.76093   0.28387   0.00000  Uiso   1.00
C546   C     0.12523   0.72423   0.25928   0.00000  Uiso   1.00
C547   C     0.10544   0.68664   0.27827   0.00000  Uiso   1.00
C548   C     0.07532   0.68544   0.32182   0.00000  Uiso   1.00
C549   C     0.06583   0.72166   0.34679   0.00000  Uiso   1.00
C550   C     0.14099   0.85515   0.45404   0.00000  Uiso   1.00
C551   C     0.08631   0.75909   0.32809   0.00000  Uiso   1.00
C552   C     0.21826   0.90577   0.21628   0.00000  Uiso   1.00
C553   C     0.20892   0.94221   0.24135   0.00000  Uiso   1.00
C554   C     0.22824   0.97992   0.22221   0.00000  Uiso   1.00
C555   C     0.25684   0.98147   0.17804   0.00000  Uiso   1.00
C556   C     0.26504   0.94554   0.15258   0.00000  Uiso   1.00
C557   C     0.24492   0.90804   0.17145   0.00000  Uiso   1.00
C558   C     0.24301   0.81880   0.02533   0.00000  Uiso   1.00
C559   C     0.09284   0.85985   0.47622   0.00000  Uiso   1.00
C560   C     0.03205   0.68748   0.21363   0.00000  Uiso   1.00
C561   C     0.30142   0.97917   0.28651   0.00000  Uiso   1.00
C562   C     0.03042   0.97760   0.21548   0.00000  Uiso   1.00
Cu563  Cu    0.04689   0.83334   0.25000   0.00000  Uiso   1.00
Cu564  Cu    0.28645   0.83333   0.25000   0.00000  Uiso   1.00
H565   H     0.26846   0.81053   0.04462   0.00000  Uiso   1.00
H566   H     0.15010   0.86377   0.41895   0.00000  Uiso   1.00
H567   H     0.05346   0.95961   0.18876   0.00000  Uiso   1.00
H568   H     0.27996   0.70705   0.31134   0.00000  Uiso   1.00
H569   H     0.20480   0.77314   0.27888   0.00000  Uiso   1.00
H570   H     0.12849   0.89353   0.22118   0.00000  Uiso   1.00
H571   H     0.06385   0.74245   0.17080   0.00000  Uiso   1.00
H572   H     0.26972   0.92419   0.32935   0.00000  Uiso   1.00
H573   H     0.14873   0.72477   0.22558   0.00000  Uiso   1.00
H574   H     0.11322   0.99184   0.25914   0.00000  Uiso   1.00
H575   H     0.05969   0.98974   0.33633   0.00000  Uiso   1.00
H576   H     0.06786   0.87057   0.45728   0.00000  Uiso   1.00
H577   H     0.04335   0.72060   0.38086   0.00000  Uiso   1.00
H578   H     0.08135   0.78638   0.34821   0.00000  Uiso   1.00
H579   H     0.18654   0.94140   0.27551   0.00000  Uiso   1.00
H580   H     0.22124   0.67454   0.24169   0.00000  Uiso   1.00
H581   H     0.27211   0.67725   0.16342   0.00000  Uiso   1.00
H582   H     0.28610   0.94692   0.11799   0.00000  Uiso   1.00
H583   H     0.24831   0.88105   0.15105   0.00000  Uiso   1.00
H584   H     0.11468   0.81955   0.11359   0.00000  Uiso   1.00
H585   H     0.21769   0.84315   0.38625   0.00000  Uiso   1.00
H586   H     0.30634   0.85018   0.10434   0.00000  Uiso   1.00
H587   H     0.02822   0.82306   0.39569   0.00000  Uiso   1.00
H588   H     0.33323   0.81181   0.47618   0.00000  Uiso   1.00
H589   H     0.00256   0.86638   0.02487   0.00000  Uiso   1.00
H590   H     0.18652   0.81770   0.08326   0.00000  Uiso   1.00
N591   N     0.11736   0.83334   0.24999   0.00000  Uiso   1.00
N592   N     0.21597   0.83332   0.25001   0.00000  Uiso   1.00
O593   O     0.03958   0.77322   0.25000   0.00000  Uiso   1.00
O594   O     0.24056   0.97752   0.35462   0.00000  Uiso   1.00
O595   O     0.29375   0.89345   0.25000   0.00000  Uiso   1.00
O596   O     0.29372   0.77321   0.25000   0.00000  Uiso   1.00
O597   O     0.03961   0.89346   0.24999   0.00000  Uiso   1.00
O598   O     0.01852   0.83334   0.31491   0.00000  Uiso   1.00
O599   O     0.31481   0.83332   0.18508   0.00000  Uiso   1.00
O600   O     0.27267   0.83333   0.31492   0.00000  Uiso   1.00
O601   O     0.06067   0.83333   0.18508   0.00000  Uiso   1.00
O602   O     0.09318   0.68911   0.14571   0.00000  Uiso   1.00
C603   C     0.33401   0.75426   0.24934   0.00000  Uiso   1.00
C604   C     0.63632   0.68906   0.28463   0.00000  Uiso   1.00
C605   C     0.66527   0.95707   0.25112   0.00000  Uiso   1.00
C606   C     0.33477   0.70959   0.24895   0.00000  Uiso   1.00
C607   C     0.52210   0.79983   0.26572   0.00000  Uiso   1.00
C608   C     0.47787   0.86684   0.23434   0.00000  Uiso   1.00
C609   C     0.47306   0.79939   0.26572   0.00000  Uiso   1.00
C610   C     0.52685   0.86731   0.23446   0.00000  Uiso   1.00
C611   C     0.63948   0.83353   0.33607   0.00000  Uiso   1.00
C612   C     0.36055   0.83330   0.16392   0.00000  Uiso   1.00
C613   C     0.62418   0.83299   0.38547   0.00000  Uiso   1.00
C614   C     0.66599   0.91240   0.25069   0.00000  Uiso   1.00
C615   C     0.37616   0.83578   0.11454   0.00000  Uiso   1.00
C616   C     0.64072   0.82014   0.45742   0.00000  Uiso   1.00
C617   C     0.36117   0.85561   0.04337   0.00000  Uiso   1.00
C618   C     0.65693   0.82560   0.41116   0.00000  Uiso   1.00
C619   C     0.34421   0.84708   0.08906   0.00000  Uiso   1.00
C620   C     0.57525   0.83812   0.40709   0.00000  Uiso   1.00
C621   C     0.42502   0.83002   0.09303   0.00000  Uiso   1.00
C622   C     0.55815   0.83526   0.45415   0.00000  Uiso   1.00
C623   C     0.44325   0.83791   0.04663   0.00000  Uiso   1.00
C624   C     0.59176   0.82477   0.47908   0.00000  Uiso   1.00
C625   C     0.52810   0.82283   0.04753   0.00000  Uiso   1.00
C626   C     0.41018   0.85105   0.02196   0.00000  Uiso   1.00
C627   C     0.50864   0.84123   0.47691   0.00000  Uiso   1.00
C628   C     0.49313   0.83372   0.02423   0.00000  Uiso   1.00
C629   C     0.39806   0.70887   0.17453   0.00000  Uiso   1.00
C630   C     0.60220   0.95777   0.32568   0.00000  Uiso   1.00
C631   C     0.44820   0.76093   0.28387   0.00000  Uiso   1.00
C632   C     0.45856   0.72423   0.25928   0.00000  Uiso   1.00
C633   C     0.43877   0.68664   0.27827   0.00000  Uiso   1.00
C634   C     0.40865   0.68544   0.32182   0.00000  Uiso   1.00
C635   C     0.39917   0.72166   0.34679   0.00000  Uiso   1.00
C636   C     0.47432   0.85515   0.45404   0.00000  Uiso   1.00
C637   C     0.41965   0.75909   0.32809   0.00000  Uiso   1.00
C638   C     0.55159   0.90577   0.21628   0.00000  Uiso   1.00
C639   C     0.54225   0.94221   0.24135   0.00000  Uiso   1.00
C640   C     0.56157   0.97992   0.22221   0.00000  Uiso   1.00
C641   C     0.59017   0.98147   0.17804   0.00000  Uiso   1.00
C642   C     0.59838   0.94554   0.15258   0.00000  Uiso   1.00
C643   C     0.57825   0.90804   0.17145   0.00000  Uiso   1.00
C644   C     0.57634   0.81880   0.02533   0.00000  Uiso   1.00
C645   C     0.42617   0.85985   0.47622   0.00000  Uiso   1.00
C646   C     0.36538   0.68748   0.21363   0.00000  Uiso   1.00
C647   C     0.63475   0.97917   0.28651   0.00000  Uiso   1.00
C648   C     0.36375   0.97760   0.21548   0.00000  Uiso   1.00
Cu649  Cu    0.38022   0.83334   0.25000   0.00000  Uiso   1.00
Cu650  Cu    0.61978   0.83333   0.25000   0.00000  Uiso   1.00
H651   H     0.60179   0.81053   0.04462   0.00000  Uiso   1.00
H652   H     0.48344   0.86377   0.41895   0.00000  Uiso   1.00
H653   H     0.38679   0.95961   0.18876   0.00000  Uiso   1.00
H654   H     0.61329   0.70705   0.31134   0.00000  Uiso   1.00
H655   H     0.53813   0.77314   0.27888   0.00000  Uiso   1.00
H656   H     0.46183   0.89353   0.22118   0.00000  Uiso   1.00
H657   H     0.39718   0.74245   0.17080   0.00000  Uiso   1.00
H658   H     0.60305   0.92419   0.32935   0.00000  Uiso   1.00
H659   H     0.48207   0.72477   0.22558   0.00000  Uiso   1.00
H660   H     0.44655   0.99184   0.25914   0.00000  Uiso   1.00
H661   H     0.39302   0.98974   0.33633   0.00000  Uiso   1.00
H662   H     0.40119   0.87057   0.45728   0.00000  Uiso   1.00
H663   H     0.37668   0.72060   0.38086   0.00000  Uiso   1.00
H664   H     0.41468   0.78638   0.34821   0.00000  Uiso   1.00
H665   H     0.51987   0.94140   0.27551   0.00000  Uiso   1.00
H666   H     0.55458   0.67454   0.24169   0.00000  Uiso   1.00
H667   H     0.60545   0.67725   0.16342   0.00000  Uiso   1.00
H668   H     0.61943   0.94692   0.11799   0.00000  Uiso   1.00
H669   H     0.58164   0.88105   0.15105   0.00000  Uiso   1.00
H670   H     0.44801   0.81955   0.11359   0.00000  Uiso   1.00
H671   H     0.55102   0.84315   0.38625   0.00000  Uiso   1.00
H672   H     0.63968   0.85018   0.10434   0.00000  Uiso   1.00
H673   H     0.36156   0.82306   0.39569   0.00000  Uiso   1.00
H674   H     0.66656   0.81181   0.47618   0.00000  Uiso   1.00
H675   H     0.33589   0.86638   0.02487   0.00000  Uiso   1.00
H676   H     0.51985   0.81770   0.08326   0.00000  Uiso   1.00
N677   N     0.45069   0.83334   0.24999   0.00000  Uiso   1.00
N678   N     0.54931   0.83332   0.25001   0.00000  Uiso   1.00
O679   O     0.37291   0.77322   0.25000   0.00000  Uiso   1.00
O680   O     0.57389   0.97752   0.35462   0.00000  Uiso   1.00
O681   O     0.62709   0.89345   0.25000   0.00000  Uiso   1.00
O682   O     0.62706   0.77321   0.25000   0.00000  Uiso   1.00
O683   O     0.37294   0.89346   0.24999   0.00000  Uiso   1.00
O684   O     0.35186   0.83334   0.31491   0.00000  Uiso   1.00
O685   O     0.64814   0.83332   0.18508   0.00000  Uiso   1.00
O686   O     0.60600   0.83333   0.31492   0.00000  Uiso   1.00
O687   O     0.39400   0.83333   0.18508   0.00000  Uiso   1.00
O688   O     0.42651   0.68911   0.14571   0.00000  Uiso   1.00
C689   C     0.66735   0.75426   0.24934   0.00000  Uiso   1.00
C690   C     0.96966   0.68906   0.28463   0.00000  Uiso   1.00
C691   C     0.99860   0.95707   0.25112   0.00000  Uiso   1.00
C692   C     0.66810   0.70959   0.24895   0.00000  Uiso   1.00
C693   C     0.85543   0.79983   0.26572   0.00000  Uiso   1.00
C694   C     0.81120   0.86684   0.23434   0.00000  Uiso   1.00
C695   C     0.80639   0.79939   0.26572   0.00000  Uiso   1.00
C696   C     0.86018   0.86731   0.23446   0.00000  Uiso   1.00
C697   C     0.97282   0.83353   0.33607   0.00000  Uiso   1.00
C698   C     0.69389   0.83330   0.16392   0.00000  Uiso   1.00
C699   C     0.95751   0.83299   0.38547   0.00000  Uiso   1.00
C700   C     0.99932   0.91240   0.25069   0.00000  Uiso   1.00
C701   C     0.70949   0.83578   0.11454   0.00000  Uiso   1.00
C702   C     0.97405   0.82014   0.45742   0.00000  Uiso   1.00
C703   C     0.69450   0.85561   0.04337   0.00000  Uiso   1.00
C704   C     0.99027   0.82560   0.41116   0.00000  Uiso   1.00
C705   C     0.67754   0.84708   0.08906   0.00000  Uiso   1.00
C706   C     0.90858   0.83812   0.40709   0.00000  Uiso   1.00
C707   C     0.75835   0.83002   0.09303   0.00000  Uiso   1.00
C708   C     0.89148   0.83526   0.45415   0.00000  Uiso   1.00
C709   C     0.77658   0.83791   0.04663   0.00000  Uiso   1.00
C710   C     0.92510   0.82477   0.47908   0.00000  Uiso   1.00
C711   C     0.86143   0.82283   0.04753   0.00000  Uiso   1.00
C712   C     0.74351   0.85105   0.02196   0.00000  Uiso   1.00
C713   C     0.84197   0.84123   0.47691   0.00000  Uiso   1.00
C714   C     0.82646   0.83372   0.02423   0.00000  Uiso   1.00
C715   C     0.73139   0.70887   0.17453   0.00000  Uiso   1.00
C716   C     0.93553   0.95777   0.32568   0.00000  Uiso   1.00
C717   C     0.78153   0.76093   0.28387   0.00000  Uiso   1.00
C718   C     0.79190   0.72423   0.25928   0.00000  Uiso   1.00
C719   C     0.77211   0.68664   0.27827   0.00000  Uiso   1.00
C720   C     0.74198   0.68544   0.32182   0.00000  Uiso   1.00
C721   C     0.73250   0.72166   0.34679   0.00000  Uiso   1.00
C722   C     0.80765   0.85515   0.45404   0.00000  Uiso   1.00
C723   C     0.75298   0.75909   0.32809   0.00000  Uiso   1.00
C724   C     0.88493   0.90577   0.21628   0.00000  Uiso   1.00
C725   C     0.87558   0.94221   0.24135   0.00000  Uiso   1.00
C726   C     0.89490   0.97992   0.22221   0.00000  Uiso   1.00
C727   C     0.92350   0.98147   0.17804   0.00000  Uiso   1.00
C728   C     0.93171   0.94554   0.15258   0.00000  Uiso   1.00
C729   C     0.91159   0.90804   0.17145   0.00000  Uiso   1.00
C730   C     0.90968   0.81880   0.02533   0.00000  Uiso   1.00
C731   C     0.75951   0.85985   0.47622   0.00000  Uiso   1.00
C732   C     0.69871   0.68748   0.21363   0.00000  Uiso   1.00
C733   C     0.96808   0.97917   0.28651   0.00000  Uiso   1.00
C734   C     0.69709   0.97760   0.21548   0.00000  Uiso   1.00
Cu735  Cu    0.71355   0.83334   0.25000   0.00000  Uiso   1.00
Cu736  Cu    0.95311   0.83333   0.25000   0.00000  Uiso   1.00
H737   H     0.93512   0.81053   0.04462   0.00000  Uiso   1.00
H738   H     0.81677   0.86377   0.41895   0.00000  Uiso   1.00
H739   H     0.72012   0.95961   0.18876   0.00000  Uiso   1.00
H740   H     0.94663   0.70705   0.31134   0.00000  Uiso   1.00
H741   H     0.87147   0.77314   0.27888   0.00000  Uiso   1.00
H742   H     0.79516   0.89353   0.22118   0.00000  Uiso   1.00
H743   H     0.73052   0.74245   0.17080   0.00000  Uiso   1.00
H744   H     0.93639   0.92419   0.32935   0.00000  Uiso   1.00
H745   H     0.81540   0.72477   0.22558   0.00000  Uiso   1.00
H746   H     0.77988   0.99184   0.25914   0.00000  Uiso   1.00
H747   H     0.72636   0.98974   0.33633   0.00000  Uiso   1.00
H748   H     0.73453   0.87057   0.45728   0.00000  Uiso   1.00
H749   H     0.71002   0.72060   0.38086   0.00000  Uiso   1.00
H750   H     0.74801   0.78638   0.34821   0.00000  Uiso   1.00
H751   H     0.85320   0.94140   0.27551   0.00000  Uiso   1.00
H752   H     0.88791   0.67454   0.24169   0.00000  Uiso   1.00
H753   H     0.93878   0.67725   0.16342   0.00000  Uiso   1.00
H754   H     0.95276   0.94692   0.11799   0.00000  Uiso   1.00
H755   H     0.91498   0.88105   0.15105   0.00000  Uiso   1.00
H756   H     0.78135   0.81955   0.11359   0.00000  Uiso   1.00
H757   H     0.88436   0.84315   0.38625   0.00000  Uiso   1.00
H758   H     0.97301   0.85018   0.10434   0.00000  Uiso   1.00
H759   H     0.69489   0.82306   0.39569   0.00000  Uiso   1.00
H760   H     0.99989   0.81181   0.47618   0.00000  Uiso   1.00
H761   H     0.66922   0.86638   0.02487   0.00000  Uiso   1.00
H762   H     0.85319   0.81770   0.08326   0.00000  Uiso   1.00
N763   N     0.78403   0.83334   0.24999   0.00000  Uiso   1.00
N764   N     0.88264   0.83332   0.25001   0.00000  Uiso   1.00
O765   O     0.70625   0.77322   0.25000   0.00000  Uiso   1.00
O766   O     0.90723   0.97752   0.35462   0.00000  Uiso   1.00
O767   O     0.96042   0.89345   0.25000   0.00000  Uiso   1.00
O768   O     0.96039   0.77321   0.25000   0.00000  Uiso   1.00
O769   O     0.70628   0.89346   0.24999   0.00000  Uiso   1.00
O770   O     0.68519   0.83334   0.31491   0.00000  Uiso   1.00
O771   O     0.98148   0.83332   0.18508   0.00000  Uiso   1.00
O772   O     0.93933   0.83333   0.31492   0.00000  Uiso   1.00
O773   O     0.72733   0.83333   0.18508   0.00000  Uiso   1.00
O774   O     0.75984   0.68911   0.14571   0.00000  Uiso   1.00
C775   C     0.00068   0.08760   0.74934   0.00000  Uiso   1.00
C776   C     0.30299   0.02240   0.78463   0.00000  Uiso   1.00
C777   C     0.33193   0.29040   0.75112   0.00000  Uiso   1.00
C778   C     0.00144   0.04293   0.74895   0.00000  Uiso   1.00
C779   C     0.18876   0.13317   0.76572   0.00000  Uiso   1.00
C780   C     0.14454   0.20018   0.73434   0.00000  Uiso   1.00
C781   C     0.13973   0.13273   0.76572   0.00000  Uiso   1.00
C782   C     0.19352   0.20065   0.73446   0.00000  Uiso   1.00
C783   C     0.30615   0.16687   0.83607   0.00000  Uiso   1.00
C784   C     0.02722   0.16664   0.66392   0.00000  Uiso   1.00
C785   C     0.29084   0.16633   0.88547   0.00000  Uiso   1.00
C786   C     0.33265   0.24573   0.75069   0.00000  Uiso   1.00
C787   C     0.04282   0.16912   0.61454   0.00000  Uiso   1.00
C788   C     0.30739   0.15347   0.95742   0.00000  Uiso   1.00
C789   C     0.02784   0.18894   0.54337   0.00000  Uiso   1.00
C790   C     0.32360   0.15893   0.91116   0.00000  Uiso   1.00
C791   C     0.01087   0.18041   0.58906   0.00000  Uiso   1.00
C792   C     0.24192   0.17145   0.90709   0.00000  Uiso   1.00
C793   C     0.09169   0.16336   0.59303   0.00000  Uiso   1.00
C794   C     0.22481   0.16859   0.95415   0.00000  Uiso   1.00
C795   C     0.10991   0.17125   0.54663   0.00000  Uiso   1.00
C796   C     0.25843   0.15811   0.97908   0.00000  Uiso   1.00
C797   C     0.19477   0.15617   0.54753   0.00000  Uiso   1.00
C798   C     0.07685   0.18438   0.52196   0.00000  Uiso   1.00
C799   C     0.17531   0.17456   0.97691   0.00000  Uiso   1.00
C800   C     0.15979   0.16706   0.52423   0.00000  Uiso   1.00
C801   C     0.06473   0.04220   0.67453   0.00000  Uiso   1.00
C802   C     0.26887   0.29110   0.82568   0.00000  Uiso   1.00
C803   C     0.11487   0.09427   0.78387   0.00000  Uiso   1.00
C804   C     0.12523   0.05757   0.75928   0.00000  Uiso   1.00
C805   C     0.10544   0.01998   0.77827   0.00000  Uiso   1.00
C806   C     0.07532   0.01878   0.82182   0.00000  Uiso   1.00
C807   C     0.06583   0.05500   0.84679   0.00000  Uiso   1.00
C808   C     0.14099   0.18849   0.95404   0.00000  Uiso   1.00
C809   C     0.08631   0.09243   0.82809   0.00000  Uiso   1.00
C810   C     0.21826   0.23910   0.71628   0.00000  Uiso   1.00
C811   C     0.20892   0.27555   0.74135   0.00000  Uiso   1.00
C812   C     0.22824   0.31325   0.72221   0.00000  Uiso   1.00
C813   C     0.25684   0.31480   0.67804   0.00000  Uiso   1.00
C814   C     0.26504   0.27887   0.65258   0.00000  Uiso   1.00
C815   C     0.24492   0.24137   0.67145   0.00000  Uiso   1.00
C816   C     0.24301   0.15213   0.52533   0.00000  Uiso   1.00
C817   C     0.09284   0.19318   0.97622   0.00000  Uiso   1.00
C818   C     0.03205   0.02081   0.71363   0.00000  Uiso   1.00
C819   C     0.30142   0.31251   0.78651   0.00000  Uiso   1.00
C820   C     0.03042   0.31093   0.71548   0.00000  Uiso   1.00
Cu821  Cu    0.04689   0.16667   0.75000   0.00000  Uiso   1.00
Cu822  Cu    0.28645   0.16666   0.75000   0.00000  Uiso   1.00
H823   H     0.26846   0.14386   0.54462   0.00000  Uiso   1.00
H824   H     0.15010   0.19710   0.91895   0.00000  Uiso   1.00
H825   H     0.05346   0.29294   0.68876   0.00000  Uiso   1.00
H826   H     0.27996   0.04039   0.81134   0.00000  Uiso   1.00
H827   H     0.20480   0.10647   0.77888   0.00000  Uiso   1.00
H828   H     0.12849   0.22687   0.72118   0.00000  Uiso   1.00
H829   H     0.06385   0.07578   0.67080   0.00000  Uiso   1.00
H830   H     0.26972   0.25752   0.82935   0.00000  Uiso   1.00
H831   H     0.14873   0.05810   0.72558   0.00000  Uiso   1.00
H832   H     0.11322   0.32517   0.75914   0.00000  Uiso   1.00
H833   H     0.05969   0.32307   0.83633   0.00000  Uiso   1.00
H834   H     0.06786   0.20390   0.95728   0.00000  Uiso   1.00
H835   H     0.04335   0.05393   0.88086   0.00000  Uiso   1.00
H836   H     0.08135   0.11972   0.84821   0.00000  Uiso   1.00
H837   H     0.18654   0.27474   0.77551   0.00000  Uiso   1.00
H838   H     0.22124   0.00787   0.74169   0.00000  Uiso   1.00
H839   H     0.27211   0.01059   0.66342   0.00000  Uiso   1.00
H840   H     0.28610   0.28025   0.61799   0.00000  Uiso   1.00
H841   H     0.24831   0.21438   0.65105   0.00000  Uiso   1.00
H842   H     0.11468   0.15288   0.61359   0.00000  Uiso   1.00
H843   H     0.21769   0.17648   0.88625   0.00000  Uiso   1.00
H844   H     0.30634   0.18351   0.60434   0.00000  Uiso   1.00
H845   H     0.02822   0.15640   0.89569   0.00000  Uiso   1.00
H846   H     0.33323   0.14514   0.97618   0.00000  Uiso   1.00
H847   H     0.00256   0.19972   0.52487   0.00000  Uiso   1.00
H848   H     0.18652   0.15103   0.58326   0.00000  Uiso   1.00
N849   N     0.11736   0.16668   0.74999   0.00000  Uiso   1.00
N850   N     0.21597   0.16666   0.75001   0.00000  Uiso   1.00
O851   O     0.03958   0.10655   0.75000   0.00000  Uiso   1.00
O852   O     0.24056   0.31086   0.85462   0.00000  Uiso   1.00
O853   O     0.29375   0.22678   0.75000   0.00000  Uiso   1.00
O854   O     0.29372   0.10654   0.75000   0.00000  Uiso   1.00
O855   O     0.03961   0.22679   0.74999   0.00000  Uiso   1.00
O856   O     0.01852   0.16668   0.81491   0.00000  Uiso   1.00
O857   O     0.31481   0.16666   0.68508   0.00000  Uiso   1.00
O858   O     0.27267   0.16667   0.81492   0.00000  Uiso   1.00
O859   O     0.06067   0.16667   0.68508   0.00000  Uiso   1.00
O860   O     0.09318   0.02244   0.64571   0.00000  Uiso   1.00
C861   C     0.33401   0.08760   0.74934   0.00000  Uiso   1.00
C862   C     0.63632   0.02240   0.78463   0.00000  Uiso   1.00
C863   C     0.66527   0.29040   0.75112   0.00000  Uiso   1.00
C864   C     0.33477   0.04293   0.74895   0.00000  Uiso   1.00
C865   C     0.52210   0.13317   0.76572   0.00000  Uiso   1.00
C866   C     0.47787   0.20018   0.73434   0.00000  Uiso   1.00
C867   C     0.47306   0.13273   0.76572   0.00000  Uiso   1.00
C868   C     0.52685   0.20065   0.73446   0.00000  Uiso   1.00
C869   C     0.63948   0.16687   0.83607   0.00000  Uiso   1.00
C870   C     0.36055   0.16664   0.66392   0.00000  Uiso   1.00
C871   C     0.62418   0.16633   0.88547   0.00000  Uiso   1.00
C872   C     0.66599   0.24573   0.75069   0.00000  Uiso   1.00
C873   C     0.37616   0.16912   0.61454   0.00000  Uiso   1.00
C874   C     0.64072   0.15347   0.95742   0.00000  Uiso   1.00
C875   C     0.36117   0.18894   0.54337   0.00000  Uiso   1.00
C876   C     0.65693   0.15893   0.91116   0.00000  Uiso   1.00
C877   C     0.34421   0.18041   0.58906   0.00000  Uiso   1.00
C878   C     0.57525   0.17145   0.90709   0.00000  Uiso   1.00
C879   C     0.42502   0.16336   0.59303   0.00000  Uiso   1.00
C880   C     0.55815   0.16859   0.95415   0.00000  Uiso   1.00
C881   C     0.44325   0.17125   0.54663   0.00000  Uiso   1.00
C882   C     0.59176   0.15811   0.97908   0.00000  Uiso   1.00
C883   C     0.52810   0.15617   0.54753   0.00000  Uiso   1.00
C884   C     0.41018   0.18438   0.52196   0.00000  Uiso   1.00
C885   C     0.50864   0.17456   0.97691   0.00000  Uiso   1.00
C886   C     0.49313   0.16706   0.52423   0.00000  Uiso   1.00
C887   C     0.39806   0.04220   0.67453   0.00000  Uiso   1.00
C888   C     0.60220   0.29110   0.82568   0.00000  Uiso   1.00
C889   C     0.44820   0.09427   0.78387   0.00000  Uiso   1.00
C890   C     0.45856   0.05757   0.75928   0.00000  Uiso   1.00
C891   C     0.43877   0.01998   0.77827   0.00000  Uiso   1.00
C892   C     0.40865   0.01878   0.82182   0.00000  Uiso   1.00
C893   C     0.39917   0.05500   0.84679   0.00000  Uiso   1.00
C894   C     0.47432   0.18849   0.95404   0.00000  Uiso   1.00
C895   C     0.41965   0.09243   0.82809   0.00000  Uiso   1.00
C896   C     0.55159   0.23910   0.71628   0.00000  Uiso   1.00
C897   C     0.54225   0.27555   0.74135   0.00000  Uiso   1.00
C898   C     0.56157   0.31325   0.72221   0.00000  Uiso   1.00
C899   C     0.59017   0.31480   0.67804   0.00000  Uiso   1.00
C900   C     0.59838   0.27887   0.65258   0.00000  Uiso   1.00
C901   C     0.57825   0.24137   0.67145   0.00000  Uiso   1.00
C902   C     0.57634   0.15213   0.52533   0.00000  Uiso   1.00
C903   C     0.42617   0.19318   0.97622   0.00000  Uiso   1.00
C904   C     0.36538   0.02081   0.71363   0.00000  Uiso   1.00
C905   C     0.63475   0.31251   0.78651   0.00000  Uiso   1.00
C906   C     0.36375   0.31093   0.71548   0.00000  Uiso   1.00
Cu907  Cu    0.38022   0.16667   0.75000   0.00000  Uiso   1.00
Cu908  Cu    0.61978   0.16666   0.75000   0.00000  Uiso   1.00
H909   H     0.60179   0.14386   0.54462   0.00000  Uiso   1.00
H910   H     0.48344   0.19710   0.91895   0.00000  Uiso   1.00
H911   H     0.38679   0.29294   0.68876   0.00000  Uiso   1.00
H912   H     0.61329   0.04039   0.81134   0.00000  Uiso   1.00
H913   H     0.53813   0.10647   0.77888   0.00000  Uiso   1.00
H914   H     0.46183   0.22687   0.72118   0.00000  Uiso   1.00
H915   H     0.39718   0.07578   0.67080   0.00000  Uiso   1.00
H916   H     0.60305   0.25752   0.82935   0.00000  Uiso   1.00
H917   H     0.48207   0.05810   0.72558   0.00000  Uiso   1.00
H918   H     0.44655   0.32517   0.75914   0.00000  Uiso   1.00
H919   H     0.39302   0.32307   0.83633   0.00000  Uiso   1.00
H920   H     0.40119   0.20390   0.95728   0.00000  Uiso   1.00
H921   H     0.37668   0.05393   0.88086   0.00000  Uiso   1.00
H922   H     0.41468   0.11972   0.84821   0.00000  Uiso   1.00
H923   H     0.51987   0.27474   0.77551   0.00000  Uiso   1.00
H924   H     0.55458   0.00787   0.74169   0.00000  Uiso   1.00
H925   H     0.60545   0.01059   0.66342   0.00000  Uiso   1.00
H926   H     0.61943   0.28025   0.61799   0.00000  Uiso   1.00
H927   H     0.58164   0.21438   0.65105   0.00000  Uiso   1.00
H928   H     0.44801   0.15288   0.61359   0.00000  Uiso   1.00
H929   H     0.55102   0.17648   0.88625   0.00000  Uiso   1.00
H930   H     0.63968   0.18351   0.60434   0.00000  Uiso   1.00
H931   H     0.36156   0.15640   0.89569   0.00000  Uiso   1.00
H932   H     0.66656   0.14514   0.97618   0.00000  Uiso   1.00
H933   H     0.33589   0.19972   0.52487   0.00000  Uiso   1.00
H934   H     0.51985   0.15103   0.58326   0.00000  Uiso   1.00
N935   N     0.45069   0.16668   0.74999   0.00000  Uiso   1.00
N936   N     0.54931   0.16666   0.75001   0.00000  Uiso   1.00
O937   O     0.37291   0.10655   0.75000   0.00000  Uiso   1.00
O938   O     0.57389   0.31086   0.85462   0.00000  Uiso   1.00
O939   O     0.62709   0.22678   0.75000   0.00000  Uiso   1.00
O940   O     0.62706   0.10654   0.75000   0.00000  Uiso   1.00
O941   O     0.37294   0.22679   0.74999   0.00000  Uiso   1.00
O942   O     0.35186   0.16668   0.81491   0.00000  Uiso   1.00
O943   O     0.64814   0.16666   0.68508   0.00000  Uiso   1.00
O944   O     0.60600   0.16667   0.81492   0.00000  Uiso   1.00
O945   O     0.39400   0.16667   0.68508   0.00000  Uiso   1.00
O946   O     0.42651   0.02244   0.64571   0.00000  Uiso   1.00
C947   C     0.66735   0.08760   0.74934   0.00000  Uiso   1.00
C948   C     0.96966   0.02240   0.78463   0.00000  Uiso   1.00
C949   C     0.99860   0.29040   0.75112   0.00000  Uiso   1.00
C950   C     0.66810   0.04293   0.74895   0.00000  Uiso   1.00
C951   C     0.85543   0.13317   0.76572   0.00000  Uiso   1.00
C952   C     0.81120   0.20018   0.73434   0.00000  Uiso   1.00
C953   C     0.80639   0.13273   0.76572   0.00000  Uiso   1.00
C954   C     0.86018   0.20065   0.73446   0.00000  Uiso   1.00
C955   C     0.97282   0.16687   0.83607   0.00000  Uiso   1.00
C956   C     0.69389   0.16664   0.66392   0.00000  Uiso   1.00
C957   C     0.95751   0.16633   0.88547   0.00000  Uiso   1.00
C958   C     0.99932   0.24573   0.75069   0.00000  Uiso   1.00
C959   C     0.70949   0.16912   0.61454   0.00000  Uiso   1.00
C960   C     0.97405   0.15347   0.95742   0.00000  Uiso   1.00
C961   C     0.69450   0.18894   0.54337   0.00000  Uiso   1.00
C962   C     0.99027   0.15893   0.91116   0.00000  Uiso   1.00
C963   C     0.67754   0.18041   0.58906   0.00000  Uiso   1.00
C964   C     0.90858   0.17145   0.90709   0.00000  Uiso   1.00
C965   C     0.75835   0.16336   0.59303   0.00000  Uiso   1.00
C966   C     0.89148   0.16859   0.95415   0.00000  Uiso   1.00
C967   C     0.77658   0.17125   0.54663   0.00000  Uiso   1.00
C968   C     0.92510   0.15811   0.97908   0.00000  Uiso   1.00
C969   C     0.86143   0.15617   0.54753   0.00000  Uiso   1.00
C970   C     0.74351   0.18438   0.52196   0.00000  Uiso   1.00
C971   C     0.84197   0.17456   0.97691   0.00000  Uiso   1.00
C972   C     0.82646   0.16706   0.52423   0.00000  Uiso   1.00
C973   C     0.73139   0.04220   0.67453   0.00000  Uiso   1.00
C974   C     0.93553   0.29110   0.82568   0.00000  Uiso   1.00
C975   C     0.78153   0.09427   0.78387   0.00000  Uiso   1.00
C976   C     0.79190   0.05757   0.75928   0.00000  Uiso   1.00
C977   C     0.77211   0.01998   0.77827   0.00000  Uiso   1.00
C978   C     0.74198   0.01878   0.82182   0.00000  Uiso   1.00
C979   C     0.73250   0.05500   0.84679   0.00000  Uiso   1.00
C980   C     0.80765   0.18849   0.95404   0.00000  Uiso   1.00
C981   C     0.75298   0.09243   0.82809   0.00000  Uiso   1.00
C982   C     0.88493   0.23910   0.71628   0.00000  Uiso   1.00
C983   C     0.87558   0.27555   0.74135   0.00000  Uiso   1.00
C984   C     0.89490   0.31325   0.72221   0.00000  Uiso   1.00
C985   C     0.92350   0.31480   0.67804   0.00000  Uiso   1.00
C986   C     0.93171   0.27887   0.65258   0.00000  Uiso   1.00
C987   C     0.91159   0.24137   0.67145   0.00000  Uiso   1.00
C988   C     0.90968   0.15213   0.52533   0.00000  Uiso   1.00
C989   C     0.75951   0.19318   0.97622   0.00000  Uiso   1.00
C990   C     0.69871   0.02081   0.71363   0.00000  Uiso   1.00
C991   C     0.96808   0.31251   0.78651   0.00000  Uiso   1.00
C992   C     0.69709   0.31093   0.71548   0.00000  Uiso   1.00
Cu993  Cu    0.71355   0.16667   0.75000   0.00000  Uiso   1.00
Cu994  Cu    0.95311   0.16666   0.75000   0.00000  Uiso   1.00
H995   H     0.93512   0.14386   0.54462   0.00000  Uiso   1.00
H996   H     0.81677   0.19710   0.91895   0.00000  Uiso   1.00
H997   H     0.72012   0.29294   0.68876   0.00000  Uiso   1.00
H998   H     0.94663   0.04039   0.81134   0.00000  Uiso   1.00
H999   H     0.87147   0.10647   0.77888   0.00000  Uiso   1.00
H1000  H     0.79516   0.22687   0.72118   0.00000  Uiso   1.00
H1001  H     0.73052   0.07578   0.67080   0.00000  Uiso   1.00
H1002  H     0.93639   0.25752   0.82935   0.00000  Uiso   1.00
H1003  H     0.81540   0.05810   0.72558   0.00000  Uiso   1.00
H1004  H     0.77988   0.32517   0.75914   0.00000  Uiso   1.00
H1005  H     0.72636   0.32307   0.83633   0.00000  Uiso   1.00
H1006  H     0.73453   0.20390   0.95728   0.00000  Uiso   1.00
H1007  H     0.71002   0.05393   0.88086   0.00000  Uiso   1.00
H1008  H     0.74801   0.11972   0.84821   0.00000  Uiso   1.00
H1009  H     0.85320   0.27474   0.77551   0.00000  Uiso   1.00
H1010  H     0.88791   0.00787   0.74169   0.00000  Uiso   1.00
H1011  H     0.93878   0.01059   0.66342   0.00000  Uiso   1.00
H1012  H     0.95276   0.28025   0.61799   0.00000  Uiso   1.00
H1013  H     0.91498   0.21438   0.65105   0.00000  Uiso   1.00
H1014  H     0.78135   0.15288   0.61359   0.00000  Uiso   1.00
H1015  H     0.88436   0.17648   0.88625   0.00000  Uiso   1.00
H1016  H     0.97301   0.18351   0.60434   0.00000  Uiso   1.00
H1017  H     0.69489   0.15640   0.89569   0.00000  Uiso   1.00
H1018  H     0.99989   0.14514   0.97618   0.00000  Uiso   1.00
H1019  H     0.66922   0.19972   0.52487   0.00000  Uiso   1.00
H1020  H     0.85319   0.15103   0.58326   0.00000  Uiso   1.00
N1021  N     0.78403   0.16668   0.74999   0.00000  Uiso   1.00
N1022  N     0.88264   0.16666   0.75001   0.00000  Uiso   1.00
O1023  O     0.70625   0.10655   0.75000   0.00000  Uiso   1.00
O1024  O     0.90723   0.31086   0.85462   0.00000  Uiso   1.00
O1025  O     0.96042   0.22678   0.75000   0.00000  Uiso   1.00
O1026  O     0.96039   0.10654   0.75000   0.00000  Uiso   1.00
O1027  O     0.70628   0.22679   0.74999   0.00000  Uiso   1.00
O1028  O     0.68519   0.16668   0.81491   0.00000  Uiso   1.00
O1029  O     0.98148   0.16666   0.68508   0.00000  Uiso   1.00
O1030  O     0.93933   0.16667   0.81492   0.00000  Uiso   1.00
O1031  O     0.72733   0.16667   0.68508   0.00000  Uiso   1.00
O1032  O     0.75984   0.02244   0.64571   0.00000  Uiso   1.00
C1033  C     0.00068   0.42093   0.74934   0.00000  Uiso   1.00
C1034  C     0.30299   0.35573   0.78463   0.00000  Uiso   1.00
C1035  C     0.33193   0.62373   0.75112   0.00000  Uiso   1.00
C1036  C     0.00144   0.37626   0.74895   0.00000  Uiso   1.00
C1037  C     0.18876   0.46650   0.76572   0.00000  Uiso   1.00
C1038  C     0.14454   0.53351   0.73434   0.00000  Uiso   1.00
C1039  C     0.13973   0.46606   0.76572   0.00000  Uiso   1.00
C1040  C     0.19352   0.53398   0.73446   0.00000  Uiso   1.00
C1041  C     0.30615   0.50020   0.83607   0.00000  Uiso   1.00
C1042  C     0.02722   0.49997   0.66392   0.00000  Uiso   1.00
C1043  C     0.29084   0.49966   0.88547   0.00000  Uiso   1.00
C1044  C     0.33265   0.57907   0.75069   0.00000  Uiso   1.00
C1045  C     0.04282   0.50245   0.61454   0.00000  Uiso   1.00
C1046  C     0.30739   0.48680   0.95742   0.00000  Uiso   1.00
C1047  C     0.02784   0.52227   0.54337   0.00000  Uiso   1.00
C1048  C     0.32360   0.49226   0.91116   0.00000  Uiso   1.00
C1049  C     0.01087   0.51374   0.58906   0.00000  Uiso   1.00
C1050  C     0.24192   0.50478   0.90709   0.00000  Uiso   1.00
C1051  C     0.09169   0.49669   0.59303   0.00000  Uiso   1.00
C1052  C     0.22481   0.50193   0.95415   0.00000  Uiso   1.00
C1053  C     0.10991   0.50458   0.54663   0.00000  Uiso   1.00
C1054  C     0.25843   0.49144   0.97908   0.00000  Uiso   1.00
C1055  C     0.19477   0.48950   0.54753   0.00000  Uiso   1.00
C1056  C     0.07685   0.51771   0.52196   0.00000  Uiso   1.00
C1057  C     0.17531   0.50789   0.97691   0.00000  Uiso   1.00
C1058  C     0.15979   0.50039   0.52423   0.00000  Uiso   1.00
C1059  C     0.06473   0.37553   0.67453   0.00000  Uiso   1.00
C1060  C     0.26887   0.62444   0.82568   0.00000  Uiso   1.00
C1061  C     0.11487   0.42760   0.78387   0.00000  Uiso   1.00
C1062  C     0.12523   0.39090   0.75928   0.00000  Uiso   1.00
C1063  C     0.10544   0.35331   0.77827   0.00000  Uiso   1.00
C1064  C     0.07532   0.35211   0.82182   0.00000  Uiso   1.00
C1065  C     0.06583   0.38833   0.84679   0.00000  Uiso   1.00
C1066  C     0.14099   0.52182   0.95404   0.00000  Uiso   1.00
C1067  C     0.08631   0.42576   0.82809   0.00000  Uiso   1.00
C1068  C     0.21826   0.57244   0.71628   0.00000  Uiso   1.00
C1069  C     0.20892   0.60888   0.74135   0.00000  Uiso   1.00
C1070  C     0.22824   0.64658   0.72221   0.00000  Uiso   1.00
C1071  C     0.25684   0.64814   0.67804   0.00000  Uiso   1.00
C1072  C     0.26504   0.61220   0.65258   0.00000  Uiso   1.00
C1073  C     0.24492   0.57471   0.67145   0.00000  Uiso   1.00
C1074  C     0.24301   0.48546   0.52533   0.00000  Uiso   1.00
C1075  C     0.09284   0.52651   0.97622   0.00000  Uiso   1.00
C1076  C     0.03205   0.35415   0.71363   0.00000  Uiso   1.00
C1077  C     0.30142   0.64584   0.78651   0.00000  Uiso   1.00
C1078  C     0.03042   0.64426   0.71548   0.00000  Uiso   1.00
Cu1079 Cu    0.04689   0.50001   0.75000   0.00000  Uiso   1.00
Cu1080 Cu    0.28645   0.49999   0.75000   0.00000  Uiso   1.00
H1081  H     0.26846   0.47719   0.54462   0.00000  Uiso   1.00
H1082  H     0.15010   0.53044   0.91895   0.00000  Uiso   1.00
H1083  H     0.05346   0.62627   0.68876   0.00000  Uiso   1.00
H1084  H     0.27996   0.37372   0.81134   0.00000  Uiso   1.00
H1085  H     0.20480   0.43981   0.77888   0.00000  Uiso   1.00
H1086  H     0.12849   0.56020   0.72118   0.00000  Uiso   1.00
H1087  H     0.06385   0.40912   0.67080   0.00000  Uiso   1.00
H1088  H     0.26972   0.59085   0.82935   0.00000  Uiso   1.00
H1089  H     0.14873   0.39143   0.72558   0.00000  Uiso   1.00
H1090  H     0.11322   0.65851   0.75914   0.00000  Uiso   1.00
H1091  H     0.05969   0.65641   0.83633   0.00000  Uiso   1.00
H1092  H     0.06786   0.53723   0.95728   0.00000  Uiso   1.00
H1093  H     0.04335   0.38726   0.88086   0.00000  Uiso   1.00
H1094  H     0.08135   0.45305   0.84821   0.00000  Uiso   1.00
H1095  H     0.18654   0.60807   0.77551   0.00000  Uiso   1.00
H1096  H     0.22124   0.34120   0.74169   0.00000  Uiso   1.00
H1097  H     0.27211   0.34392   0.66342   0.00000  Uiso   1.00
H1098  H     0.28610   0.61358   0.61799   0.00000  Uiso   1.00
H1099  H     0.24831   0.54772   0.65105   0.00000  Uiso   1.00
H1100  H     0.11468   0.48621   0.61359   0.00000  Uiso   1.00
H1101  H     0.21769   0.50981   0.88625   0.00000  Uiso   1.00
H1102  H     0.30634   0.51684   0.60434   0.00000  Uiso   1.00
H1103  H     0.02822   0.48973   0.89569   0.00000  Uiso   1.00
H1104  H     0.33323   0.47847   0.97618   0.00000  Uiso   1.00
H1105  H     0.00256   0.53305   0.52487   0.00000  Uiso   1.00
H1106  H     0.18652   0.48437   0.58326   0.00000  Uiso   1.00
N1107  N     0.11736   0.50001   0.74999   0.00000  Uiso   1.00
N1108  N     0.21597   0.49999   0.75001   0.00000  Uiso   1.00
O1109  O     0.03958   0.43989   0.75000   0.00000  Uiso   1.00
O1110  O     0.24056   0.64419   0.85462   0.00000  Uiso   1.00
O1111  O     0.29375   0.56011   0.75000   0.00000  Uiso   1.00
O1112  O     0.29372   0.43988   0.75000   0.00000  Uiso   1.00
O1113  O     0.03961   0.56012   0.74999   0.00000  Uiso   1.00
O1114  O     0.01852   0.50001   0.81491   0.00000  Uiso   1.00
O1115  O     0.31481   0.49999   0.68508   0.00000  Uiso   1.00
O1116  O     0.27267   0.50000   0.81492   0.00000  Uiso   1.00
O1117  O     0.06067   0.50000   0.68508   0.00000  Uiso   1.00
O1118  O     0.09318   0.35577   0.64571   0.00000  Uiso   1.00
C1119  C     0.33401   0.42093   0.74934   0.00000  Uiso   1.00
C1120  C     0.63632   0.35573   0.78463   0.00000  Uiso   1.00
C1121  C     0.66527   0.62373   0.75112   0.00000  Uiso   1.00
C1122  C     0.33477   0.37626   0.74895   0.00000  Uiso   1.00
C1123  C     0.52210   0.46650   0.76572   0.00000  Uiso   1.00
C1124  C     0.47787   0.53351   0.73434   0.00000  Uiso   1.00
C1125  C     0.47306   0.46606   0.76572   0.00000  Uiso   1.00
C1126  C     0.52685   0.53398   0.73446   0.00000  Uiso   1.00
C1127  C     0.63948   0.50020   0.83607   0.00000  Uiso   1.00
C1128  C     0.36055   0.49997   0.66392   0.00000  Uiso   1.00
C1129  C     0.62418   0.49966   0.88547   0.00000  Uiso   1.00
C1130  C     0.66599   0.57907   0.75069   0.00000  Uiso   1.00
C1131  C     0.37616   0.50245   0.61454   0.00000  Uiso   1.00
C1132  C     0.64072   0.48680   0.95742   0.00000  Uiso   1.00
C1133  C     0.36117   0.52227   0.54337   0.00000  Uiso   1.00
C1134  C     0.65693   0.49226   0.91116   0.00000  Uiso   1.00
C1135  C     0.34421   0.51374   0.58906   0.00000  Uiso   1.00
C1136  C     0.57525   0.50478   0.90709   0.00000  Uiso   1.00
C1137  C     0.42502   0.49669   0.59303   0.00000  Uiso   1.00
C1138  C     0.55815   0.50193   0.95415   0.00000  Uiso   1.00
C1139  C     0.44325   0.50458   0.54663   0.00000  Uiso   1.00
C1140  C     0.59176   0.49144   0.97908   0.00000  Uiso   1.00
C1141  C     0.52810   0.48950   0.54753   0.00000  Uiso   1.00
C1142  C     0.41018   0.51771   0.52196   0.00000  Uiso   1.00
C1143  C     0.50864   0.50789   0.97691   0.00000  Uiso   1.00
C1144  C     0.49313   0.50039   0.52423   0.00000  Uiso   1.00
C1145  C     0.39806   0.37553   0.67453   0.00000  Uiso   1.00
C1146  C     0.60220   0.62444   0.82568   0.00000  Uiso   1.00
C1147  C     0.44820   0.42760   0.78387   0.00000  Uiso   1.00
C1148  C     0.45856   0.39090   0.75928   0.00000  Uiso   1.00
C1149  C     0.43877   0.35331   0.77827   0.00000  Uiso   1.00
C1150  C     0.40865   0.35211   0.82182   0.00000  Uiso   1.00
C1151  C     0.39917   0.38833   0.84679   0.00000  Uiso   1.00
C1152  C     0.47432   0.52182   0.95404   0.00000  Uiso   1.00
C1153  C     0.41965   0.42576   0.82809   0.00000  Uiso   1.00
C1154  C     0.55159   0.57244   0.71628   0.00000  Uiso   1.00
C1155  C     0.54225   0.60888   0.74135   0.00000  Uiso   1.00
C1156  C     0.56157   0.64658   0.72221   0.00000  Uiso   1.00
C1157  C     0.59017   0.64814   0.67804   0.00000  Uiso   1.00
C1158  C     0.59838   0.61220   0.65258   0.00000  Uiso   1.00
C1159  C     0.57825   0.57471   0.67145   0.00000  Uiso   1.00
C1160  C     0.57634   0.48546   0.52533   0.00000  Uiso   1.00
C1161  C     0.42617   0.52651   0.97622   0.00000  Uiso   1.00
C1162  C     0.36538   0.35415   0.71363   0.00000  Uiso   1.00
C1163  C     0.63475   0.64584   0.78651   0.00000  Uiso   1.00
C1164  C     0.36375   0.64426   0.71548   0.00000  Uiso   1.00
Cu1165 Cu    0.38022   0.50001   0.75000   0.00000  Uiso   1.00
Cu1166 Cu    0.61978   0.49999   0.75000   0.00000  Uiso   1.00
H1167  H     0.60179   0.47719   0.54462   0.00000  Uiso   1.00
H1168  H     0.48344   0.53044   0.91895   0.00000  Uiso   1.00
H1169  H     0.38679   0.62627   0.68876   0.00000  Uiso   1.00
H1170  H     0.61329   0.37372   0.81134   0.00000  Uiso   1.00
H1171  H     0.53813   0.43981   0.77888   0.00000  Uiso   1.00
H1172  H     0.46183   0.56020   0.72118   0.00000  Uiso   1.00
H1173  H     0.39718   0.40912   0.67080   0.00000  Uiso   1.00
H1174  H     0.60305   0.59085   0.82935   0.00000  Uiso   1.00
H1175  H     0.48207   0.39143   0.72558   0.00000  Uiso   1.00
H1176  H     0.44655   0.65851   0.75914   0.00000  Uiso   1.00
H1177  H     0.39302   0.65641   0.83633   0.00000  Uiso   1.00
H1178  H     0.40119   0.53723   0.95728   0.00000  Uiso   1.00
H1179  H     0.37668   0.38726   0.88086   0.00000  Uiso   1.00
H1180  H     0.41468   0.45305   0.84821   0.00000  Uiso   1.00
H1181  H     0.51987   0.60807   0.77551   0.00000  Uiso   1.00
H1182  H     0.55458   0.34120   0.74169   0.00000  Uiso   1.00
H1183  H     0.60545   0.34392   0.66342   0.00000  Uiso   1.00
H1184  H     0.61943   0.61358   0.61799   0.00000  Uiso   1.00
H1185  H     0.58164   0.54772   0.65105   0.00000  Uiso   1.00
H1186  H     0.44801   0.48621   0.61359   0.00000  Uiso   1.00
H1187  H     0.55102   0.50981   0.88625   0.00000  Uiso   1.00
H1188  H     0.63968   0.51684   0.60434   0.00000  Uiso   1.00
H1189  H     0.36156   0.48973   0.89569   0.00000  Uiso   1.00
H1190  H     0.66656   0.47847   0.97618   0.00000  Uiso   1.00
H1191  H     0.33589   0.53305   0.52487   0.00000  Uiso   1.00
H1192  H     0.51985   0.48437   0.58326   0.00000  Uiso   1.00
N1193  N     0.45069   0.50001   0.74999   0.00000  Uiso   1.00
N1194  N     0.54931   0.49999   0.75001   0.00000  Uiso   1.00
O1195  O     0.37291   0.43989   0.75000   0.00000  Uiso   1.00
O1196  O     0.57389   0.64419   0.85462   0.00000  Uiso   1.00
O1197  O     0.62709   0.56011   0.75000   0.00000  Uiso   1.00
O1198  O     0.62706   0.43988   0.75000   0.00000  Uiso   1.00
O1199  O     0.37294   0.56012   0.74999   0.00000  Uiso   1.00
O1200  O     0.35186   0.50001   0.81491   0.00000  Uiso   1.00
O1201  O     0.64814   0.49999   0.68508   0.00000  Uiso   1.00
O1202  O     0.60600   0.50000   0.81492   0.00000  Uiso   1.00
O1203  O     0.39400   0.50000   0.68508   0.00000  Uiso   1.00
O1204  O     0.42651   0.35577   0.64571   0.00000  Uiso   1.00
C1205  C     0.66735   0.42093   0.74934   0.00000  Uiso   1.00
C1206  C     0.96966   0.35573   0.78463   0.00000  Uiso   1.00
C1207  C     0.99860   0.62373   0.75112   0.00000  Uiso   1.00
C1208  C     0.66810   0.37626   0.74895   0.00000  Uiso   1.00
C1209  C     0.85543   0.46650   0.76572   0.00000  Uiso   1.00
C1210  C     0.81120   0.53351   0.73434   0.00000  Uiso   1.00
C1211  C     0.80639   0.46606   0.76572   0.00000  Uiso   1.00
C1212  C     0.86018   0.53398   0.73446   0.00000  Uiso   1.00
C1213  C     0.97282   0.50020   0.83607   0.00000  Uiso   1.00
C1214  C     0.69389   0.49997   0.66392   0.00000  Uiso   1.00
C1215  C     0.95751   0.49966   0.88547   0.00000  Uiso   1.00
C1216  C     0.99932   0.57907   0.75069   0.00000  Uiso   1.00
C1217  C     0.70949   0.50245   0.61454   0.00000  Uiso   1.00
C1218  C     0.97405   0.48680   0.95742   0.00000  Uiso   1.00
C1219  C     0.69450   0.52227   0.54337   0.00000  Uiso   1.00
C1220  C     0.99027   0.49226   0.91116   0.00000  Uiso   1.00
C1221  C     0.67754   0.51374   0.58906   0.00000  Uiso   1.00
C1222  C     0.90858   0.50478   0.90709   0.00000  Uiso   1.00
C1223  C     0.75835   0.49669   0.59303   0.00000  Uiso   1.00
C1224  C     0.89148   0.50193   0.95415   0.00000  Uiso   1.00
C1225  C     0.77658   0.50458   0.54663   0.00000  Uiso   1.00
C1226  C     0.92510   0.49144   0.97908   0.00000  Uiso   1.00
C1227  C     0.86143   0.48950   0.54753   0.00000  Uiso   1.00
C1228  C     0.74351   0.51771   0.52196   0.00000  Uiso   1.00
C1229  C     0.84197   0.50789   0.97691   0.00000  Uiso   1.00
C1230  C     0.82646   0.50039   0.52423   0.00000  Uiso   1.00
C1231  C     0.73139   0.37553   0.67453   0.00000  Uiso   1.00
C1232  C     0.93553   0.62444   0.82568   0.00000  Uiso   1.00
C1233  C     0.78153   0.42760   0.78387   0.00000  Uiso   1.00
C1234  C     0.79190   0.39090   0.75928   0.00000  Uiso   1.00
C1235  C     0.77211   0.35331   0.77827   0.00000  Uiso   1.00
C1236  C     0.74198   0.35211   0.82182   0.00000  Uiso   1.00
C1237  C     0.73250   0.38833   0.84679   0.00000  Uiso   1.00
C1238  C     0.80765   0.52182   0.95404   0.00000  Uiso   1.00
C1239  C     0.75298   0.42576   0.82809   0.00000  Uiso   1.00
C1240  C     0.88493   0.57244   0.71628   0.00000  Uiso   1.00
C1241  C     0.87558   0.60888   0.74135   0.00000  Uiso   1.00
C1242  C     0.89490   0.64658   0.72221   0.00000  Uiso   1.00
C1243  C     0.92350   0.64814   0.67804   0.00000  Uiso   1.00
C1244  C     0.93171   0.61220   0.65258   0.00000  Uiso   1.00
C1245  C     0.91159   0.57471   0.67145   0.00000  Uiso   1.00
C1246  C     0.90968   0.48546   0.52533   0.00000  Uiso   1.00
C1247  C     0.75951   0.52651   0.97622   0.00000  Uiso   1.00
C1248  C     0.69871   0.35415   0.71363   0.00000  Uiso   1.00
C1249  C     0.96808   0.64584   0.78651   0.00000  Uiso   1.00
C1250  C     0.69709   0.64426   0.71548   0.00000  Uiso   1.00
Cu1251 Cu    0.71355   0.50001   0.75000   0.00000  Uiso   1.00
Cu1252 Cu    0.95311   0.49999   0.75000   0.00000  Uiso   1.00
H1253  H     0.93512   0.47719   0.54462   0.00000  Uiso   1.00
H1254  H     0.81677   0.53044   0.91895   0.00000  Uiso   1.00
H1255  H     0.72012   0.62627   0.68876   0.00000  Uiso   1.00
H1256  H     0.94663   0.37372   0.81134   0.00000  Uiso   1.00
H1257  H     0.87147   0.43981   0.77888   0.00000  Uiso   1.00
H1258  H     0.79516   0.56020   0.72118   0.00000  Uiso   1.00
H1259  H     0.73052   0.40912   0.67080   0.00000  Uiso   1.00
H1260  H     0.93639   0.59085   0.82935   0.00000  Uiso   1.00
H1261  H     0.81540   0.39143   0.72558   0.00000  Uiso   1.00
H1262  H     0.77988   0.65851   0.75914   0.00000  Uiso   1.00
H1263  H     0.72636   0.65641   0.83633   0.00000  Uiso   1.00
H1264  H     0.73453   0.53723   0.95728   0.00000  Uiso   1.00
H1265  H     0.71002   0.38726   0.88086   0.00000  Uiso   1.00
H1266  H     0.74801   0.45305   0.84821   0.00000  Uiso   1.00
H1267  H     0.85320   0.60807   0.77551   0.00000  Uiso   1.00
H1268  H     0.88791   0.34120   0.74169   0.00000  Uiso   1.00
H1269  H     0.93878   0.34392   0.66342   0.00000  Uiso   1.00
H1270  H     0.95276   0.61358   0.61799   0.00000  Uiso   1.00
H1271  H     0.91498   0.54772   0.65105   0.00000  Uiso   1.00
H1272  H     0.78135   0.48621   0.61359   0.00000  Uiso   1.00
H1273  H     0.88436   0.50981   0.88625   0.00000  Uiso   1.00
H1274  H     0.97301   0.51684   0.60434   0.00000  Uiso   1.00
H1275  H     0.69489   0.48973   0.89569   0.00000  Uiso   1.00
H1276  H     0.99989   0.47847   0.97618   0.00000  Uiso   1.00
H1277  H     0.66922   0.53305   0.52487   0.00000  Uiso   1.00
H1278  H     0.85319   0.48437   0.58326   0.00000  Uiso   1.00
N1279  N     0.78403   0.50001   0.74999   0.00000  Uiso   1.00
N1280  N     0.88264   0.49999   0.75001   0.00000  Uiso   1.00
O1281  O     0.70625   0.43989   0.75000   0.00000  Uiso   1.00
O1282  O     0.90723   0.64419   0.85462   0.00000  Uiso   1.00
O1283  O     0.96042   0.56011   0.75000   0.00000  Uiso   1.00
O1284  O     0.96039   0.43988   0.75000   0.00000  Uiso   1.00
O1285  O     0.70628   0.56012   0.74999   0.00000  Uiso   1.00
O1286  O     0.68519   0.50001   0.81491   0.00000  Uiso   1.00
O1287  O     0.98148   0.49999   0.68508   0.00000  Uiso   1.00
O1288  O     0.93933   0.50000   0.81492   0.00000  Uiso   1.00
O1289  O     0.72733   0.50000   0.68508   0.00000  Uiso   1.00
O1290  O     0.75984   0.35577   0.64571   0.00000  Uiso   1.00
C1291  C     0.00068   0.75426   0.74934   0.00000  Uiso   1.00
C1292  C     0.30299   0.68906   0.78463   0.00000  Uiso   1.00
C1293  C     0.33193   0.95707   0.75112   0.00000  Uiso   1.00
C1294  C     0.00144   0.70959   0.74895   0.00000  Uiso   1.00
C1295  C     0.18876   0.79983   0.76572   0.00000  Uiso   1.00
C1296  C     0.14454   0.86684   0.73434   0.00000  Uiso   1.00
C1297  C     0.13973   0.79939   0.76572   0.00000  Uiso   1.00
C1298  C     0.19352   0.86731   0.73446   0.00000  Uiso   1.00
C1299  C     0.30615   0.83353   0.83607   0.00000  Uiso   1.00
C1300  C     0.02722   0.83330   0.66392   0.00000  Uiso   1.00
C1301  C     0.29084   0.83299   0.88547   0.00000  Uiso   1.00
C1302  C     0.33265   0.91240   0.75069   0.00000  Uiso   1.00
C1303  C     0.04282   0.83578   0.61454   0.00000  Uiso   1.00
C1304  C     0.30739   0.82014   0.95742   0.00000  Uiso   1.00
C1305  C     0.02784   0.85561   0.54337   0.00000  Uiso   1.00
C1306  C     0.32360   0.82560   0.91116   0.00000  Uiso   1.00
C1307  C     0.01087   0.84708   0.58906   0.00000  Uiso   1.00
C1308  C     0.24192   0.83812   0.90709   0.00000  Uiso   1.00
C1309  C     0.09169   0.83002   0.59303   0.00000  Uiso   1.00
C1310  C     0.22481   0.83526   0.95415   0.00000  Uiso   1.00
C1311  C     0.10991   0.83791   0.54663   0.00000  Uiso   1.00
C1312  C     0.25843   0.82477   0.97908   0.00000  Uiso   1.00
C1313  C     0.19477   0.82283   0.54753   0.00000  Uiso   1.00
C1314  C     0.07685   0.85105   0.52196   0.00000  Uiso   1.00
C1315  C     0.17531   0.84123   0.97691   0.00000  Uiso   1.00
C1316  C     0.15979   0.83372   0.52423   0.00000  Uiso   1.00
C1317  C     0.06473   0.70887   0.67453   0.00000  Uiso   1.00
C1318  C     0.26887   0.95777   0.82568   0.00000  Uiso   1.00
C1319  C     0.11487   0.76093   0.78387   0.00000  Uiso   1.00
C1320  C     0.12523   0.72423   0.75928   0.00000  Uiso   1.00
C1321  C     0.10544   0.68664   0.77827   0.00000  Uiso   1.00
C1322  C     0.07532   0.68544   0.82182   0.00000  Uiso   1.00
C1323  C     0.06583   0.72166   0.84679   0.00000  Uiso   1.00
C1324  C     0.14099   0.85515   0.95404   0.00000  Uiso   1.00
C1325  C     0.08631   0.75909   0.82809   0.00000  Uiso   1.00
C1326  C     0.21826   0.90577   0.71628   0.00000  Uiso   1.00
C1327  C     0.20892   0.94221   0.74135   0.00000  Uiso   1.00
C1328  C     0.22824   0.97992   0.72221   0.00000  Uiso   1.00
C1329  C     0.25684   0.98147   0.67804   0.00000  Uiso   1.00
C1330  C     0.26504   0.94554   0.65258   0.00000  Uiso   1.00
C1331  C     0.24492   0.90804   0.67145   0.00000  Uiso   1.00
C1332  C     0.24301   0.81880   0.52533   0.00000  Uiso   1.00
C1333  C     0.09284   0.85985   0.97622   0.00000  Uiso   1.00
C1334  C     0.03205   0.68748   0.71363   0.00000  Uiso   1.00
C1335  C     0.30142   0.97917   0.78651   0.00000  Uiso   1.00
C1336  C     0.03042   0.97760   0.71548   0.00000  Uiso   1.00
Cu1337 Cu    0.04689   0.83334   0.75000   0.00000  Uiso   1.00
Cu1338 Cu    0.28645   0.83333   0.75000   0.00000  Uiso   1.00
H1339  H     0.26846   0.81053   0.54462   0.00000  Uiso   1.00
H1340  H     0.15010   0.86377   0.91895   0.00000  Uiso   1.00
H1341  H     0.05346   0.95961   0.68876   0.00000  Uiso   1.00
H1342  H     0.27996   0.70705   0.81134   0.00000  Uiso   1.00
H1343  H     0.20480   0.77314   0.77888   0.00000  Uiso   1.00
H1344  H     0.12849   0.89353   0.72118   0.00000  Uiso   1.00
H1345  H     0.06385   0.74245   0.67080   0.00000  Uiso   1.00
H1346  H     0.26972   0.92419   0.82935   0.00000  Uiso   1.00
H1347  H     0.14873   0.72477   0.72558   0.00000  Uiso   1.00
H1348  H     0.11322   0.99184   0.75914   0.00000  Uiso   1.00
H1349  H     0.05969   0.98974   0.83633   0.00000  Uiso   1.00
H1350  H     0.06786   0.87057   0.95728   0.00000  Uiso   1.00
H1351  H     0.04335   0.72060   0.88086   0.00000  Uiso   1.00
H1352  H     0.08135   0.78638   0.84821   0.00000  Uiso   1.00
H1353  H     0.18654   0.94140   0.77551   0.00000  Uiso   1.00
H1354  H     0.22124   0.67454   0.74169   0.00000  Uiso   1.00
H1355  H     0.27211   0.67725   0.66342   0.00000  Uiso   1.00
H1356  H     0.28610   0.94692   0.61799   0.00000  Uiso   1.00
H1357  H     0.24831   0.88105   0.65105   0.00000  Uiso   1.00
H1358  H     0.11468   0.81955   0.61359   0.00000  Uiso   1.00
H1359  H     0.21769   0.84315   0.88625   0.00000  Uiso   1.00
H1360  H     0.30634   0.85018   0.60434   0.00000  Uiso   1.00
H1361  H     0.02822   0.82306   0.89569   0.00000  Uiso   1.00
H1362  H     0.33323   0.81181   0.97618   0.00000  Uiso   1.00
H1363  H     0.00256   0.86638   0.52487   0.00000  Uiso   1.00
H1364  H     0.18652   0.81770   0.58326   0.00000  Uiso   1.00
N1365  N     0.11736   0.83334   0.74999   0.00000  Uiso   1.00
N1366  N     0.21597   0.83332   0.75001   0.00000  Uiso   1.00
O1367  O     0.03958   0.77322   0.75000   0.00000  Uiso   1.00
O1368  O     0.24056   0.97752   0.85462   0.00000  Uiso   1.00
O1369  O     0.29375   0.89345   0.75000   0.00000  Uiso   1.00
O1370  O     0.29372   0.77321   0.75000   0.00000  Uiso   1.00
O1371  O     0.03961   0.89346   0.74999   0.00000  Uiso   1.00
O1372  O     0.01852   0.83334   0.81491   0.00000  Uiso   1.00
O1373  O     0.31481   0.83332   0.68508   0.00000  Uiso   1.00
O1374  O     0.27267   0.83333   0.81492   0.00000  Uiso   1.00
O1375  O     0.06067   0.83333   0.68508   0.00000  Uiso   1.00
O1376  O     0.09318   0.68911   0.64571   0.00000  Uiso   1.00
C1377  C     0.33401   0.75426   0.74934   0.00000  Uiso   1.00
C1378  C     0.63632   0.68906   0.78463   0.00000  Uiso   1.00
C1379  C     0.66527   0.95707   0.75112   0.00000  Uiso   1.00
C1380  C     0.33477   0.70959   0.74895   0.00000  Uiso   1.00
C1381  C     0.52210   0.79983   0.76572   0.00000  Uiso   1.00
C1382  C     0.47787   0.86684   0.73434   0.00000  Uiso   1.00
C1383  C     0.47306   0.79939   0.76572   0.00000  Uiso   1.00
C1384  C     0.52685   0.86731   0.73446   0.00000  Uiso   1.00
C1385  C     0.63948   0.83353   0.83607   0.00000  Uiso   1.00
C1386  C     0.36055   0.83330   0.66392   0.00000  Uiso   1.00
C1387  C     0.62418   0.83299   0.88547   0.00000  Uiso   1.00
C1388  C     0.66599   0.91240   0.75069   0.00000  Uiso   1.00
C1389  C     0.37616   0.83578   0.61454   0.00000  Uiso   1.00
C1390  C     0.64072   0.82014   0.95742   0.00000  Uiso   1.00
C1391  C     0.36117   0.85561   0.54337   0.00000  Uiso   1.00
C1392  C     0.65693   0.82560   0.91116   0.00000  Uiso   1.00
C1393  C     0.34421   0.84708   0.58906   0.00000  Uiso   1.00
C1394  C     0.57525   0.83812   0.90709   0.00000  Uiso   1.00
C1395  C     0.42502   0.83002   0.59303   0.00000  Uiso   1.00
C1396  C     0.55815   0.83526   0.95415   0.00000  Uiso   1.00
C1397  C     0.44325   0.83791   0.54663   0.00000  Uiso   1.00
C1398  C     0.59176   0.82477   0.97908   0.00000  Uiso   1.00
C1399  C     0.52810   0.82283   0.54753   0.00000  Uiso   1.00
C1400  C     0.41018   0.85105   0.52196   0.00000  Uiso   1.00
C1401  C     0.50864   0.84123   0.97691   0.00000  Uiso   1.00
C1402  C     0.49313   0.83372   0.52423   0.00000  Uiso   1.00
C1403  C     0.39806   0.70887   0.67453   0.00000  Uiso   1.00
C1404  C     0.60220   0.95777   0.82568   0.00000  Uiso   1.00
C1405  C     0.44820   0.76093   0.78387   0.00000  Uiso   1.00
C1406  C     0.45856   0.72423   0.75928   0.00000  Uiso   1.00
C1407  C     0.43877   0.68664   0.77827   0.00000  Uiso   1.00
C1408  C     0.40865   0.68544   0.82182   0.00000  Uiso   1.00
C1409  C     0.39917   0.72166   0.84679   0.00000  Uiso   1.00
C1410  C     0.47432   0.85515   0.95404   0.00000  Uiso   1.00
C1411  C     0.41965   0.75909   0.82809   0.00000  Uiso   1.00
C1412  C     0.55159   0.90577   0.71628   0.00000  Uiso   1.00
C1413  C     0.54225   0.94221   0.74135   0.00000  Uiso   1.00
C1414  C     0.56157   0.97992   0.72221   0.00000  Uiso   1.00
C1415  C     0.59017   0.98147   0.67804   0.00000  Uiso   1.00
C1416  C     0.59838   0.94554   0.65258   0.00000  Uiso   1.00
C1417  C     0.57825   0.90804   0.67145   0.00000  Uiso   1.00
C1418  C     0.57634   0.81880   0.52533   0.00000  Uiso   1.00
C1419  C     0.42617   0.85985   0.97622   0.00000  Uiso   1.00
C1420  C     0.36538   0.68748   0.71363   0.00000  Uiso   1.00
C1421  C     0.63475   0.97917   0.78651   0.00000  Uiso   1.00
C1422  C     0.36375   0.97760   0.71548   0.00000  Uiso   1.00
Cu1423 Cu    0.38022   0.83334   0.75000   0.00000  Uiso   1.00
Cu1424 Cu    0.61978   0.83333   0.75000   0.00000  Uiso   1.00
H1425  H     0.60179   0.81053   0.54462   0.00000  Uiso   1.00
H1426  H     0.48344   0.86377   0.91895   0.00000  Uiso   1.00
H1427  H     0.38679   0.95961   0.68876   0.00000  Uiso   1.00
H1428  H     0.61329   0.70705   0.81134   0.00000  Uiso   1.00
H1429  H     0.53813   0.77314   0.77888   0.00000  Uiso   1.00
H1430  H     0.46183   0.89353   0.72118   0.00000  Uiso   1.00
H1431  H     0.39718   0.74245   0.67080   0.00000  Uiso   1.00
H1432  H     0.60305   0.92419   0.82935   0.00000  Uiso   1.00
H1433  H     0.48207   0.72477   0.72558   0.00000  Uiso   1.00
H1434  H     0.44655   0.99184   0.75914   0.00000  Uiso   1.00
H1435  H     0.39302   0.98974   0.83633   0.00000  Uiso   1.00
H1436  H     0.40119   0.87057   0.95728   0.00000  Uiso   1.00
H1437  H     0.37668   0.72060   0.88086   0.00000  Uiso   1.00
H1438  H     0.41468   0.78638   0.84821   0.00000  Uiso   1.00
H1439  H     0.51987   0.94140   0.77551   0.00000  Uiso   1.00
H1440  H     0.55458   0.67454   0.74169   0.00000  Uiso   1.00
H1441  H     0.60545   0.67725   0.66342   0.00000  Uiso   1.00
H1442  H     0.61943   0.94692   0.61799   0.00000  Uiso   1.00
H1443  H     0.58164   0.88105   0.65105   0.00000  Uiso   1.00
H1444  H     0.44801   0.81955   0.61359   0.00000  Uiso   1.00
H1445  H     0.55102   0.84315   0.88625   0.00000  Uiso   1.00
H1446  H     0.63968   0.85018   0.60434   0.00000  Uiso   1.00
H1447  H     0.36156   0.82306   0.89569   0.00000  Uiso   1.00
H1448  H     0.66656   0.81181   0.97618   0.00000  Uiso   1.00
H1449  H     0.33589   0.86638   0.52487   0.00000  Uiso   1.00
H1450  H     0.51985   0.81770   0.58326   0.00000  Uiso   1.00
N1451  N     0.45069   0.83334   0.74999   0.00000  Uiso   1.00
N1452  N     0.54931   0.83332   0.75001   0.00000  Uiso   1.00
O1453  O     0.37291   0.77322   0.75000   0.00000  Uiso   1.00
O1454  O     0.57389   0.97752   0.85462   0.00000  Uiso   1.00
O1455  O     0.62709   0.89345   0.75000   0.00000  Uiso   1.00
O1456  O     0.62706   0.77321   0.75000   0.00000  Uiso   1.00
O1457  O     0.37294   0.89346   0.74999   0.00000  Uiso   1.00
O1458  O     0.35186   0.83334   0.81491   0.00000  Uiso   1.00
O1459  O     0.64814   0.83332   0.68508   0.00000  Uiso   1.00
O1460  O     0.60600   0.83333   0.81492   0.00000  Uiso   1.00
O1461  O     0.39400   0.83333   0.68508   0.00000  Uiso   1.00
O1462  O     0.42651   0.68911   0.64571   0.00000  Uiso   1.00
C1463  C     0.66735   0.75426   0.74934   0.00000  Uiso   1.00
C1464  C     0.96966   0.68906   0.78463   0.00000  Uiso   1.00
C1465  C     0.99860   0.95707   0.75112   0.00000  Uiso   1.00
C1466  C     0.66810   0.70959   0.74895   0.00000  Uiso   1.00
C1467  C     0.85543   0.79983   0.76572   0.00000  Uiso   1.00
C1468  C     0.81120   0.86684   0.73434   0.00000  Uiso   1.00
C1469  C     0.80639   0.79939   0.76572   0.00000  Uiso   1.00
C1470  C     0.86018   0.86731   0.73446   0.00000  Uiso   1.00
C1471  C     0.97282   0.83353   0.83607   0.00000  Uiso   1.00
C1472  C     0.69389   0.83330   0.66392   0.00000  Uiso   1.00
C1473  C     0.95751   0.83299   0.88547   0.00000  Uiso   1.00
C1474  C     0.99932   0.91240   0.75069   0.00000  Uiso   1.00
C1475  C     0.70949   0.83578   0.61454   0.00000  Uiso   1.00
C1476  C     0.97405   0.82014   0.95742   0.00000  Uiso   1.00
C1477  C     0.69450   0.85561   0.54337   0.00000  Uiso   1.00
C1478  C     0.99027   0.82560   0.91116   0.00000  Uiso   1.00
C1479  C     0.67754   0.84708   0.58906   0.00000  Uiso   1.00
C1480  C     0.90858   0.83812   0.90709   0.00000  Uiso   1.00
C1481  C     0.75835   0.83002   0.59303   0.00000  Uiso   1.00
C1482  C     0.89148   0.83526   0.95415   0.00000  Uiso   1.00
C1483  C     0.77658   0.83791   0.54663   0.00000  Uiso   1.00
C1484  C     0.92510   0.82477   0.97908   0.00000  Uiso   1.00
C1485  C     0.86143   0.82283   0.54753   0.00000  Uiso   1.00
C1486  C     0.74351   0.85105   0.52196   0.00000  Uiso   1.00
C1487  C     0.84197   0.84123   0.97691   0.00000  Uiso   1.00
C1488  C     0.82646   0.83372   0.52423   0.00000  Uiso   1.00
C1489  C     0.73139   0.70887   0.67453   0.00000  Uiso   1.00
C1490  C     0.93553   0.95777   0.82568   0.00000  Uiso   1.00
C1491  C     0.78153   0.76093   0.78387   0.00000  Uiso   1.00
C1492  C     0.79190   0.72423   0.75928   0.00000  Uiso   1.00
C1493  C     0.77211   0.68664   0.77827   0.00000  Uiso   1.00
C1494  C     0.74198   0.68544   0.82182   0.00000  Uiso   1.00
C1495  C     0.73250   0.72166   0.84679   0.00000  Uiso   1.00
C1496  C     0.80765   0.85515   0.95404   0.00000  Uiso   1.00
C1497  C     0.75298   0.75909   0.82809   0.00000  Uiso   1.00
C1498  C     0.88493   0.90577   0.71628   0.00000  Uiso   1.00
C1499  C     0.87558   0.94221   0.74135   0.00000  Uiso   1.00
C1500  C     0.89490   0.97992   0.72221   0.00000  Uiso   1.00
C1501  C     0.92350   0.98147   0.67804   0.00000  Uiso   1.00
C1502  C     0.93171   0.94554   0.65258   0.00000  Uiso   1.00
C1503  C     0.91159   0.90804   0.67145   0.00000  Uiso   1.00
C1504  C     0.90968   0.81880   0.52533   0.00000  Uiso   1.00
C1505  C     0.75951   0.85985   0.97622   0.00000  Uiso   1.00
C1506  C     0.69871   0.68748   0.71363   0.00000  Uiso   1.00
C1507  C     0.96808   0.97917   0.78651   0.00000  Uiso   1.00
C1508  C     0.69709   0.97760   0.71548   0.00000  Uiso   1.00
Cu1509 Cu    0.71355   0.83334   0.75000   0.00000  Uiso   1.00
Cu1510 Cu    0.95311   0.83333   0.75000   0.00000  Uiso   1.00
H1511  H     0.93512   0.81053   0.54462   0.00000  Uiso   1.00
H1512  H     0.81677   0.86377   0.91895   0.00000  Uiso   1.00
H1513  H     0.72012   0.95961   0.68876   0.00000  Uiso   1.00
H1514  H     0.94663   0.70705   0.81134   0.00000  Uiso   1.00
H1515  H     0.87147   0.77314   0.77888   0.00000  Uiso   1.00
H1516  H     0.79516   0.89353   0.72118   0.00000  Uiso   1.00
H1517  H     0.73052   0.74245   0.67080   0.00000  Uiso   1.00
H1518  H     0.93639   0.92419   0.82935   0.00000  Uiso   1.00
H1519  H     0.81540   0.72477   0.72558   0.00000  Uiso   1.00
H1520  H     0.77988   0.99184   0.75914   0.00000  Uiso   1.00
H1521  H     0.72636   0.98974   0.83633   0.00000  Uiso   1.00
H1522  H     0.73453   0.87057   0.95728   0.00000  Uiso   1.00
H1523  H     0.71002   0.72060   0.88086   0.00000  Uiso   1.00
H1524  H     0.74801   0.78638   0.84821   0.00000  Uiso   1.00
H1525  H     0.85320   0.94140   0.77551   0.00000  Uiso   1.00
H1526  H     0.88791   0.67454   0.74169   0.00000  Uiso   1.00
H1527  H     0.93878   0.67725   0.66342   0.00000  Uiso   1.00
H1528  H     0.95276   0.94692   0.61799   0.00000  Uiso   1.00
H1529  H     0.91498   0.88105   0.65105   0.00000  Uiso   1.00
H1530  H     0.78135   0.81955   0.61359   0.00000  Uiso   1.00
H1531  H     0.88436   0.84315   0.88625   0.00000  Uiso   1.00
H1532  H     0.97301   0.85018   0.60434   0.00000  Uiso   1.00
H1533  H     0.69489   0.82306   0.89569   0.00000  Uiso   1.00
H1534  H     0.99989   0.81181   0.97618   0.00000  Uiso   1.00
H1535  H     0.66922   0.86638   0.52487   0.00000  Uiso   1.00
H1536  H     0.85319   0.81770   0.58326   0.00000  Uiso   1.00
N1537  N     0.78403   0.83334   0.74999   0.00000  Uiso   1.00
N1538  N     0.88264   0.83332   0.75001   0.00000  Uiso   1.00
O1539  O     0.70625   0.77322   0.75000   0.00000  Uiso   1.00
O1540  O     0.90723   0.97752   0.85462   0.00000  Uiso   1.00
O1541  O     0.96042   0.89345   0.75000   0.00000  Uiso   1.00
O1542  O     0.96039   0.77321   0.75000   0.00000  Uiso   1.00
O1543  O     0.70628   0.89346   0.74999   0.00000  Uiso   1.00
O1544  O     0.68519   0.83334   0.81491   0.00000  Uiso   1.00
O1545  O     0.98148   0.83332   0.68508   0.00000  Uiso   1.00
O1546  O     0.93933   0.83333   0.81492   0.00000  Uiso   1.00
O1547  O     0.72733   0.83333   0.68508   0.00000  Uiso   1.00
O1548  O     0.75984   0.68911   0.64571   0.00000  Uiso   1.00
loop_
_geom_bond_atom_site_label_1
_geom_bond_atom_site_label_2
_geom_bond_distance
_geom_bond_site_symmetry_2
_ccdc_geom_bond_type
C1     O77     1.300   .     A
C1     C4      1.438   .     S
C1     O252    1.293   1_455 S
C2     H52     1.085   .     S
C2     C90     1.398   .     S
C2     C561    1.392   1_545 S
C3     C12     1.438   .     S
C3     C45     1.408   .     A
C3     C132    1.398   .     S
C4     C44     1.408   .     A
C4     C174    1.398   1_455 S
C5     H53     1.082   .     S
C5     C7      1.417   .     A
C5     N76     1.354   .     A
C6     N75     1.354   .     A
C6     H54     1.082   .     S
C6     C8      1.416   .     A
C7     C29     1.470   .     S
C7     N75     1.392   .     A
C8     N76     1.392   .     A
C8     C36     1.469   .     S
C9     O84     1.302   .     A
C9     C11     1.473   .     S
C9     O168    1.310   .     S
C10    O85     1.301   .     A
C10    C13     1.474   .     S
C10    O255    1.311   1_455 S
C11    C18     1.402   .     A
C11    C16     1.397   .     A
C12    O79     1.300   .     A
C12    O167    1.293   .     S
C13    C19     1.402   .     A
C13    C17     1.395   .     A
C14    C16     1.390   .     A
C14    H72     1.082   .     S
C14    C22     1.402   .     A
C15    C24     1.402   .     A
C15    H73     1.083   .     S
C15    C17     1.389   .     A
C16    H157    1.076   .     S
C17    H242    1.074   1_455 S
C18    H69     1.074   .     S
C18    C20     1.409   .     A
C19    C21     1.409   .     A
C19    H68     1.074   .     S
C20    C25     1.428   .     A
C20    C22     1.417   .     A
C21    C26     1.429   .     A
C21    C24     1.418   .     A
C22    C816    1.390   .     S
C23    C42     1.386   .     A
C23    C26     1.417   .     A
C23    H74     1.075   .     S
C24    C817    1.390   1_554 S
C25    C34     1.416   .     A
C25    C800    1.428   .     S
C26    C799    1.428   1_554 S
C27    H55     1.084   .     S
C27    C44     1.488   .     S
C27    O86     1.221   .     D
C28    H56     1.084   .     S
C28    O78     1.221   .     D
C28    C45     1.488   .     S
C29    C30     1.406   .     A
C29    C35     1.399   .     A
C30    H57     1.083   .     S
C30    C31     1.399   .     A
C31    C32     1.397   .     A
C31    H574    1.082   1_545 S
C32    C33     1.398   .     A
C32    H575    1.082   1_545 S
C33    C35     1.398   .     A
C33    H61     1.082   .     S
C34    H50     1.076   .     S
C34    C43     1.385   .     A
C35    H62     1.076   .     S
C36    C37     1.406   .     A
C36    C41     1.398   .     A
C37    H63     1.083   .     S
C37    C38     1.399   .     A
C38    C39     1.398   .     A
C38    H322    1.082   .     S
C39    C40     1.398   .     A
C39    H323    1.082   .     S
C40    H66     1.082   .     S
C40    C41     1.398   .     A
C41    H67     1.076   .     S
C42    H49     1.084   .     S
C42    C796    1.390   1_554 S
C43    H60     1.084   .     S
C43    C798    1.390   .     S
C44    C562    1.392   1_545 S
C45    C260    1.392   .     S
C46    H51     1.085   .     S
C46    C175    1.398   1_455 S
C46    C302    1.392   .     S
Cu47   O85     1.940   .     S
Cu47   O82     1.957   .     S
Cu47   O77     1.953   .     S
Cu47   N75     2.035   .     S
Cu47   O81     1.940   .     S
Cu47   Cu220   2.709   1_455 S
Cu48   N76     2.035   .     S
Cu48   O79     1.953   .     S
Cu48   O84     1.940   .     S
Cu48   O83     1.957   .     S
Cu48   O80     1.940   .     S
Cu48   Cu133   2.709   .     S
H58    C289    1.082   .     S
H59    C290    1.082   .     S
H64    C554    1.082   1_545 S
H65    C555    1.082   1_545 S
H70    C103    1.074   .     S
H71    C188    1.076   1_455 S
O80    C87     1.293   .     S
O81    C184    1.293   1_455 S
O82    C181    1.310   1_455 S
O83    C96     1.311   .     S
C87    O163    1.300   .     A
C87    C90     1.438   .     S
C88    H138    1.085   .     S
C88    C176    1.398   .     S
C88    C647    1.392   1_545 S
C89    C98     1.438   .     S
C89    C131    1.408   .     A
C89    C218    1.398   .     S
C90    C130    1.408   .     A
C91    H139    1.082   .     S
C91    C93     1.417   .     A
C91    N162    1.354   .     A
C92    N161    1.354   .     A
C92    H140    1.082   .     S
C92    C94     1.416   .     A
C93    C115    1.470   .     S
C93    N161    1.392   .     A
C94    N162    1.392   .     A
C94    C122    1.469   .     S
C95    O170    1.302   .     A
C95    C97     1.473   .     S
C95    O254    1.310   .     S
C96    O171    1.301   .     A
C96    C99     1.474   .     S
C97    C104    1.402   .     A
C97    C102    1.397   .     A
C98    O165    1.300   .     A
C98    O253    1.293   .     S
C99    C105    1.402   .     A
C99    C103    1.395   .     A
C100   C102    1.390   .     A
C100   H158    1.082   .     S
C100   C108    1.402   .     A
C101   C110    1.402   .     A
C101   H159    1.083   .     S
C101   C103    1.389   .     A
C102   H243    1.076   .     S
C104   H155    1.074   .     S
C104   C106    1.409   .     A
C105   C107    1.409   .     A
C105   H154    1.074   .     S
C106   C111    1.428   .     A
C106   C108    1.417   .     A
C107   C112    1.429   .     A
C107   C110    1.418   .     A
C108   C902    1.390   .     S
C109   C128    1.386   .     A
C109   C112    1.417   .     A
C109   H160    1.075   .     S
C110   C903    1.390   1_554 S
C111   C120    1.416   .     A
C111   C886    1.428   .     S
C112   C885    1.428   1_554 S
C113   H141    1.084   .     S
C113   C130    1.488   .     S
C113   O172    1.221   .     D
C114   H142    1.084   .     S
C114   O164    1.221   .     D
C114   C131    1.488   .     S
C115   C116    1.406   .     A
C115   C121    1.399   .     A
C116   H143    1.083   .     S
C116   C117    1.399   .     A
C117   C118    1.397   .     A
C117   H660    1.082   1_545 S
C118   C119    1.398   .     A
C118   H661    1.082   1_545 S
C119   C121    1.398   .     A
C119   H147    1.082   .     S
C120   H136    1.076   .     S
C120   C129    1.385   .     A
C121   H148    1.076   .     S
C122   C123    1.406   .     A
C122   C127    1.398   .     A
C123   H149    1.083   .     S
C123   C124    1.399   .     A
C124   C125    1.398   .     A
C124   H408    1.082   .     S
C125   C126    1.398   .     A
C125   H409    1.082   .     S
C126   H152    1.082   .     S
C126   C127    1.398   .     A
C127   H153    1.076   .     S
C128   H135    1.084   .     S
C128   C882    1.390   1_554 S
C129   H146    1.084   .     S
C129   C884    1.390   .     S
C130   C648    1.392   1_545 S
C131   C346    1.392   .     S
C132   H137    1.085   .     S
C132   C388    1.392   .     S
Cu133  O171    1.940   .     S
Cu133  O168    1.957   .     S
Cu133  O163    1.953   .     S
Cu133  N161    2.035   .     S
Cu133  O167    1.940   .     S
Cu134  N162    2.035   .     S
Cu134  O165    1.953   .     S
Cu134  O170    1.940   .     S
Cu134  O169    1.957   .     S
Cu134  O166    1.940   .     S
Cu134  Cu219   2.709   .     S
H144   C375    1.082   .     S
H145   C376    1.082   .     S
H150   C640    1.082   1_545 S
H151   C641    1.082   1_545 S
H156   C189    1.074   .     S
O166   C173    1.293   .     S
O169   C182    1.311   .     S
C173   O249    1.300   .     A
C173   C176    1.438   .     S
C174   H224    1.085   .     S
C174   C4      1.398   1_655 S
C174   C733    1.392   1_545 S
C175   C184    1.438   .     S
C175   C217    1.408   .     A
C175   C46     1.398   1_655 S
C176   C216    1.408   .     A
C177   H225    1.082   .     S
C177   C179    1.417   .     A
C177   N248    1.354   .     A
C178   N247    1.354   .     A
C178   H226    1.082   .     S
C178   C180    1.416   .     A
C179   C201    1.470   .     S
C179   N247    1.392   .     A
C180   N248    1.392   .     A
C180   C208    1.469   .     S
C181   O256    1.302   .     A
C181   C183    1.473   .     S
C181   O82     1.310   1_655 S
C182   O257    1.301   .     A
C182   C185    1.474   .     S
C183   C190    1.402   .     A
C183   C188    1.397   .     A
C184   O251    1.300   .     A
C184   O81     1.293   1_655 S
C185   C191    1.402   .     A
C185   C189    1.395   .     A
C186   C188    1.390   .     A
C186   H244    1.082   .     S
C186   C194    1.402   .     A
C187   C196    1.402   .     A
C187   H245    1.083   .     S
C187   C189    1.389   .     A
C188   H71     1.076   1_655 S
C190   H241    1.074   .     S
C190   C192    1.409   .     A
C191   C193    1.409   .     A
C191   H240    1.074   .     S
C192   C197    1.428   .     A
C192   C194    1.417   .     A
C193   C198    1.429   .     A
C193   C196    1.418   .     A
C194   C988    1.390   .     S
C195   C214    1.386   .     A
C195   C198    1.417   .     A
C195   H246    1.075   .     S
C196   C989    1.390   1_554 S
C197   C206    1.416   .     A
C197   C972    1.428   .     S
C198   C971    1.428   1_554 S
C199   H227    1.084   .     S
C199   C216    1.488   .     S
C199   O258    1.221   .     D
C200   H228    1.084   .     S
C200   O250    1.221   .     D
C200   C217    1.488   .     S
C201   C202    1.406   .     A
C201   C207    1.399   .     A
C202   H229    1.083   .     S
C202   C203    1.399   .     A
C203   C204    1.397   .     A
C203   H746    1.082   1_545 S
C204   C205    1.398   .     A
C204   H747    1.082   1_545 S
C205   C207    1.398   .     A
C205   H233    1.082   .     S
C206   H222    1.076   .     S
C206   C215    1.385   .     A
C207   H234    1.076   .     S
C208   C209    1.406   .     A
C208   C213    1.398   .     A
C209   H235    1.083   .     S
C209   C210    1.399   .     A
C210   C211    1.398   .     A
C210   H494    1.082   .     S
C211   C212    1.398   .     A
C211   H495    1.082   .     S
C212   H238    1.082   .     S
C212   C213    1.398   .     A
C213   H239    1.076   .     S
C214   H221    1.084   .     S
C214   C968    1.390   1_554 S
C215   H232    1.084   .     S
C215   C970    1.390   .     S
C216   C734    1.392   1_545 S
C217   C432    1.392   .     S
C218   H223    1.085   .     S
C218   C474    1.392   .     S
Cu219  O257    1.940   .     S
Cu219  O254    1.957   .     S
Cu219  O249    1.953   .     S
Cu219  N247    2.035   .     S
Cu219  O253    1.940   .     S
Cu220  N248    2.035   .     S
Cu220  O251    1.953   .     S
Cu220  O256    1.940   .     S
Cu220  O255    1.957   .     S
Cu220  O252    1.940   .     S
Cu220  Cu47    2.709   1_655 S
H230   C461    1.082   .     S
H231   C462    1.082   .     S
H236   C726    1.082   1_545 S
H237   C727    1.082   1_545 S
H242   C17     1.074   1_655 S
O252   C1      1.293   1_655 S
O255   C10     1.311   1_655 S
C259   O335    1.300   .     A
C259   C262    1.438   .     S
C259   O510    1.293   1_455 S
C260   H310    1.085   .     S
C260   C348    1.398   .     S
C261   C270    1.438   .     S
C261   C303    1.408   .     A
C261   C390    1.398   .     S
C262   C302    1.408   .     A
C262   C432    1.398   1_455 S
C263   H311    1.082   .     S
C263   C265    1.417   .     A
C263   N334    1.354   .     A
C264   N333    1.354   .     A
C264   H312    1.082   .     S
C264   C266    1.416   .     A
C265   C287    1.470   .     S
C265   N333    1.392   .     A
C266   N334    1.392   .     A
C266   C294    1.469   .     S
C267   O342    1.302   .     A
C267   C269    1.473   .     S
C267   O426    1.310   .     S
C268   O343    1.301   .     A
C268   C271    1.474   .     S
C268   O513    1.311   1_455 S
C269   C276    1.402   .     A
C269   C274    1.397   .     A
C270   O337    1.300   .     A
C270   O425    1.293   .     S
C271   C277    1.402   .     A
C271   C275    1.395   .     A
C272   C274    1.390   .     A
C272   H330    1.082   .     S
C272   C280    1.402   .     A
C273   C282    1.402   .     A
C273   H331    1.083   .     S
C273   C275    1.389   .     A
C274   H415    1.076   .     S
C275   H500    1.074   1_455 S
C276   H327    1.074   .     S
C276   C278    1.409   .     A
C277   C279    1.409   .     A
C277   H326    1.074   .     S
C278   C283    1.428   .     A
C278   C280    1.417   .     A
C279   C284    1.429   .     A
C279   C282    1.418   .     A
C280   C1074   1.390   .     S
C281   C300    1.386   .     A
C281   C284    1.417   .     A
C281   H332    1.075   .     S
C282   C1075   1.390   1_554 S
C283   C292    1.416   .     A
C283   C1058   1.428   .     S
C284   C1057   1.428   1_554 S
C285   H313    1.084   .     S
C285   C302    1.488   .     S
C285   O344    1.221   .     D
C286   H314    1.084   .     S
C286   O336    1.221   .     D
C286   C303    1.488   .     S
C287   C288    1.406   .     A
C287   C293    1.399   .     A
C288   H315    1.083   .     S
C288   C289    1.399   .     A
C289   C290    1.397   .     A
C290   C291    1.398   .     A
C291   C293    1.398   .     A
C291   H319    1.082   .     S
C292   H308    1.076   .     S
C292   C301    1.385   .     A
C293   H320    1.076   .     S
C294   C295    1.406   .     A
C294   C299    1.398   .     A
C295   H321    1.083   .     S
C295   C296    1.399   .     A
C296   C297    1.398   .     A
C296   H580    1.082   .     S
C297   C298    1.398   .     A
C297   H581    1.082   .     S
C298   H324    1.082   .     S
C298   C299    1.398   .     A
C299   H325    1.076   .     S
C300   H307    1.084   .     S
C300   C1054   1.390   1_554 S
C301   H318    1.084   .     S
C301   C1056   1.390   .     S
C303   C518    1.392   .     S
C304   H309    1.085   .     S
C304   C433    1.398   1_455 S
C304   C560    1.392   .     S
Cu305  O343    1.940   .     S
Cu305  O340    1.957   .     S
Cu305  O335    1.953   .     S
Cu305  N333    2.035   .     S
Cu305  O339    1.940   .     S
Cu305  Cu478   2.709   1_455 S
Cu306  N334    2.035   .     S
Cu306  O337    1.953   .     S
Cu306  O342    1.940   .     S
Cu306  O341    1.957   .     S
Cu306  O338    1.940   .     S
Cu306  Cu391   2.709   .     S
H316   C547    1.082   .     S
H317   C548    1.082   .     S
H328   C361    1.074   .     S
H329   C446    1.076   1_455 S
O338   C345    1.293   .     S
O339   C442    1.293   1_455 S
O340   C439    1.310   1_455 S
O341   C354    1.311   .     S
C345   O421    1.300   .     A
C345   C348    1.438   .     S
C346   H396    1.085   .     S
C346   C434    1.398   .     S
C347   C356    1.438   .     S
C347   C389    1.408   .     A
C347   C476    1.398   .     S
C348   C388    1.408   .     A
C349   H397    1.082   .     S
C349   C351    1.417   .     A
C349   N420    1.354   .     A
C350   N419    1.354   .     A
C350   H398    1.082   .     S
C350   C352    1.416   .     A
C351   C373    1.470   .     S
C351   N419    1.392   .     A
C352   N420    1.392   .     A
C352   C380    1.469   .     S
C353   O428    1.302   .     A
C353   C355    1.473   .     S
C353   O512    1.310   .     S
C354   O429    1.301   .     A
C354   C357    1.474   .     S
C355   C362    1.402   .     A
C355   C360    1.397   .     A
C356   O423    1.300   .     A
C356   O511    1.293   .     S
C357   C363    1.402   .     A
C357   C361    1.395   .     A
C358   C360    1.390   .     A
C358   H416    1.082   .     S
C358   C366    1.402   .     A
C359   C368    1.402   .     A
C359   H417    1.083   .     S
C359   C361    1.389   .     A
C360   H501    1.076   .     S
C362   H413    1.074   .     S
C362   C364    1.409   .     A
C363   C365    1.409   .     A
C363   H412    1.074   .     S
C364   C369    1.428   .     A
C364   C366    1.417   .     A
C365   C370    1.429   .     A
C365   C368    1.418   .     A
C366   C1160   1.390   .     S
C367   C386    1.386   .     A
C367   C370    1.417   .     A
C367   H418    1.075   .     S
C368   C1161   1.390   1_554 S
C369   C378    1.416   .     A
C369   C1144   1.428   .     S
C370   C1143   1.428   1_554 S
C371   H399    1.084   .     S
C371   C388    1.488   .     S
C371   O430    1.221   .     D
C372   H400    1.084   .     S
C372   O422    1.221   .     D
C372   C389    1.488   .     S
C373   C374    1.406   .     A
C373   C379    1.399   .     A
C374   H401    1.083   .     S
C374   C375    1.399   .     A
C375   C376    1.397   .     A
C376   C377    1.398   .     A
C377   C379    1.398   .     A
C377   H405    1.082   .     S
C378   H394    1.076   .     S
C378   C387    1.385   .     A
C379   H406    1.076   .     S
C380   C381    1.406   .     A
C380   C385    1.398   .     A
C381   H407    1.083   .     S
C381   C382    1.399   .     A
C382   C383    1.398   .     A
C382   H666    1.082   .     S
C383   C384    1.398   .     A
C383   H667    1.082   .     S
C384   H410    1.082   .     S
C384   C385    1.398   .     A
C385   H411    1.076   .     S
C386   H393    1.084   .     S
C386   C1140   1.390   1_554 S
C387   H404    1.084   .     S
C387   C1142   1.390   .     S
C389   C604    1.392   .     S
C390   H395    1.085   .     S
C390   C646    1.392   .     S
Cu391  O429    1.940   .     S
Cu391  O426    1.957   .     S
Cu391  O421    1.953   .     S
Cu391  N419    2.035   .     S
Cu391  O425    1.940   .     S
Cu392  N420    2.035   .     S
Cu392  O423    1.953   .     S
Cu392  O428    1.940   .     S
Cu392  O427    1.957   .     S
Cu392  O424    1.940   .     S
Cu392  Cu477   2.709   .     S
H402   C633    1.082   .     S
H403   C634    1.082   .     S
H414   C447    1.074   .     S
O424   C431    1.293   .     S
O427   C440    1.311   .     S
C431   O507    1.300   .     A
C431   C434    1.438   .     S
C432   H482    1.085   .     S
C432   C262    1.398   1_655 S
C433   C442    1.438   .     S
C433   C475    1.408   .     A
C433   C304    1.398   1_655 S
C434   C474    1.408   .     A
C435   H483    1.082   .     S
C435   C437    1.417   .     A
C435   N506    1.354   .     A
C436   N505    1.354   .     A
C436   H484    1.082   .     S
C436   C438    1.416   .     A
C437   C459    1.470   .     S
C437   N505    1.392   .     A
C438   N506    1.392   .     A
C438   C466    1.469   .     S
C439   O514    1.302   .     A
C439   C441    1.473   .     S
C439   O340    1.310   1_655 S
C440   O515    1.301   .     A
C440   C443    1.474   .     S
C441   C448    1.402   .     A
C441   C446    1.397   .     A
C442   O509    1.300   .     A
C442   O339    1.293   1_655 S
C443   C449    1.402   .     A
C443   C447    1.395   .     A
C444   C446    1.390   .     A
C444   H502    1.082   .     S
C444   C452    1.402   .     A
C445   C454    1.402   .     A
C445   H503    1.083   .     S
C445   C447    1.389   .     A
C446   H329    1.076   1_655 S
C448   H499    1.074   .     S
C448   C450    1.409   .     A
C449   C451    1.409   .     A
C449   H498    1.074   .     S
C450   C455    1.428   .     A
C450   C452    1.417   .     A
C451   C456    1.429   .     A
C451   C454    1.418   .     A
C452   C1246   1.390   .     S
C453   C472    1.386   .     A
C453   C456    1.417   .     A
C453   H504    1.075   .     S
C454   C1247   1.390   1_554 S
C455   C464    1.416   .     A
C455   C1230   1.428   .     S
C456   C1229   1.428   1_554 S
C457   H485    1.084   .     S
C457   C474    1.488   .     S
C457   O516    1.221   .     D
C458   H486    1.084   .     S
C458   O508    1.221   .     D
C458   C475    1.488   .     S
C459   C460    1.406   .     A
C459   C465    1.399   .     A
C460   H487    1.083   .     S
C460   C461    1.399   .     A
C461   C462    1.397   .     A
C462   C463    1.398   .     A
C463   C465    1.398   .     A
C463   H491    1.082   .     S
C464   H480    1.076   .     S
C464   C473    1.385   .     A
C465   H492    1.076   .     S
C466   C467    1.406   .     A
C466   C471    1.398   .     A
C467   H493    1.083   .     S
C467   C468    1.399   .     A
C468   C469    1.398   .     A
C468   H752    1.082   .     S
C469   C470    1.398   .     A
C469   H753    1.082   .     S
C470   H496    1.082   .     S
C470   C471    1.398   .     A
C471   H497    1.076   .     S
C472   H479    1.084   .     S
C472   C1226   1.390   1_554 S
C473   H490    1.084   .     S
C473   C1228   1.390   .     S
C475   C690    1.392   .     S
C476   H481    1.085   .     S
C476   C732    1.392   .     S
Cu477  O515    1.940   .     S
Cu477  O512    1.957   .     S
Cu477  O507    1.953   .     S
Cu477  N505    2.035   .     S
Cu477  O511    1.940   .     S
Cu478  N506    2.035   .     S
Cu478  O509    1.953   .     S
Cu478  O514    1.940   .     S
Cu478  O513    1.957   .     S
Cu478  O510    1.940   .     S
Cu478  Cu305   2.709   1_655 S
H488   C719    1.082   .     S
H489   C720    1.082   .     S
H500   C275    1.074   1_655 S
O510   C259    1.293   1_655 S
O513   C268    1.311   1_655 S
C517   O593    1.300   .     A
C517   C520    1.438   .     S
C517   O768    1.293   1_455 S
C518   H568    1.085   .     S
C518   C606    1.398   .     S
C519   C528    1.438   .     S
C519   C561    1.408   .     A
C519   C648    1.398   .     S
C520   C560    1.408   .     A
C520   C690    1.398   1_455 S
C521   H569    1.082   .     S
C521   C523    1.417   .     A
C521   N592    1.354   .     A
C522   N591    1.354   .     A
C522   H570    1.082   .     S
C522   C524    1.416   .     A
C523   C545    1.470   .     S
C523   N591    1.392   .     A
C524   N592    1.392   .     A
C524   C552    1.469   .     S
C525   O600    1.302   .     A
C525   C527    1.473   .     S
C525   O684    1.310   .     S
C526   O601    1.301   .     A
C526   C529    1.474   .     S
C526   O771    1.311   1_455 S
C527   C534    1.402   .     A
C527   C532    1.397   .     A
C528   O595    1.300   .     A
C528   O683    1.293   .     S
C529   C535    1.402   .     A
C529   C533    1.395   .     A
C530   C532    1.390   .     A
C530   H588    1.082   .     S
C530   C538    1.402   .     A
C531   C540    1.402   .     A
C531   H589    1.083   .     S
C531   C533    1.389   .     A
C532   H673    1.076   .     S
C533   H758    1.074   1_455 S
C534   H585    1.074   .     S
C534   C536    1.409   .     A
C535   C537    1.409   .     A
C535   H584    1.074   .     S
C536   C541    1.428   .     A
C536   C538    1.417   .     A
C537   C542    1.429   .     A
C537   C540    1.418   .     A
C538   C1332   1.390   .     S
C539   C558    1.386   .     A
C539   C542    1.417   .     A
C539   H590    1.075   .     S
C540   C1333   1.390   1_554 S
C541   C550    1.416   .     A
C541   C1316   1.428   .     S
C542   C1315   1.428   1_554 S
C543   H571    1.084   .     S
C543   C560    1.488   .     S
C543   O602    1.221   .     D
C544   H572    1.084   .     S
C544   O594    1.221   .     D
C544   C561    1.488   .     S
C545   C546    1.406   .     A
C545   C551    1.399   .     A
C546   H573    1.083   .     S
C546   C547    1.399   .     A
C547   C548    1.397   .     A
C548   C549    1.398   .     A
C549   C551    1.398   .     A
C549   H577    1.082   .     S
C550   H566    1.076   .     S
C550   C559    1.385   .     A
C551   H578    1.076   .     S
C552   C553    1.406   .     A
C552   C557    1.398   .     A
C553   H579    1.083   .     S
C553   C554    1.399   .     A
C554   C555    1.398   .     A
C554   H64     1.082   1_565 S
C555   C556    1.398   .     A
C555   H65     1.082   1_565 S
C556   H582    1.082   .     S
C556   C557    1.398   .     A
C557   H583    1.076   .     S
C558   H565    1.084   .     S
C558   C1312   1.390   1_554 S
C559   H576    1.084   .     S
C559   C1314   1.390   .     S
C561   C2      1.392   1_565 S
C562   H567    1.085   .     S
C562   C691    1.398   1_455 S
C562   C44     1.392   1_565 S
Cu563  O601    1.940   .     S
Cu563  O598    1.957   .     S
Cu563  O593    1.953   .     S
Cu563  N591    2.035   .     S
Cu563  O597    1.940   .     S
Cu563  Cu736   2.709   1_455 S
Cu564  N592    2.035   .     S
Cu564  O595    1.953   .     S
Cu564  O600    1.940   .     S
Cu564  O599    1.957   .     S
Cu564  O596    1.940   .     S
Cu564  Cu649   2.709   .     S
H574   C31     1.082   1_565 S
H575   C32     1.082   1_565 S
H586   C619    1.074   .     S
H587   C704    1.076   1_455 S
O596   C603    1.293   .     S
O597   C700    1.293   1_455 S
O598   C697    1.310   1_455 S
O599   C612    1.311   .     S
C603   O679    1.300   .     A
C603   C606    1.438   .     S
C604   H654    1.085   .     S
C604   C692    1.398   .     S
C605   C614    1.438   .     S
C605   C647    1.408   .     A
C605   C734    1.398   .     S
C606   C646    1.408   .     A
C607   H655    1.082   .     S
C607   C609    1.417   .     A
C607   N678    1.354   .     A
C608   N677    1.354   .     A
C608   H656    1.082   .     S
C608   C610    1.416   .     A
C609   C631    1.470   .     S
C609   N677    1.392   .     A
C610   N678    1.392   .     A
C610   C638    1.469   .     S
C611   O686    1.302   .     A
C611   C613    1.473   .     S
C611   O770    1.310   .     S
C612   O687    1.301   .     A
C612   C615    1.474   .     S
C613   C620    1.402   .     A
C613   C618    1.397   .     A
C614   O681    1.300   .     A
C614   O769    1.293   .     S
C615   C621    1.402   .     A
C615   C619    1.395   .     A
C616   C618    1.390   .     A
C616   H674    1.082   .     S
C616   C624    1.402   .     A
C617   C626    1.402   .     A
C617   H675    1.083   .     S
C617   C619    1.389   .     A
C618   H759    1.076   .     S
C620   H671    1.074   .     S
C620   C622    1.409   .     A
C621   C623    1.409   .     A
C621   H670    1.074   .     S
C622   C627    1.428   .     A
C622   C624    1.417   .     A
C623   C628    1.429   .     A
C623   C626    1.418   .     A
C624   C1418   1.390   .     S
C625   C644    1.386   .     A
C625   C628    1.417   .     A
C625   H676    1.075   .     S
C626   C1419   1.390   1_554 S
C627   C636    1.416   .     A
C627   C1402   1.428   .     S
C628   C1401   1.428   1_554 S
C629   H657    1.084   .     S
C629   C646    1.488   .     S
C629   O688    1.221   .     D
C630   H658    1.084   .     S
C630   O680    1.221   .     D
C630   C647    1.488   .     S
C631   C632    1.406   .     A
C631   C637    1.399   .     A
C632   H659    1.083   .     S
C632   C633    1.399   .     A
C633   C634    1.397   .     A
C634   C635    1.398   .     A
C635   C637    1.398   .     A
C635   H663    1.082   .     S
C636   H652    1.076   .     S
C636   C645    1.385   .     A
C637   H664    1.076   .     S
C638   C639    1.406   .     A
C638   C643    1.398   .     A
C639   H665    1.083   .     S
C639   C640    1.399   .     A
C640   C641    1.398   .     A
C640   H150    1.082   1_565 S
C641   C642    1.398   .     A
C641   H151    1.082   1_565 S
C642   H668    1.082   .     S
C642   C643    1.398   .     A
C643   H669    1.076   .     S
C644   H651    1.084   .     S
C644   C1398   1.390   1_554 S
C645   H662    1.084   .     S
C645   C1400   1.390   .     S
C647   C88     1.392   1_565 S
C648   H653    1.085   .     S
C648   C130    1.392   1_565 S
Cu649  O687    1.940   .     S
Cu649  O684    1.957   .     S
Cu649  O679    1.953   .     S
Cu649  N677    2.035   .     S
Cu649  O683    1.940   .     S
Cu650  N678    2.035   .     S
Cu650  O681    1.953   .     S
Cu650  O686    1.940   .     S
Cu650  O685    1.957   .     S
Cu650  O682    1.940   .     S
Cu650  Cu735   2.709   .     S
H660   C117    1.082   1_565 S
H661   C118    1.082   1_565 S
H672   C705    1.074   .     S
O682   C689    1.293   .     S
O685   C698    1.311   .     S
C689   O765    1.300   .     A
C689   C692    1.438   .     S
C690   H740    1.085   .     S
C690   C520    1.398   1_655 S
C691   C700    1.438   .     S
C691   C733    1.408   .     A
C691   C562    1.398   1_655 S
C692   C732    1.408   .     A
C693   H741    1.082   .     S
C693   C695    1.417   .     A
C693   N764    1.354   .     A
C694   N763    1.354   .     A
C694   H742    1.082   .     S
C694   C696    1.416   .     A
C695   C717    1.470   .     S
C695   N763    1.392   .     A
C696   N764    1.392   .     A
C696   C724    1.469   .     S
C697   O772    1.302   .     A
C697   C699    1.473   .     S
C697   O598    1.310   1_655 S
C698   O773    1.301   .     A
C698   C701    1.474   .     S
C699   C706    1.402   .     A
C699   C704    1.397   .     A
C700   O767    1.300   .     A
C700   O597    1.293   1_655 S
C701   C707    1.402   .     A
C701   C705    1.395   .     A
C702   C704    1.390   .     A
C702   H760    1.082   .     S
C702   C710    1.402   .     A
C703   C712    1.402   .     A
C703   H761    1.083   .     S
C703   C705    1.389   .     A
C704   H587    1.076   1_655 S
C706   H757    1.074   .     S
C706   C708    1.409   .     A
C707   C709    1.409   .     A
C707   H756    1.074   .     S
C708   C713    1.428   .     A
C708   C710    1.417   .     A
C709   C714    1.429   .     A
C709   C712    1.418   .     A
C710   C1504   1.390   .     S
C711   C730    1.386   .     A
C711   C714    1.417   .     A
C711   H762    1.075   .     S
C712   C1505   1.390   1_554 S
C713   C722    1.416   .     A
C713   C1488   1.428   .     S
C714   C1487   1.428   1_554 S
C715   H743    1.084   .     S
C715   C732    1.488   .     S
C715   O774    1.221   .     D
C716   H744    1.084   .     S
C716   O766    1.221   .     D
C716   C733    1.488   .     S
C717   C718    1.406   .     A
C717   C723    1.399   .     A
C718   H745    1.083   .     S
C718   C719    1.399   .     A
C719   C720    1.397   .     A
C720   C721    1.398   .     A
C721   C723    1.398   .     A
C721   H749    1.082   .     S
C722   H738    1.076   .     S
C722   C731    1.385   .     A
C723   H750    1.076   .     S
C724   C725    1.406   .     A
C724   C729    1.398   .     A
C725   H751    1.083   .     S
C725   C726    1.399   .     A
C726   C727    1.398   .     A
C726   H236    1.082   1_565 S
C727   C728    1.398   .     A
C727   H237    1.082   1_565 S
C728   H754    1.082   .     S
C728   C729    1.398   .     A
C729   H755    1.076   .     S
C730   H737    1.084   .     S
C730   C1484   1.390   1_554 S
C731   H748    1.084   .     S
C731   C1486   1.390   .     S
C733   C174    1.392   1_565 S
C734   H739    1.085   .     S
C734   C216    1.392   1_565 S
Cu735  O773    1.940   .     S
Cu735  O770    1.957   .     S
Cu735  O765    1.953   .     S
Cu735  N763    2.035   .     S
Cu735  O769    1.940   .     S
Cu736  N764    2.035   .     S
Cu736  O767    1.953   .     S
Cu736  O772    1.940   .     S
Cu736  O771    1.957   .     S
Cu736  O768    1.940   .     S
Cu736  Cu563   2.709   1_655 S
H746   C203    1.082   1_565 S
H747   C204    1.082   1_565 S
H758   C533    1.074   1_655 S
O768   C517    1.293   1_655 S
O771   C526    1.311   1_655 S
C775   O851    1.300   .     A
C775   C778    1.438   .     S
C775   O1026   1.293   1_455 S
C776   H826    1.085   .     S
C776   C864    1.398   .     S
C776   C1335   1.392   1_545 S
C777   C786    1.438   .     S
C777   C819    1.408   .     A
C777   C906    1.398   .     S
C778   C818    1.408   .     A
C778   C948    1.398   1_455 S
C779   H827    1.082   .     S
C779   C781    1.417   .     A
C779   N850    1.354   .     A
C780   N849    1.354   .     A
C780   H828    1.082   .     S
C780   C782    1.416   .     A
C781   C803    1.470   .     S
C781   N849    1.392   .     A
C782   N850    1.392   .     A
C782   C810    1.469   .     S
C783   O858    1.302   .     A
C783   C785    1.473   .     S
C783   O942    1.310   .     S
C784   O859    1.301   .     A
C784   C787    1.474   .     S
C784   O1029   1.311   1_455 S
C785   C792    1.402   .     A
C785   C790    1.397   .     A
C786   O853    1.300   .     A
C786   O941    1.293   .     S
C787   C793    1.402   .     A
C787   C791    1.395   .     A
C788   C790    1.390   .     A
C788   H846    1.082   .     S
C788   C796    1.402   .     A
C789   C798    1.402   .     A
C789   H847    1.083   .     S
C789   C791    1.389   .     A
C790   H931    1.076   .     S
C791   H1016   1.074   1_455 S
C792   H843    1.074   .     S
C792   C794    1.409   .     A
C793   C795    1.409   .     A
C793   H842    1.074   .     S
C794   C799    1.428   .     A
C794   C796    1.417   .     A
C795   C800    1.429   .     A
C795   C798    1.418   .     A
C796   C42     1.390   1_556 S
C797   C816    1.386   .     A
C797   C800    1.417   .     A
C797   H848    1.075   .     S
C799   C808    1.416   .     A
C799   C26     1.428   1_556 S
C801   H829    1.084   .     S
C801   C818    1.488   .     S
C801   O860    1.221   .     D
C802   H830    1.084   .     S
C802   O852    1.221   .     D
C802   C819    1.488   .     S
C803   C804    1.406   .     A
C803   C809    1.399   .     A
C804   H831    1.083   .     S
C804   C805    1.399   .     A
C805   C806    1.397   .     A
C805   H1348   1.082   1_545 S
C806   C807    1.398   .     A
C806   H1349   1.082   1_545 S
C807   C809    1.398   .     A
C807   H835    1.082   .     S
C808   H824    1.076   .     S
C808   C817    1.385   .     A
C809   H836    1.076   .     S
C810   C811    1.406   .     A
C810   C815    1.398   .     A
C811   H837    1.083   .     S
C811   C812    1.399   .     A
C812   C813    1.398   .     A
C812   H1096   1.082   .     S
C813   C814    1.398   .     A
C813   H1097   1.082   .     S
C814   H840    1.082   .     S
C814   C815    1.398   .     A
C815   H841    1.076   .     S
C816   H823    1.084   .     S
C817   H834    1.084   .     S
C817   C24     1.390   1_556 S
C818   C1336   1.392   1_545 S
C819   C1034   1.392   .     S
C820   H825    1.085   .     S
C820   C949    1.398   1_455 S
C820   C1076   1.392   .     S
Cu821  O859    1.940   .     S
Cu821  O856    1.957   .     S
Cu821  O851    1.953   .     S
Cu821  N849    2.035   .     S
Cu821  O855    1.940   .     S
Cu821  Cu994   2.709   1_455 S
Cu822  N850    2.035   .     S
Cu822  O853    1.953   .     S
Cu822  O858    1.940   .     S
Cu822  O857    1.957   .     S
Cu822  O854    1.940   .     S
Cu822  Cu907   2.709   .     S
H832   C1063   1.082   .     S
H833   C1064   1.082   .     S
H838   C1328   1.082   1_545 S
H839   C1329   1.082   1_545 S
H844   C877    1.074   .     S
H845   C962    1.076   1_455 S
O854   C861    1.293   .     S
O855   C958    1.293   1_455 S
O856   C955    1.310   1_455 S
O857   C870    1.311   .     S
C861   O937    1.300   .     A
C861   C864    1.438   .     S
C862   H912    1.085   .     S
C862   C950    1.398   .     S
C862   C1421   1.392   1_545 S
C863   C872    1.438   .     S
C863   C905    1.408   .     A
C863   C992    1.398   .     S
C864   C904    1.408   .     A
C865   H913    1.082   .     S
C865   C867    1.417   .     A
C865   N936    1.354   .     A
C866   N935    1.354   .     A
C866   H914    1.082   .     S
C866   C868    1.416   .     A
C867   C889    1.470   .     S
C867   N935    1.392   .     A
C868   N936    1.392   .     A
C868   C896    1.469   .     S
C869   O944    1.302   .     A
C869   C871    1.473   .     S
C869   O1028   1.310   .     S
C870   O945    1.301   .     A
C870   C873    1.474   .     S
C871   C878    1.402   .     A
C871   C876    1.397   .     A
C872   O939    1.300   .     A
C872   O1027   1.293   .     S
C873   C879    1.402   .     A
C873   C877    1.395   .     A
C874   C876    1.390   .     A
C874   H932    1.082   .     S
C874   C882    1.402   .     A
C875   C884    1.402   .     A
C875   H933    1.083   .     S
C875   C877    1.389   .     A
C876   H1017   1.076   .     S
C878   H929    1.074   .     S
C878   C880    1.409   .     A
C879   C881    1.409   .     A
C879   H928    1.074   .     S
C880   C885    1.428   .     A
C880   C882    1.417   .     A
C881   C886    1.429   .     A
C881   C884    1.418   .     A
C882   C128    1.390   1_556 S
C883   C902    1.386   .     A
C883   C886    1.417   .     A
C883   H934    1.075   .     S
C885   C894    1.416   .     A
C885   C112    1.428   1_556 S
C887   H915    1.084   .     S
C887   C904    1.488   .     S
C887   O946    1.221   .     D
C888   H916    1.084   .     S
C888   O938    1.221   .     D
C888   C905    1.488   .     S
C889   C890    1.406   .     A
C889   C895    1.399   .     A
C890   H917    1.083   .     S
C890   C891    1.399   .     A
C891   C892    1.397   .     A
C891   H1434   1.082   1_545 S
C892   C893    1.398   .     A
C892   H1435   1.082   1_545 S
C893   C895    1.398   .     A
C893   H921    1.082   .     S
C894   H910    1.076   .     S
C894   C903    1.385   .     A
C895   H922    1.076   .     S
C896   C897    1.406   .     A
C896   C901    1.398   .     A
C897   H923    1.083   .     S
C897   C898    1.399   .     A
C898   C899    1.398   .     A
C898   H1182   1.082   .     S
C899   C900    1.398   .     A
C899   H1183   1.082   .     S
C900   H926    1.082   .     S
C900   C901    1.398   .     A
C901   H927    1.076   .     S
C902   H909    1.084   .     S
C903   H920    1.084   .     S
C903   C110    1.390   1_556 S
C904   C1422   1.392   1_545 S
C905   C1120   1.392   .     S
C906   H911    1.085   .     S
C906   C1162   1.392   .     S
Cu907  O945    1.940   .     S
Cu907  O942    1.957   .     S
Cu907  O937    1.953   .     S
Cu907  N935    2.035   .     S
Cu907  O941    1.940   .     S
Cu908  N936    2.035   .     S
Cu908  O939    1.953   .     S
Cu908  O944    1.940   .     S
Cu908  O943    1.957   .     S
Cu908  O940    1.940   .     S
Cu908  Cu993   2.709   .     S
H918   C1149   1.082   .     S
H919   C1150   1.082   .     S
H924   C1414   1.082   1_545 S
H925   C1415   1.082   1_545 S
H930   C963    1.074   .     S
O940   C947    1.293   .     S
O943   C956    1.311   .     S
C947   O1023   1.300   .     A
C947   C950    1.438   .     S
C948   H998    1.085   .     S
C948   C778    1.398   1_655 S
C948   C1507   1.392   1_545 S
C949   C958    1.438   .     S
C949   C991    1.408   .     A
C949   C820    1.398   1_655 S
C950   C990    1.408   .     A
C951   H999    1.082   .     S
C951   C953    1.417   .     A
C951   N1022   1.354   .     A
C952   N1021   1.354   .     A
C952   H1000   1.082   .     S
C952   C954    1.416   .     A
C953   C975    1.470   .     S
C953   N1021   1.392   .     A
C954   N1022   1.392   .     A
C954   C982    1.469   .     S
C955   O1030   1.302   .     A
C955   C957    1.473   .     S
C955   O856    1.310   1_655 S
C956   O1031   1.301   .     A
C956   C959    1.474   .     S
C957   C964    1.402   .     A
C957   C962    1.397   .     A
C958   O1025   1.300   .     A
C958   O855    1.293   1_655 S
C959   C965    1.402   .     A
C959   C963    1.395   .     A
C960   C962    1.390   .     A
C960   H1018   1.082   .     S
C960   C968    1.402   .     A
C961   C970    1.402   .     A
C961   H1019   1.083   .     S
C961   C963    1.389   .     A
C962   H845    1.076   1_655 S
C964   H1015   1.074   .     S
C964   C966    1.409   .     A
C965   C967    1.409   .     A
C965   H1014   1.074   .     S
C966   C971    1.428   .     A
C966   C968    1.417   .     A
C967   C972    1.429   .     A
C967   C970    1.418   .     A
C968   C214    1.390   1_556 S
C969   C988    1.386   .     A
C969   C972    1.417   .     A
C969   H1020   1.075   .     S
C971   C980    1.416   .     A
C971   C198    1.428   1_556 S
C973   H1001   1.084   .     S
C973   C990    1.488   .     S
C973   O1032   1.221   .     D
C974   H1002   1.084   .     S
C974   O1024   1.221   .     D
C974   C991    1.488   .     S
C975   C976    1.406   .     A
C975   C981    1.399   .     A
C976   H1003   1.083   .     S
C976   C977    1.399   .     A
C977   C978    1.397   .     A
C977   H1520   1.082   1_545 S
C978   C979    1.398   .     A
C978   H1521   1.082   1_545 S
C979   C981    1.398   .     A
C979   H1007   1.082   .     S
C980   H996    1.076   .     S
C980   C989    1.385   .     A
C981   H1008   1.076   .     S
C982   C983    1.406   .     A
C982   C987    1.398   .     A
C983   H1009   1.083   .     S
C983   C984    1.399   .     A
C984   C985    1.398   .     A
C984   H1268   1.082   .     S
C985   C986    1.398   .     A
C985   H1269   1.082   .     S
C986   H1012   1.082   .     S
C986   C987    1.398   .     A
C987   H1013   1.076   .     S
C988   H995    1.084   .     S
C989   H1006   1.084   .     S
C989   C196    1.390   1_556 S
C990   C1508   1.392   1_545 S
C991   C1206   1.392   .     S
C992   H997    1.085   .     S
C992   C1248   1.392   .     S
Cu993  O1031   1.940   .     S
Cu993  O1028   1.957   .     S
Cu993  O1023   1.953   .     S
Cu993  N1021   2.035   .     S
Cu993  O1027   1.940   .     S
Cu994  N1022   2.035   .     S
Cu994  O1025   1.953   .     S
Cu994  O1030   1.940   .     S
Cu994  O1029   1.957   .     S
Cu994  O1026   1.940   .     S
Cu994  Cu821   2.709   1_655 S
H1004  C1235   1.082   .     S
H1005  C1236   1.082   .     S
H1010  C1500   1.082   1_545 S
H1011  C1501   1.082   1_545 S
H1016  C791    1.074   1_655 S
O1026  C775    1.293   1_655 S
O1029  C784    1.311   1_655 S
C1033  O1109   1.300   .     A
C1033  C1036   1.438   .     S
C1033  O1284   1.293   1_455 S
C1034  H1084   1.085   .     S
C1034  C1122   1.398   .     S
C1035  C1044   1.438   .     S
C1035  C1077   1.408   .     A
C1035  C1164   1.398   .     S
C1036  C1076   1.408   .     A
C1036  C1206   1.398   1_455 S
C1037  H1085   1.082   .     S
C1037  C1039   1.417   .     A
C1037  N1108   1.354   .     A
C1038  N1107   1.354   .     A
C1038  H1086   1.082   .     S
C1038  C1040   1.416   .     A
C1039  C1061   1.470   .     S
C1039  N1107   1.392   .     A
C1040  N1108   1.392   .     A
C1040  C1068   1.469   .     S
C1041  O1116   1.302   .     A
C1041  C1043   1.473   .     S
C1041  O1200   1.310   .     S
C1042  O1117   1.301   .     A
C1042  C1045   1.474   .     S
C1042  O1287   1.311   1_455 S
C1043  C1050   1.402   .     A
C1043  C1048   1.397   .     A
C1044  O1111   1.300   .     A
C1044  O1199   1.293   .     S
C1045  C1051   1.402   .     A
C1045  C1049   1.395   .     A
C1046  C1048   1.390   .     A
C1046  H1104   1.082   .     S
C1046  C1054   1.402   .     A
C1047  C1056   1.402   .     A
C1047  H1105   1.083   .     S
C1047  C1049   1.389   .     A
C1048  H1189   1.076   .     S
C1049  H1274   1.074   1_455 S
C1050  H1101   1.074   .     S
C1050  C1052   1.409   .     A
C1051  C1053   1.409   .     A
C1051  H1100   1.074   .     S
C1052  C1057   1.428   .     A
C1052  C1054   1.417   .     A
C1053  C1058   1.429   .     A
C1053  C1056   1.418   .     A
C1054  C300    1.390   1_556 S
C1055  C1074   1.386   .     A
C1055  C1058   1.417   .     A
C1055  H1106   1.075   .     S
C1057  C1066   1.416   .     A
C1057  C284    1.428   1_556 S
C1059  H1087   1.084   .     S
C1059  C1076   1.488   .     S
C1059  O1118   1.221   .     D
C1060  H1088   1.084   .     S
C1060  O1110   1.221   .     D
C1060  C1077   1.488   .     S
C1061  C1062   1.406   .     A
C1061  C1067   1.399   .     A
C1062  H1089   1.083   .     S
C1062  C1063   1.399   .     A
C1063  C1064   1.397   .     A
C1064  C1065   1.398   .     A
C1065  C1067   1.398   .     A
C1065  H1093   1.082   .     S
C1066  H1082   1.076   .     S
C1066  C1075   1.385   .     A
C1067  H1094   1.076   .     S
C1068  C1069   1.406   .     A
C1068  C1073   1.398   .     A
C1069  H1095   1.083   .     S
C1069  C1070   1.399   .     A
C1070  C1071   1.398   .     A
C1070  H1354   1.082   .     S
C1071  C1072   1.398   .     A
C1071  H1355   1.082   .     S
C1072  H1098   1.082   .     S
C1072  C1073   1.398   .     A
C1073  H1099   1.076   .     S
C1074  H1081   1.084   .     S
C1075  H1092   1.084   .     S
C1075  C282    1.390   1_556 S
C1077  C1292   1.392   .     S
C1078  H1083   1.085   .     S
C1078  C1207   1.398   1_455 S
C1078  C1334   1.392   .     S
Cu1079 O1117   1.940   .     S
Cu1079 O1114   1.957   .     S
Cu1079 O1109   1.953   .     S
Cu1079 N1107   2.035   .     S
Cu1079 O1113   1.940   .     S
Cu1079 Cu1252  2.709   1_455 S
Cu1080 N1108   2.035   .     S
Cu1080 O1111   1.953   .     S
Cu1080 O1116   1.940   .     S
Cu1080 O1115   1.957   .     S
Cu1080 O1112   1.940   .     S
Cu1080 Cu1165  2.709   .     S
H1090  C1321   1.082   .     S
H1091  C1322   1.082   .     S
H1102  C1135   1.074   .     S
H1103  C1220   1.076   1_455 S
O1112  C1119   1.293   .     S
O1113  C1216   1.293   1_455 S
O1114  C1213   1.310   1_455 S
O1115  C1128   1.311   .     S
C1119  O1195   1.300   .     A
C1119  C1122   1.438   .     S
C1120  H1170   1.085   .     S
C1120  C1208   1.398   .     S
C1121  C1130   1.438   .     S
C1121  C1163   1.408   .     A
C1121  C1250   1.398   .     S
C1122  C1162   1.408   .     A
C1123  H1171   1.082   .     S
C1123  C1125   1.417   .     A
C1123  N1194   1.354   .     A
C1124  N1193   1.354   .     A
C1124  H1172   1.082   .     S
C1124  C1126   1.416   .     A
C1125  C1147   1.470   .     S
C1125  N1193   1.392   .     A
C1126  N1194   1.392   .     A
C1126  C1154   1.469   .     S
C1127  O1202   1.302   .     A
C1127  C1129   1.473   .     S
C1127  O1286   1.310   .     S
C1128  O1203   1.301   .     A
C1128  C1131   1.474   .     S
C1129  C1136   1.402   .     A
C1129  C1134   1.397   .     A
C1130  O1197   1.300   .     A
C1130  O1285   1.293   .     S
C1131  C1137   1.402   .     A
C1131  C1135   1.395   .     A
C1132  C1134   1.390   .     A
C1132  H1190   1.082   .     S
C1132  C1140   1.402   .     A
C1133  C1142   1.402   .     A
C1133  H1191   1.083   .     S
C1133  C1135   1.389   .     A
C1134  H1275   1.076   .     S
C1136  H1187   1.074   .     S
C1136  C1138   1.409   .     A
C1137  C1139   1.409   .     A
C1137  H1186   1.074   .     S
C1138  C1143   1.428   .     A
C1138  C1140   1.417   .     A
C1139  C1144   1.429   .     A
C1139  C1142   1.418   .     A
C1140  C386    1.390   1_556 S
C1141  C1160   1.386   .     A
C1141  C1144   1.417   .     A
C1141  H1192   1.075   .     S
C1143  C1152   1.416   .     A
C1143  C370    1.428   1_556 S
C1145  H1173   1.084   .     S
C1145  C1162   1.488   .     S
C1145  O1204   1.221   .     D
C1146  H1174   1.084   .     S
C1146  O1196   1.221   .     D
C1146  C1163   1.488   .     S
C1147  C1148   1.406   .     A
C1147  C1153   1.399   .     A
C1148  H1175   1.083   .     S
C1148  C1149   1.399   .     A
C1149  C1150   1.397   .     A
C1150  C1151   1.398   .     A
C1151  C1153   1.398   .     A
C1151  H1179   1.082   .     S
C1152  H1168   1.076   .     S
C1152  C1161   1.385   .     A
C1153  H1180   1.076   .     S
C1154  C1155   1.406   .     A
C1154  C1159   1.398   .     A
C1155  H1181   1.083   .     S
C1155  C1156   1.399   .     A
C1156  C1157   1.398   .     A
C1156  H1440   1.082   .     S
C1157  C1158   1.398   .     A
C1157  H1441   1.082   .     S
C1158  H1184   1.082   .     S
C1158  C1159   1.398   .     A
C1159  H1185   1.076   .     S
C1160  H1167   1.084   .     S
C1161  H1178   1.084   .     S
C1161  C368    1.390   1_556 S
C1163  C1378   1.392   .     S
C1164  H1169   1.085   .     S
C1164  C1420   1.392   .     S
Cu1165 O1203   1.940   .     S
Cu1165 O1200   1.957   .     S
Cu1165 O1195   1.953   .     S
Cu1165 N1193   2.035   .     S
Cu1165 O1199   1.940   .     S
Cu1166 N1194   2.035   .     S
Cu1166 O1197   1.953   .     S
Cu1166 O1202   1.940   .     S
Cu1166 O1201   1.957   .     S
Cu1166 O1198   1.940   .     S
Cu1166 Cu1251  2.709   .     S
H1176  C1407   1.082   .     S
H1177  C1408   1.082   .     S
H1188  C1221   1.074   .     S
O1198  C1205   1.293   .     S
O1201  C1214   1.311   .     S
C1205  O1281   1.300   .     A
C1205  C1208   1.438   .     S
C1206  H1256   1.085   .     S
C1206  C1036   1.398   1_655 S
C1207  C1216   1.438   .     S
C1207  C1249   1.408   .     A
C1207  C1078   1.398   1_655 S
C1208  C1248   1.408   .     A
C1209  H1257   1.082   .     S
C1209  C1211   1.417   .     A
C1209  N1280   1.354   .     A
C1210  N1279   1.354   .     A
C1210  H1258   1.082   .     S
C1210  C1212   1.416   .     A
C1211  C1233   1.470   .     S
C1211  N1279   1.392   .     A
C1212  N1280   1.392   .     A
C1212  C1240   1.469   .     S
C1213  O1288   1.302   .     A
C1213  C1215   1.473   .     S
C1213  O1114   1.310   1_655 S
C1214  O1289   1.301   .     A
C1214  C1217   1.474   .     S
C1215  C1222   1.402   .     A
C1215  C1220   1.397   .     A
C1216  O1283   1.300   .     A
C1216  O1113   1.293   1_655 S
C1217  C1223   1.402   .     A
C1217  C1221   1.395   .     A
C1218  C1220   1.390   .     A
C1218  H1276   1.082   .     S
C1218  C1226   1.402   .     A
C1219  C1228   1.402   .     A
C1219  H1277   1.083   .     S
C1219  C1221   1.389   .     A
C1220  H1103   1.076   1_655 S
C1222  H1273   1.074   .     S
C1222  C1224   1.409   .     A
C1223  C1225   1.409   .     A
C1223  H1272   1.074   .     S
C1224  C1229   1.428   .     A
C1224  C1226   1.417   .     A
C1225  C1230   1.429   .     A
C1225  C1228   1.418   .     A
C1226  C472    1.390   1_556 S
C1227  C1246   1.386   .     A
C1227  C1230   1.417   .     A
C1227  H1278   1.075   .     S
C1229  C1238   1.416   .     A
C1229  C456    1.428   1_556 S
C1231  H1259   1.084   .     S
C1231  C1248   1.488   .     S
C1231  O1290   1.221   .     D
C1232  H1260   1.084   .     S
C1232  O1282   1.221   .     D
C1232  C1249   1.488   .     S
C1233  C1234   1.406   .     A
C1233  C1239   1.399   .     A
C1234  H1261   1.083   .     S
C1234  C1235   1.399   .     A
C1235  C1236   1.397   .     A
C1236  C1237   1.398   .     A
C1237  C1239   1.398   .     A
C1237  H1265   1.082   .     S
C1238  H1254   1.076   .     S
C1238  C1247   1.385   .     A
C1239  H1266   1.076   .     S
C1240  C1241   1.406   .     A
C1240  C1245   1.398   .     A
C1241  H1267   1.083   .     S
C1241  C1242   1.399   .     A
C1242  C1243   1.398   .     A
C1242  H1526   1.082   .     S
C1243  C1244   1.398   .     A
C1243  H1527   1.082   .     S
C1244  H1270   1.082   .     S
C1244  C1245   1.398   .     A
C1245  H1271   1.076   .     S
C1246  H1253   1.084   .     S
C1247  H1264   1.084   .     S
C1247  C454    1.390   1_556 S
C1249  C1464   1.392   .     S
C1250  H1255   1.085   .     S
C1250  C1506   1.392   .     S
Cu1251 O1289   1.940   .     S
Cu1251 O1286   1.957   .     S
Cu1251 O1281   1.953   .     S
Cu1251 N1279   2.035   .     S
Cu1251 O1285   1.940   .     S
Cu1252 N1280   2.035   .     S
Cu1252 O1283   1.953   .     S
Cu1252 O1288   1.940   .     S
Cu1252 O1287   1.957   .     S
Cu1252 O1284   1.940   .     S
Cu1252 Cu1079  2.709   1_655 S
H1262  C1493   1.082   .     S
H1263  C1494   1.082   .     S
H1274  C1049   1.074   1_655 S
O1284  C1033   1.293   1_655 S
O1287  C1042   1.311   1_655 S
C1291  O1367   1.300   .     A
C1291  C1294   1.438   .     S
C1291  O1542   1.293   1_455 S
C1292  H1342   1.085   .     S
C1292  C1380   1.398   .     S
C1293  C1302   1.438   .     S
C1293  C1335   1.408   .     A
C1293  C1422   1.398   .     S
C1294  C1334   1.408   .     A
C1294  C1464   1.398   1_455 S
C1295  H1343   1.082   .     S
C1295  C1297   1.417   .     A
C1295  N1366   1.354   .     A
C1296  N1365   1.354   .     A
C1296  H1344   1.082   .     S
C1296  C1298   1.416   .     A
C1297  C1319   1.470   .     S
C1297  N1365   1.392   .     A
C1298  N1366   1.392   .     A
C1298  C1326   1.469   .     S
C1299  O1374   1.302   .     A
C1299  C1301   1.473   .     S
C1299  O1458   1.310   .     S
C1300  O1375   1.301   .     A
C1300  C1303   1.474   .     S
C1300  O1545   1.311   1_455 S
C1301  C1308   1.402   .     A
C1301  C1306   1.397   .     A
C1302  O1369   1.300   .     A
C1302  O1457   1.293   .     S
C1303  C1309   1.402   .     A
C1303  C1307   1.395   .     A
C1304  C1306   1.390   .     A
C1304  H1362   1.082   .     S
C1304  C1312   1.402   .     A
C1305  C1314   1.402   .     A
C1305  H1363   1.083   .     S
C1305  C1307   1.389   .     A
C1306  H1447   1.076   .     S
C1307  H1532   1.074   1_455 S
C1308  H1359   1.074   .     S
C1308  C1310   1.409   .     A
C1309  C1311   1.409   .     A
C1309  H1358   1.074   .     S
C1310  C1315   1.428   .     A
C1310  C1312   1.417   .     A
C1311  C1316   1.429   .     A
C1311  C1314   1.418   .     A
C1312  C558    1.390   1_556 S
C1313  C1332   1.386   .     A
C1313  C1316   1.417   .     A
C1313  H1364   1.075   .     S
C1315  C1324   1.416   .     A
C1315  C542    1.428   1_556 S
C1317  H1345   1.084   .     S
C1317  C1334   1.488   .     S
C1317  O1376   1.221   .     D
C1318  H1346   1.084   .     S
C1318  O1368   1.221   .     D
C1318  C1335   1.488   .     S
C1319  C1320   1.406   .     A
C1319  C1325   1.399   .     A
C1320  H1347   1.083   .     S
C1320  C1321   1.399   .     A
C1321  C1322   1.397   .     A
C1322  C1323   1.398   .     A
C1323  C1325   1.398   .     A
C1323  H1351   1.082   .     S
C1324  H1340   1.076   .     S
C1324  C1333   1.385   .     A
C1325  H1352   1.076   .     S
C1326  C1327   1.406   .     A
C1326  C1331   1.398   .     A
C1327  H1353   1.083   .     S
C1327  C1328   1.399   .     A
C1328  C1329   1.398   .     A
C1328  H838    1.082   1_565 S
C1329  C1330   1.398   .     A
C1329  H839    1.082   1_565 S
C1330  H1356   1.082   .     S
C1330  C1331   1.398   .     A
C1331  H1357   1.076   .     S
C1332  H1339   1.084   .     S
C1333  H1350   1.084   .     S
C1333  C540    1.390   1_556 S
C1335  C776    1.392   1_565 S
C1336  H1341   1.085   .     S
C1336  C1465   1.398   1_455 S
C1336  C818    1.392   1_565 S
Cu1337 O1375   1.940   .     S
Cu1337 O1372   1.957   .     S
Cu1337 O1367   1.953   .     S
Cu1337 N1365   2.035   .     S
Cu1337 O1371   1.940   .     S
Cu1337 Cu1510  2.709   1_455 S
Cu1338 N1366   2.035   .     S
Cu1338 O1369   1.953   .     S
Cu1338 O1374   1.940   .     S
Cu1338 O1373   1.957   .     S
Cu1338 O1370   1.940   .     S
Cu1338 Cu1423  2.709   .     S
H1348  C805    1.082   1_565 S
H1349  C806    1.082   1_565 S
H1360  C1393   1.074   .     S
H1361  C1478   1.076   1_455 S
O1370  C1377   1.293   .     S
O1371  C1474   1.293   1_455 S
O1372  C1471   1.310   1_455 S
O1373  C1386   1.311   .     S
C1377  O1453   1.300   .     A
C1377  C1380   1.438   .     S
C1378  H1428   1.085   .     S
C1378  C1466   1.398   .     S
C1379  C1388   1.438   .     S
C1379  C1421   1.408   .     A
C1379  C1508   1.398   .     S
C1380  C1420   1.408   .     A
C1381  H1429   1.082   .     S
C1381  C1383   1.417   .     A
C1381  N1452   1.354   .     A
C1382  N1451   1.354   .     A
C1382  H1430   1.082   .     S
C1382  C1384   1.416   .     A
C1383  C1405   1.470   .     S
C1383  N1451   1.392   .     A
C1384  N1452   1.392   .     A
C1384  C1412   1.469   .     S
C1385  O1460   1.302   .     A
C1385  C1387   1.473   .     S
C1385  O1544   1.310   .     S
C1386  O1461   1.301   .     A
C1386  C1389   1.474   .     S
C1387  C1394   1.402   .     A
C1387  C1392   1.397   .     A
C1388  O1455   1.300   .     A
C1388  O1543   1.293   .     S
C1389  C1395   1.402   .     A
C1389  C1393   1.395   .     A
C1390  C1392   1.390   .     A
C1390  H1448   1.082   .     S
C1390  C1398   1.402   .     A
C1391  C1400   1.402   .     A
C1391  H1449   1.083   .     S
C1391  C1393   1.389   .     A
C1392  H1533   1.076   .     S
C1394  H1445   1.074   .     S
C1394  C1396   1.409   .     A
C1395  C1397   1.409   .     A
C1395  H1444   1.074   .     S
C1396  C1401   1.428   .     A
C1396  C1398   1.417   .     A
C1397  C1402   1.429   .     A
C1397  C1400   1.418   .     A
C1398  C644    1.390   1_556 S
C1399  C1418   1.386   .     A
C1399  C1402   1.417   .     A
C1399  H1450   1.075   .     S
C1401  C1410   1.416   .     A
C1401  C628    1.428   1_556 S
C1403  H1431   1.084   .     S
C1403  C1420   1.488   .     S
C1403  O1462   1.221   .     D
C1404  H1432   1.084   .     S
C1404  O1454   1.221   .     D
C1404  C1421   1.488   .     S
C1405  C1406   1.406   .     A
C1405  C1411   1.399   .     A
C1406  H1433   1.083   .     S
C1406  C1407   1.399   .     A
C1407  C1408   1.397   .     A
C1408  C1409   1.398   .     A
C1409  C1411   1.398   .     A
C1409  H1437   1.082   .     S
C1410  H1426   1.076   .     S
C1410  C1419   1.385   .     A
C1411  H1438   1.076   .     S
C1412  C1413   1.406   .     A
C1412  C1417   1.398   .     A
C1413  H1439   1.083   .     S
C1413  C1414   1.399   .     A
C1414  C1415   1.398   .     A
C1414  H924    1.082   1_565 S
C1415  C1416   1.398   .     A
C1415  H925    1.082   1_565 S
C1416  H1442   1.082   .     S
C1416  C1417   1.398   .     A
C1417  H1443   1.076   .     S
C1418  H1425   1.084   .     S
C1419  H1436   1.084   .     S
C1419  C626    1.390   1_556 S
C1421  C862    1.392   1_565 S
C1422  H1427   1.085   .     S
C1422  C904    1.392   1_565 S
Cu1423 O1461   1.940   .     S
Cu1423 O1458   1.957   .     S
Cu1423 O1453   1.953   .     S
Cu1423 N1451   2.035   .     S
Cu1423 O1457   1.940   .     S
Cu1424 N1452   2.035   .     S
Cu1424 O1455   1.953   .     S
Cu1424 O1460   1.940   .     S
Cu1424 O1459   1.957   .     S
Cu1424 O1456   1.940   .     S
Cu1424 Cu1509  2.709   .     S
H1434  C891    1.082   1_565 S
H1435  C892    1.082   1_565 S
H1446  C1479   1.074   .     S
O1456  C1463   1.293   .     S
O1459  C1472   1.311   .     S
C1463  O1539   1.300   .     A
C1463  C1466   1.438   .     S
C1464  H1514   1.085   .     S
C1464  C1294   1.398   1_655 S
C1465  C1474   1.438   .     S
C1465  C1507   1.408   .     A
C1465  C1336   1.398   1_655 S
C1466  C1506   1.408   .     A
C1467  H1515   1.082   .     S
C1467  C1469   1.417   .     A
C1467  N1538   1.354   .     A
C1468  N1537   1.354   .     A
C1468  H1516   1.082   .     S
C1468  C1470   1.416   .     A
C1469  C1491   1.470   .     S
C1469  N1537   1.392   .     A
C1470  N1538   1.392   .     A
C1470  C1498   1.469   .     S
C1471  O1546   1.302   .     A
C1471  C1473   1.473   .     S
C1471  O1372   1.310   1_655 S
C1472  O1547   1.301   .     A
C1472  C1475   1.474   .     S
C1473  C1480   1.402   .     A
C1473  C1478   1.397   .     A
C1474  O1541   1.300   .     A
C1474  O1371   1.293   1_655 S
C1475  C1481   1.402   .     A
C1475  C1479   1.395   .     A
C1476  C1478   1.390   .     A
C1476  H1534   1.082   .     S
C1476  C1484   1.402   .     A
C1477  C1486   1.402   .     A
C1477  H1535   1.083   .     S
C1477  C1479   1.389   .     A
C1478  H1361   1.076   1_655 S
C1480  H1531   1.074   .     S
C1480  C1482   1.409   .     A
C1481  C1483   1.409   .     A
C1481  H1530   1.074   .     S
C1482  C1487   1.428   .     A
C1482  C1484   1.417   .     A
C1483  C1488   1.429   .     A
C1483  C1486   1.418   .     A
C1484  C730    1.390   1_556 S
C1485  C1504   1.386   .     A
C1485  C1488   1.417   .     A
C1485  H1536   1.075   .     S
C1487  C1496   1.416   .     A
C1487  C714    1.428   1_556 S
C1489  H1517   1.084   .     S
C1489  C1506   1.488   .     S
C1489  O1548   1.221   .     D
C1490  H1518   1.084   .     S
C1490  O1540   1.221   .     D
C1490  C1507   1.488   .     S
C1491  C1492   1.406   .     A
C1491  C1497   1.399   .     A
C1492  H1519   1.083   .     S
C1492  C1493   1.399   .     A
C1493  C1494   1.397   .     A
C1494  C1495   1.398   .     A
C1495  C1497   1.398   .     A
C1495  H1523   1.082   .     S
C1496  H1512   1.076   .     S
C1496  C1505   1.385   .     A
C1497  H1524   1.076   .     S
C1498  C1499   1.406   .     A
C1498  C1503   1.398   .     A
C1499  H1525   1.083   .     S
C1499  C1500   1.399   .     A
C1500  C1501   1.398   .     A
C1500  H1010   1.082   1_565 S
C1501  C1502   1.398   .     A
C1501  H1011   1.082   1_565 S
C1502  H1528   1.082   .     S
C1502  C1503   1.398   .     A
C1503  H1529   1.076   .     S
C1504  H1511   1.084   .     S
C1505  H1522   1.084   .     S
C1505  C712    1.390   1_556 S
C1507  C948    1.392   1_565 S
C1508  H1513   1.085   .     S
C1508  C990    1.392   1_565 S
Cu1509 O1547   1.940   .     S
Cu1509 O1544   1.957   .     S
Cu1509 O1539   1.953   .     S
Cu1509 N1537   2.035   .     S
Cu1509 O1543   1.940   .     S
Cu1510 N1538   2.035   .     S
Cu1510 O1541   1.953   .     S
Cu1510 O1546   1.940   .     S
Cu1510 O1545   1.957   .     S
Cu1510 O1542   1.940   .     S
Cu1510 Cu1337  2.709   1_655 S
H1520  C977    1.082   1_565 S
H1521  C978    1.082   1_565 S
H1532  C1307   1.074   1_655 S
O1542  C1291   1.293   1_655 S
O1545  C1300   1.311   1_655 S
