data_str_m2_o1_o10_pcu_sym.55
_audit_creation_date              2020-01-03
_audit_creation_method            'Materials Studio'
_symmetry_space_group_name_H-M    'P1'
_symmetry_Int_Tables_number       1
_symmetry_cell_setting            triclinic
loop_
_symmetry_equiv_pos_as_xyz
  x,y,z
_cell_length_a                    26.2031
_cell_length_b                    32.4990
_cell_length_c                    28.6143
_cell_angle_alpha                 90.1664
_cell_angle_beta                  98.1011
_cell_angle_gamma                 90.3848
loop_
_atom_site_label
_atom_site_type_symbol
_atom_site_fract_x
_atom_site_fract_y
_atom_site_fract_z
_atom_site_U_iso_or_equiv
_atom_site_adp_type
_atom_site_occupancy
C1     C     0.16661   0.08738   0.16661   0.00000  Uiso   1.00
C2     C     0.16510   0.02140   0.20888   0.00000  Uiso   1.00
C3     C     0.16673   0.29058   0.16673   0.00000  Uiso   1.00
C4     C     0.16661   0.04275   0.16660   0.00000  Uiso   1.00
C5     C     0.13389   0.14138   0.02037   0.00000  Uiso   1.00
C6     C     0.19944   0.19195   0.31296   0.00000  Uiso   1.00
C7     C     0.13404   0.14153   0.30407   0.00000  Uiso   1.00
C8     C     0.19930   0.19181   0.02927   0.00000  Uiso   1.00
C9     C     0.16672   0.24596   0.16673   0.00000  Uiso   1.00
C10    C     0.06791   0.16664   0.15455   0.00000  Uiso   1.00
C11    C     0.26542   0.16670   0.17878   0.00000  Uiso   1.00
C12    C     0.01259   0.16665   0.14791   0.00000  Uiso   1.00
C13    C     0.32074   0.16668   0.18542   0.00000  Uiso   1.00
C14    C     0.16817   0.02117   0.12439   0.00000  Uiso   1.00
C15    C     0.16516   0.31216   0.20894   0.00000  Uiso   1.00
C16    C     0.16824   0.31193   0.12445   0.00000  Uiso   1.00
Cu17   Cu    0.16667   0.16667   0.21355   0.00000  Uiso   1.00
Cu18   Cu    0.16667   0.16666   0.11978   0.00000  Uiso   1.00
H19    H     0.32584   0.16664   0.11197   0.00000  Uiso   1.00
H20    H     0.10692   0.08440   0.03065   0.00000  Uiso   1.00
H21    H     0.22642   0.24893   0.30269   0.00000  Uiso   1.00
H22    H     0.27155   0.21172   0.30816   0.00000  Uiso   1.00
H23    H     0.00749   0.16669   0.22136   0.00000  Uiso   1.00
H24    H     0.16944   0.03708   0.09136   0.00000  Uiso   1.00
H25    H     0.16389   0.29625   0.24197   0.00000  Uiso   1.00
H26    H     0.16953   0.29584   0.09144   0.00000  Uiso   1.00
H27    H     0.16381   0.03750   0.24190   0.00000  Uiso   1.00
H28    H     0.10799   0.12139   0.28172   0.00000  Uiso   1.00
H29    H     0.22534   0.21194   0.05161   0.00000  Uiso   1.00
H30    H     0.06179   0.12162   0.02517   0.00000  Uiso   1.00
N31    N     0.16668   0.16668   0.28403   0.00000  Uiso   1.00
N32    N     0.16665   0.16666   0.04931   0.00000  Uiso   1.00
N33    N     0.09937   0.11456   0.04031   0.00000  Uiso   1.00
N34    N     0.23397   0.21877   0.29302   0.00000  Uiso   1.00
O35    O     0.16666   0.10655   0.20625   0.00000  Uiso   1.00
O36    O     0.16667   0.22678   0.12709   0.00000  Uiso   1.00
O37    O     0.16666   0.10654   0.12706   0.00000  Uiso   1.00
O38    O     0.16667   0.22679   0.20628   0.00000  Uiso   1.00
O39    O     0.09161   0.16667   0.19712   0.00000  Uiso   1.00
O40    O     0.24172   0.16666   0.13621   0.00000  Uiso   1.00
O41    O     0.09161   0.16666   0.11793   0.00000  Uiso   1.00
O42    O     0.24172   0.16667   0.21540   0.00000  Uiso   1.00
C43    C     0.49995   0.08738   0.16661   0.00000  Uiso   1.00
C44    C     0.49843   0.02140   0.20888   0.00000  Uiso   1.00
C45    C     0.50006   0.29058   0.16673   0.00000  Uiso   1.00
C46    C     0.49994   0.04275   0.16660   0.00000  Uiso   1.00
C47    C     0.46723   0.14138   0.02037   0.00000  Uiso   1.00
C48    C     0.53277   0.19195   0.31296   0.00000  Uiso   1.00
C49    C     0.46737   0.14153   0.30407   0.00000  Uiso   1.00
C50    C     0.53263   0.19181   0.02927   0.00000  Uiso   1.00
C51    C     0.50005   0.24596   0.16673   0.00000  Uiso   1.00
C52    C     0.40125   0.16664   0.15455   0.00000  Uiso   1.00
C53    C     0.59875   0.16670   0.17878   0.00000  Uiso   1.00
C54    C     0.34592   0.16665   0.14791   0.00000  Uiso   1.00
C55    C     0.65408   0.16668   0.18542   0.00000  Uiso   1.00
C56    C     0.50151   0.02117   0.12439   0.00000  Uiso   1.00
C57    C     0.49850   0.31216   0.20894   0.00000  Uiso   1.00
C58    C     0.50157   0.31193   0.12445   0.00000  Uiso   1.00
Cu59   Cu    0.50000   0.16667   0.21355   0.00000  Uiso   1.00
Cu60   Cu    0.50000   0.16666   0.11978   0.00000  Uiso   1.00
H61    H     0.65917   0.16664   0.11197   0.00000  Uiso   1.00
H62    H     0.44025   0.08440   0.03065   0.00000  Uiso   1.00
H63    H     0.55975   0.24893   0.30269   0.00000  Uiso   1.00
H64    H     0.60488   0.21172   0.30816   0.00000  Uiso   1.00
H65    H     0.34083   0.16669   0.22136   0.00000  Uiso   1.00
H66    H     0.50278   0.03708   0.09136   0.00000  Uiso   1.00
H67    H     0.49723   0.29625   0.24197   0.00000  Uiso   1.00
H68    H     0.50286   0.29584   0.09144   0.00000  Uiso   1.00
H69    H     0.49714   0.03750   0.24190   0.00000  Uiso   1.00
H70    H     0.44133   0.12139   0.28172   0.00000  Uiso   1.00
H71    H     0.55867   0.21194   0.05161   0.00000  Uiso   1.00
H72    H     0.39512   0.12162   0.02517   0.00000  Uiso   1.00
N73    N     0.50001   0.16668   0.28403   0.00000  Uiso   1.00
N74    N     0.49999   0.16666   0.04931   0.00000  Uiso   1.00
N75    N     0.43270   0.11456   0.04031   0.00000  Uiso   1.00
N76    N     0.56730   0.21877   0.29302   0.00000  Uiso   1.00
O77    O     0.50000   0.10655   0.20625   0.00000  Uiso   1.00
O78    O     0.50000   0.22678   0.12709   0.00000  Uiso   1.00
O79    O     0.50000   0.10654   0.12706   0.00000  Uiso   1.00
O80    O     0.50000   0.22679   0.20628   0.00000  Uiso   1.00
O81    O     0.42495   0.16667   0.19712   0.00000  Uiso   1.00
O82    O     0.57505   0.16666   0.13621   0.00000  Uiso   1.00
O83    O     0.42494   0.16666   0.11793   0.00000  Uiso   1.00
O84    O     0.57506   0.16667   0.21540   0.00000  Uiso   1.00
C85    C     0.83328   0.08738   0.16661   0.00000  Uiso   1.00
C86    C     0.83176   0.02140   0.20888   0.00000  Uiso   1.00
C87    C     0.83339   0.29058   0.16673   0.00000  Uiso   1.00
C88    C     0.83328   0.04275   0.16660   0.00000  Uiso   1.00
C89    C     0.80056   0.14138   0.02037   0.00000  Uiso   1.00
C90    C     0.86611   0.19195   0.31296   0.00000  Uiso   1.00
C91    C     0.80070   0.14153   0.30407   0.00000  Uiso   1.00
C92    C     0.86596   0.19181   0.02927   0.00000  Uiso   1.00
C93    C     0.83339   0.24596   0.16673   0.00000  Uiso   1.00
C94    C     0.73458   0.16664   0.15455   0.00000  Uiso   1.00
C95    C     0.93209   0.16670   0.17878   0.00000  Uiso   1.00
C96    C     0.67926   0.16665   0.14791   0.00000  Uiso   1.00
C97    C     0.98741   0.16668   0.18542   0.00000  Uiso   1.00
C98    C     0.83484   0.02117   0.12439   0.00000  Uiso   1.00
C99    C     0.83183   0.31216   0.20894   0.00000  Uiso   1.00
C100   C     0.83490   0.31193   0.12445   0.00000  Uiso   1.00
Cu101  Cu    0.83333   0.16667   0.21355   0.00000  Uiso   1.00
Cu102  Cu    0.83333   0.16666   0.11978   0.00000  Uiso   1.00
H103   H     0.99251   0.16664   0.11197   0.00000  Uiso   1.00
H104   H     0.77358   0.08440   0.03065   0.00000  Uiso   1.00
H105   H     0.89309   0.24893   0.30269   0.00000  Uiso   1.00
H106   H     0.93821   0.21172   0.30816   0.00000  Uiso   1.00
H107   H     0.67416   0.16669   0.22136   0.00000  Uiso   1.00
H108   H     0.83611   0.03708   0.09136   0.00000  Uiso   1.00
H109   H     0.83056   0.29625   0.24197   0.00000  Uiso   1.00
H110   H     0.83620   0.29584   0.09144   0.00000  Uiso   1.00
H111   H     0.83047   0.03750   0.24190   0.00000  Uiso   1.00
H112   H     0.77466   0.12139   0.28172   0.00000  Uiso   1.00
H113   H     0.89201   0.21194   0.05161   0.00000  Uiso   1.00
H114   H     0.72845   0.12162   0.02517   0.00000  Uiso   1.00
N115   N     0.83335   0.16668   0.28403   0.00000  Uiso   1.00
N116   N     0.83332   0.16666   0.04931   0.00000  Uiso   1.00
N117   N     0.76603   0.11456   0.04031   0.00000  Uiso   1.00
N118   N     0.90063   0.21877   0.29302   0.00000  Uiso   1.00
O119   O     0.83333   0.10655   0.20625   0.00000  Uiso   1.00
O120   O     0.83334   0.22678   0.12709   0.00000  Uiso   1.00
O121   O     0.83333   0.10654   0.12706   0.00000  Uiso   1.00
O122   O     0.83334   0.22679   0.20628   0.00000  Uiso   1.00
O123   O     0.75828   0.16667   0.19712   0.00000  Uiso   1.00
O124   O     0.90839   0.16666   0.13621   0.00000  Uiso   1.00
O125   O     0.75828   0.16666   0.11793   0.00000  Uiso   1.00
O126   O     0.90839   0.16667   0.21540   0.00000  Uiso   1.00
C127   C     0.16661   0.42071   0.16661   0.00000  Uiso   1.00
C128   C     0.16510   0.35473   0.20888   0.00000  Uiso   1.00
C129   C     0.16673   0.62392   0.16673   0.00000  Uiso   1.00
C130   C     0.16661   0.37608   0.16660   0.00000  Uiso   1.00
C131   C     0.13389   0.47471   0.02037   0.00000  Uiso   1.00
C132   C     0.19944   0.52529   0.31296   0.00000  Uiso   1.00
C133   C     0.13404   0.47486   0.30407   0.00000  Uiso   1.00
C134   C     0.19930   0.52514   0.02927   0.00000  Uiso   1.00
C135   C     0.16672   0.57929   0.16673   0.00000  Uiso   1.00
C136   C     0.06791   0.49997   0.15455   0.00000  Uiso   1.00
C137   C     0.26542   0.50003   0.17878   0.00000  Uiso   1.00
C138   C     0.01259   0.49998   0.14791   0.00000  Uiso   1.00
C139   C     0.32074   0.50002   0.18542   0.00000  Uiso   1.00
C140   C     0.16817   0.35450   0.12439   0.00000  Uiso   1.00
C141   C     0.16516   0.64550   0.20894   0.00000  Uiso   1.00
C142   C     0.16824   0.64527   0.12445   0.00000  Uiso   1.00
Cu143  Cu    0.16667   0.50001   0.21355   0.00000  Uiso   1.00
Cu144  Cu    0.16667   0.49999   0.11978   0.00000  Uiso   1.00
H145   H     0.32584   0.49997   0.11197   0.00000  Uiso   1.00
H146   H     0.10692   0.41773   0.03065   0.00000  Uiso   1.00
H147   H     0.22642   0.58227   0.30269   0.00000  Uiso   1.00
H148   H     0.27155   0.54505   0.30816   0.00000  Uiso   1.00
H149   H     0.00749   0.50003   0.22136   0.00000  Uiso   1.00
H150   H     0.16944   0.37041   0.09136   0.00000  Uiso   1.00
H151   H     0.16389   0.62958   0.24197   0.00000  Uiso   1.00
H152   H     0.16953   0.62917   0.09144   0.00000  Uiso   1.00
H153   H     0.16381   0.37083   0.24190   0.00000  Uiso   1.00
H154   H     0.10799   0.45473   0.28172   0.00000  Uiso   1.00
H155   H     0.22534   0.54527   0.05161   0.00000  Uiso   1.00
H156   H     0.06179   0.45495   0.02517   0.00000  Uiso   1.00
N157   N     0.16668   0.50001   0.28403   0.00000  Uiso   1.00
N158   N     0.16665   0.49999   0.04931   0.00000  Uiso   1.00
N159   N     0.09937   0.44790   0.04031   0.00000  Uiso   1.00
N160   N     0.23397   0.55210   0.29302   0.00000  Uiso   1.00
O161   O     0.16666   0.43989   0.20625   0.00000  Uiso   1.00
O162   O     0.16667   0.56011   0.12709   0.00000  Uiso   1.00
O163   O     0.16666   0.43988   0.12706   0.00000  Uiso   1.00
O164   O     0.16667   0.56012   0.20628   0.00000  Uiso   1.00
O165   O     0.09161   0.50000   0.19712   0.00000  Uiso   1.00
O166   O     0.24172   0.50000   0.13621   0.00000  Uiso   1.00
O167   O     0.09161   0.49999   0.11793   0.00000  Uiso   1.00
O168   O     0.24172   0.50001   0.21540   0.00000  Uiso   1.00
C169   C     0.49995   0.42071   0.16661   0.00000  Uiso   1.00
C170   C     0.49843   0.35473   0.20888   0.00000  Uiso   1.00
C171   C     0.50006   0.62392   0.16673   0.00000  Uiso   1.00
C172   C     0.49994   0.37608   0.16660   0.00000  Uiso   1.00
C173   C     0.46723   0.47471   0.02037   0.00000  Uiso   1.00
C174   C     0.53277   0.52529   0.31296   0.00000  Uiso   1.00
C175   C     0.46737   0.47486   0.30407   0.00000  Uiso   1.00
C176   C     0.53263   0.52514   0.02927   0.00000  Uiso   1.00
C177   C     0.50005   0.57929   0.16673   0.00000  Uiso   1.00
C178   C     0.40125   0.49997   0.15455   0.00000  Uiso   1.00
C179   C     0.59875   0.50003   0.17878   0.00000  Uiso   1.00
C180   C     0.34592   0.49998   0.14791   0.00000  Uiso   1.00
C181   C     0.65408   0.50002   0.18542   0.00000  Uiso   1.00
C182   C     0.50151   0.35450   0.12439   0.00000  Uiso   1.00
C183   C     0.49850   0.64550   0.20894   0.00000  Uiso   1.00
C184   C     0.50157   0.64527   0.12445   0.00000  Uiso   1.00
Cu185  Cu    0.50000   0.50001   0.21355   0.00000  Uiso   1.00
Cu186  Cu    0.50000   0.49999   0.11978   0.00000  Uiso   1.00
H187   H     0.65917   0.49997   0.11197   0.00000  Uiso   1.00
H188   H     0.44025   0.41773   0.03065   0.00000  Uiso   1.00
H189   H     0.55975   0.58227   0.30269   0.00000  Uiso   1.00
H190   H     0.60488   0.54505   0.30816   0.00000  Uiso   1.00
H191   H     0.34083   0.50003   0.22136   0.00000  Uiso   1.00
H192   H     0.50278   0.37041   0.09136   0.00000  Uiso   1.00
H193   H     0.49723   0.62958   0.24197   0.00000  Uiso   1.00
H194   H     0.50286   0.62917   0.09144   0.00000  Uiso   1.00
H195   H     0.49714   0.37083   0.24190   0.00000  Uiso   1.00
H196   H     0.44133   0.45473   0.28172   0.00000  Uiso   1.00
H197   H     0.55867   0.54527   0.05161   0.00000  Uiso   1.00
H198   H     0.39512   0.45495   0.02517   0.00000  Uiso   1.00
N199   N     0.50001   0.50001   0.28403   0.00000  Uiso   1.00
N200   N     0.49999   0.49999   0.04931   0.00000  Uiso   1.00
N201   N     0.43270   0.44790   0.04031   0.00000  Uiso   1.00
N202   N     0.56730   0.55210   0.29302   0.00000  Uiso   1.00
O203   O     0.50000   0.43989   0.20625   0.00000  Uiso   1.00
O204   O     0.50000   0.56011   0.12709   0.00000  Uiso   1.00
O205   O     0.50000   0.43988   0.12706   0.00000  Uiso   1.00
O206   O     0.50000   0.56012   0.20628   0.00000  Uiso   1.00
O207   O     0.42495   0.50000   0.19712   0.00000  Uiso   1.00
O208   O     0.57505   0.50000   0.13621   0.00000  Uiso   1.00
O209   O     0.42494   0.49999   0.11793   0.00000  Uiso   1.00
O210   O     0.57506   0.50001   0.21540   0.00000  Uiso   1.00
C211   C     0.83328   0.42071   0.16661   0.00000  Uiso   1.00
C212   C     0.83176   0.35473   0.20888   0.00000  Uiso   1.00
C213   C     0.83339   0.62392   0.16673   0.00000  Uiso   1.00
C214   C     0.83328   0.37608   0.16660   0.00000  Uiso   1.00
C215   C     0.80056   0.47471   0.02037   0.00000  Uiso   1.00
C216   C     0.86611   0.52529   0.31296   0.00000  Uiso   1.00
C217   C     0.80070   0.47486   0.30407   0.00000  Uiso   1.00
C218   C     0.86596   0.52514   0.02927   0.00000  Uiso   1.00
C219   C     0.83339   0.57929   0.16673   0.00000  Uiso   1.00
C220   C     0.73458   0.49997   0.15455   0.00000  Uiso   1.00
C221   C     0.93209   0.50003   0.17878   0.00000  Uiso   1.00
C222   C     0.67926   0.49998   0.14791   0.00000  Uiso   1.00
C223   C     0.98741   0.50002   0.18542   0.00000  Uiso   1.00
C224   C     0.83484   0.35450   0.12439   0.00000  Uiso   1.00
C225   C     0.83183   0.64550   0.20894   0.00000  Uiso   1.00
C226   C     0.83490   0.64527   0.12445   0.00000  Uiso   1.00
Cu227  Cu    0.83333   0.50001   0.21355   0.00000  Uiso   1.00
Cu228  Cu    0.83333   0.49999   0.11978   0.00000  Uiso   1.00
H229   H     0.99251   0.49997   0.11197   0.00000  Uiso   1.00
H230   H     0.77358   0.41773   0.03065   0.00000  Uiso   1.00
H231   H     0.89309   0.58227   0.30269   0.00000  Uiso   1.00
H232   H     0.93821   0.54505   0.30816   0.00000  Uiso   1.00
H233   H     0.67416   0.50003   0.22136   0.00000  Uiso   1.00
H234   H     0.83611   0.37041   0.09136   0.00000  Uiso   1.00
H235   H     0.83056   0.62958   0.24197   0.00000  Uiso   1.00
H236   H     0.83620   0.62917   0.09144   0.00000  Uiso   1.00
H237   H     0.83047   0.37083   0.24190   0.00000  Uiso   1.00
H238   H     0.77466   0.45473   0.28172   0.00000  Uiso   1.00
H239   H     0.89201   0.54527   0.05161   0.00000  Uiso   1.00
H240   H     0.72845   0.45495   0.02517   0.00000  Uiso   1.00
N241   N     0.83335   0.50001   0.28403   0.00000  Uiso   1.00
N242   N     0.83332   0.49999   0.04931   0.00000  Uiso   1.00
N243   N     0.76603   0.44790   0.04031   0.00000  Uiso   1.00
N244   N     0.90063   0.55210   0.29302   0.00000  Uiso   1.00
O245   O     0.83333   0.43989   0.20625   0.00000  Uiso   1.00
O246   O     0.83334   0.56011   0.12709   0.00000  Uiso   1.00
O247   O     0.83333   0.43988   0.12706   0.00000  Uiso   1.00
O248   O     0.83334   0.56012   0.20628   0.00000  Uiso   1.00
O249   O     0.75828   0.50000   0.19712   0.00000  Uiso   1.00
O250   O     0.90839   0.50000   0.13621   0.00000  Uiso   1.00
O251   O     0.75828   0.49999   0.11793   0.00000  Uiso   1.00
O252   O     0.90839   0.50001   0.21540   0.00000  Uiso   1.00
C253   C     0.16661   0.75404   0.16661   0.00000  Uiso   1.00
C254   C     0.16510   0.68807   0.20888   0.00000  Uiso   1.00
C255   C     0.16673   0.95725   0.16673   0.00000  Uiso   1.00
C256   C     0.16661   0.70941   0.16660   0.00000  Uiso   1.00
C257   C     0.13389   0.80805   0.02037   0.00000  Uiso   1.00
C258   C     0.19944   0.85862   0.31296   0.00000  Uiso   1.00
C259   C     0.13404   0.80819   0.30407   0.00000  Uiso   1.00
C260   C     0.19930   0.85847   0.02927   0.00000  Uiso   1.00
C261   C     0.16672   0.91262   0.16673   0.00000  Uiso   1.00
C262   C     0.06791   0.83330   0.15455   0.00000  Uiso   1.00
C263   C     0.26542   0.83336   0.17878   0.00000  Uiso   1.00
C264   C     0.01259   0.83332   0.14791   0.00000  Uiso   1.00
C265   C     0.32074   0.83335   0.18542   0.00000  Uiso   1.00
C266   C     0.16817   0.68784   0.12439   0.00000  Uiso   1.00
C267   C     0.16516   0.97883   0.20894   0.00000  Uiso   1.00
C268   C     0.16824   0.97860   0.12445   0.00000  Uiso   1.00
Cu269  Cu    0.16667   0.83334   0.21355   0.00000  Uiso   1.00
Cu270  Cu    0.16667   0.83333   0.11978   0.00000  Uiso   1.00
H271   H     0.32584   0.83331   0.11197   0.00000  Uiso   1.00
H272   H     0.10692   0.75107   0.03065   0.00000  Uiso   1.00
H273   H     0.22642   0.91560   0.30269   0.00000  Uiso   1.00
H274   H     0.27155   0.87838   0.30816   0.00000  Uiso   1.00
H275   H     0.00749   0.83336   0.22136   0.00000  Uiso   1.00
H276   H     0.16944   0.70375   0.09136   0.00000  Uiso   1.00
H277   H     0.16389   0.96292   0.24197   0.00000  Uiso   1.00
H278   H     0.16953   0.96250   0.09144   0.00000  Uiso   1.00
H279   H     0.16381   0.70416   0.24190   0.00000  Uiso   1.00
H280   H     0.10799   0.78806   0.28172   0.00000  Uiso   1.00
H281   H     0.22534   0.87861   0.05161   0.00000  Uiso   1.00
H282   H     0.06179   0.78828   0.02517   0.00000  Uiso   1.00
N283   N     0.16668   0.83334   0.28403   0.00000  Uiso   1.00
N284   N     0.16665   0.83332   0.04931   0.00000  Uiso   1.00
N285   N     0.09937   0.78123   0.04031   0.00000  Uiso   1.00
N286   N     0.23397   0.88544   0.29302   0.00000  Uiso   1.00
O287   O     0.16666   0.77322   0.20625   0.00000  Uiso   1.00
O288   O     0.16667   0.89345   0.12709   0.00000  Uiso   1.00
O289   O     0.16666   0.77321   0.12706   0.00000  Uiso   1.00
O290   O     0.16667   0.89346   0.20628   0.00000  Uiso   1.00
O291   O     0.09161   0.83334   0.19712   0.00000  Uiso   1.00
O292   O     0.24172   0.83333   0.13621   0.00000  Uiso   1.00
O293   O     0.09161   0.83333   0.11793   0.00000  Uiso   1.00
O294   O     0.24172   0.83334   0.21540   0.00000  Uiso   1.00
C295   C     0.49995   0.75404   0.16661   0.00000  Uiso   1.00
C296   C     0.49843   0.68807   0.20888   0.00000  Uiso   1.00
C297   C     0.50006   0.95725   0.16673   0.00000  Uiso   1.00
C298   C     0.49994   0.70941   0.16660   0.00000  Uiso   1.00
C299   C     0.46723   0.80805   0.02037   0.00000  Uiso   1.00
C300   C     0.53277   0.85862   0.31296   0.00000  Uiso   1.00
C301   C     0.46737   0.80819   0.30407   0.00000  Uiso   1.00
C302   C     0.53263   0.85847   0.02927   0.00000  Uiso   1.00
C303   C     0.50005   0.91262   0.16673   0.00000  Uiso   1.00
C304   C     0.40125   0.83330   0.15455   0.00000  Uiso   1.00
C305   C     0.59875   0.83336   0.17878   0.00000  Uiso   1.00
C306   C     0.34592   0.83332   0.14791   0.00000  Uiso   1.00
C307   C     0.65408   0.83335   0.18542   0.00000  Uiso   1.00
C308   C     0.50151   0.68784   0.12439   0.00000  Uiso   1.00
C309   C     0.49850   0.97883   0.20894   0.00000  Uiso   1.00
C310   C     0.50157   0.97860   0.12445   0.00000  Uiso   1.00
Cu311  Cu    0.50000   0.83334   0.21355   0.00000  Uiso   1.00
Cu312  Cu    0.50000   0.83333   0.11978   0.00000  Uiso   1.00
H313   H     0.65917   0.83331   0.11197   0.00000  Uiso   1.00
H314   H     0.44025   0.75107   0.03065   0.00000  Uiso   1.00
H315   H     0.55975   0.91560   0.30269   0.00000  Uiso   1.00
H316   H     0.60488   0.87838   0.30816   0.00000  Uiso   1.00
H317   H     0.34083   0.83336   0.22136   0.00000  Uiso   1.00
H318   H     0.50278   0.70375   0.09136   0.00000  Uiso   1.00
H319   H     0.49723   0.96292   0.24197   0.00000  Uiso   1.00
H320   H     0.50286   0.96250   0.09144   0.00000  Uiso   1.00
H321   H     0.49714   0.70416   0.24190   0.00000  Uiso   1.00
H322   H     0.44133   0.78806   0.28172   0.00000  Uiso   1.00
H323   H     0.55867   0.87861   0.05161   0.00000  Uiso   1.00
H324   H     0.39512   0.78828   0.02517   0.00000  Uiso   1.00
N325   N     0.50001   0.83334   0.28403   0.00000  Uiso   1.00
N326   N     0.49999   0.83332   0.04931   0.00000  Uiso   1.00
N327   N     0.43270   0.78123   0.04031   0.00000  Uiso   1.00
N328   N     0.56730   0.88544   0.29302   0.00000  Uiso   1.00
O329   O     0.50000   0.77322   0.20625   0.00000  Uiso   1.00
O330   O     0.50000   0.89345   0.12709   0.00000  Uiso   1.00
O331   O     0.50000   0.77321   0.12706   0.00000  Uiso   1.00
O332   O     0.50000   0.89346   0.20628   0.00000  Uiso   1.00
O333   O     0.42495   0.83334   0.19712   0.00000  Uiso   1.00
O334   O     0.57505   0.83333   0.13621   0.00000  Uiso   1.00
O335   O     0.42494   0.83333   0.11793   0.00000  Uiso   1.00
O336   O     0.57506   0.83334   0.21540   0.00000  Uiso   1.00
C337   C     0.83328   0.75404   0.16661   0.00000  Uiso   1.00
C338   C     0.83176   0.68807   0.20888   0.00000  Uiso   1.00
C339   C     0.83339   0.95725   0.16673   0.00000  Uiso   1.00
C340   C     0.83328   0.70941   0.16660   0.00000  Uiso   1.00
C341   C     0.80056   0.80805   0.02037   0.00000  Uiso   1.00
C342   C     0.86611   0.85862   0.31296   0.00000  Uiso   1.00
C343   C     0.80070   0.80819   0.30407   0.00000  Uiso   1.00
C344   C     0.86596   0.85847   0.02927   0.00000  Uiso   1.00
C345   C     0.83339   0.91262   0.16673   0.00000  Uiso   1.00
C346   C     0.73458   0.83330   0.15455   0.00000  Uiso   1.00
C347   C     0.93209   0.83336   0.17878   0.00000  Uiso   1.00
C348   C     0.67926   0.83332   0.14791   0.00000  Uiso   1.00
C349   C     0.98741   0.83335   0.18542   0.00000  Uiso   1.00
C350   C     0.83484   0.68784   0.12439   0.00000  Uiso   1.00
C351   C     0.83183   0.97883   0.20894   0.00000  Uiso   1.00
C352   C     0.83490   0.97860   0.12445   0.00000  Uiso   1.00
Cu353  Cu    0.83333   0.83334   0.21355   0.00000  Uiso   1.00
Cu354  Cu    0.83333   0.83333   0.11978   0.00000  Uiso   1.00
H355   H     0.99251   0.83331   0.11197   0.00000  Uiso   1.00
H356   H     0.77358   0.75107   0.03065   0.00000  Uiso   1.00
H357   H     0.89309   0.91560   0.30269   0.00000  Uiso   1.00
H358   H     0.93821   0.87838   0.30816   0.00000  Uiso   1.00
H359   H     0.67416   0.83336   0.22136   0.00000  Uiso   1.00
H360   H     0.83611   0.70375   0.09136   0.00000  Uiso   1.00
H361   H     0.83056   0.96292   0.24197   0.00000  Uiso   1.00
H362   H     0.83620   0.96250   0.09144   0.00000  Uiso   1.00
H363   H     0.83047   0.70416   0.24190   0.00000  Uiso   1.00
H364   H     0.77466   0.78806   0.28172   0.00000  Uiso   1.00
H365   H     0.89201   0.87861   0.05161   0.00000  Uiso   1.00
H366   H     0.72845   0.78828   0.02517   0.00000  Uiso   1.00
N367   N     0.83335   0.83334   0.28403   0.00000  Uiso   1.00
N368   N     0.83332   0.83332   0.04931   0.00000  Uiso   1.00
N369   N     0.76603   0.78123   0.04031   0.00000  Uiso   1.00
N370   N     0.90063   0.88544   0.29302   0.00000  Uiso   1.00
O371   O     0.83333   0.77322   0.20625   0.00000  Uiso   1.00
O372   O     0.83334   0.89345   0.12709   0.00000  Uiso   1.00
O373   O     0.83333   0.77321   0.12706   0.00000  Uiso   1.00
O374   O     0.83334   0.89346   0.20628   0.00000  Uiso   1.00
O375   O     0.75828   0.83334   0.19712   0.00000  Uiso   1.00
O376   O     0.90839   0.83333   0.13621   0.00000  Uiso   1.00
O377   O     0.75828   0.83333   0.11793   0.00000  Uiso   1.00
O378   O     0.90839   0.83334   0.21540   0.00000  Uiso   1.00
C379   C     0.16661   0.08738   0.49994   0.00000  Uiso   1.00
C380   C     0.16510   0.02140   0.54222   0.00000  Uiso   1.00
C381   C     0.16673   0.29058   0.50006   0.00000  Uiso   1.00
C382   C     0.16661   0.04275   0.49994   0.00000  Uiso   1.00
C383   C     0.13389   0.14138   0.35371   0.00000  Uiso   1.00
C384   C     0.19944   0.19195   0.64629   0.00000  Uiso   1.00
C385   C     0.13404   0.14153   0.63740   0.00000  Uiso   1.00
C386   C     0.19930   0.19181   0.36260   0.00000  Uiso   1.00
C387   C     0.16672   0.24596   0.50006   0.00000  Uiso   1.00
C388   C     0.06791   0.16664   0.48788   0.00000  Uiso   1.00
C389   C     0.26542   0.16670   0.51212   0.00000  Uiso   1.00
C390   C     0.01259   0.16665   0.48125   0.00000  Uiso   1.00
C391   C     0.32074   0.16668   0.51875   0.00000  Uiso   1.00
C392   C     0.16817   0.02117   0.45772   0.00000  Uiso   1.00
C393   C     0.16516   0.31216   0.54228   0.00000  Uiso   1.00
C394   C     0.16824   0.31193   0.45778   0.00000  Uiso   1.00
Cu395  Cu    0.16667   0.16667   0.54689   0.00000  Uiso   1.00
Cu396  Cu    0.16667   0.16666   0.45311   0.00000  Uiso   1.00
H397   H     0.32584   0.16664   0.44530   0.00000  Uiso   1.00
H398   H     0.10692   0.08440   0.36398   0.00000  Uiso   1.00
H399   H     0.22642   0.24893   0.63602   0.00000  Uiso   1.00
H400   H     0.27155   0.21172   0.64149   0.00000  Uiso   1.00
H401   H     0.00749   0.16669   0.55470   0.00000  Uiso   1.00
H402   H     0.16944   0.03708   0.42469   0.00000  Uiso   1.00
H403   H     0.16389   0.29625   0.57531   0.00000  Uiso   1.00
H404   H     0.16953   0.29584   0.42477   0.00000  Uiso   1.00
H405   H     0.16381   0.03750   0.57523   0.00000  Uiso   1.00
H406   H     0.10799   0.12139   0.61506   0.00000  Uiso   1.00
H407   H     0.22534   0.21194   0.38494   0.00000  Uiso   1.00
H408   H     0.06179   0.12162   0.35851   0.00000  Uiso   1.00
N409   N     0.16668   0.16668   0.61736   0.00000  Uiso   1.00
N410   N     0.16665   0.16666   0.38264   0.00000  Uiso   1.00
N411   N     0.09937   0.11456   0.37364   0.00000  Uiso   1.00
N412   N     0.23397   0.21877   0.62635   0.00000  Uiso   1.00
O413   O     0.16666   0.10655   0.53958   0.00000  Uiso   1.00
O414   O     0.16667   0.22678   0.46042   0.00000  Uiso   1.00
O415   O     0.16666   0.10654   0.46039   0.00000  Uiso   1.00
O416   O     0.16667   0.22679   0.53961   0.00000  Uiso   1.00
O417   O     0.09161   0.16667   0.53046   0.00000  Uiso   1.00
O418   O     0.24172   0.16666   0.46954   0.00000  Uiso   1.00
O419   O     0.09161   0.16666   0.45127   0.00000  Uiso   1.00
O420   O     0.24172   0.16667   0.54873   0.00000  Uiso   1.00
C421   C     0.49995   0.08738   0.49994   0.00000  Uiso   1.00
C422   C     0.49843   0.02140   0.54222   0.00000  Uiso   1.00
C423   C     0.50006   0.29058   0.50006   0.00000  Uiso   1.00
C424   C     0.49994   0.04275   0.49994   0.00000  Uiso   1.00
C425   C     0.46723   0.14138   0.35371   0.00000  Uiso   1.00
C426   C     0.53277   0.19195   0.64629   0.00000  Uiso   1.00
C427   C     0.46737   0.14153   0.63740   0.00000  Uiso   1.00
C428   C     0.53263   0.19181   0.36260   0.00000  Uiso   1.00
C429   C     0.50005   0.24596   0.50006   0.00000  Uiso   1.00
C430   C     0.40125   0.16664   0.48788   0.00000  Uiso   1.00
C431   C     0.59875   0.16670   0.51212   0.00000  Uiso   1.00
C432   C     0.34592   0.16665   0.48125   0.00000  Uiso   1.00
C433   C     0.65408   0.16668   0.51875   0.00000  Uiso   1.00
C434   C     0.50151   0.02117   0.45772   0.00000  Uiso   1.00
C435   C     0.49850   0.31216   0.54228   0.00000  Uiso   1.00
C436   C     0.50157   0.31193   0.45778   0.00000  Uiso   1.00
Cu437  Cu    0.50000   0.16667   0.54689   0.00000  Uiso   1.00
Cu438  Cu    0.50000   0.16666   0.45311   0.00000  Uiso   1.00
H439   H     0.65917   0.16664   0.44530   0.00000  Uiso   1.00
H440   H     0.44025   0.08440   0.36398   0.00000  Uiso   1.00
H441   H     0.55975   0.24893   0.63602   0.00000  Uiso   1.00
H442   H     0.60488   0.21172   0.64149   0.00000  Uiso   1.00
H443   H     0.34083   0.16669   0.55470   0.00000  Uiso   1.00
H444   H     0.50278   0.03708   0.42469   0.00000  Uiso   1.00
H445   H     0.49723   0.29625   0.57531   0.00000  Uiso   1.00
H446   H     0.50286   0.29584   0.42477   0.00000  Uiso   1.00
H447   H     0.49714   0.03750   0.57523   0.00000  Uiso   1.00
H448   H     0.44133   0.12139   0.61506   0.00000  Uiso   1.00
H449   H     0.55867   0.21194   0.38494   0.00000  Uiso   1.00
H450   H     0.39512   0.12162   0.35851   0.00000  Uiso   1.00
N451   N     0.50001   0.16668   0.61736   0.00000  Uiso   1.00
N452   N     0.49999   0.16666   0.38264   0.00000  Uiso   1.00
N453   N     0.43270   0.11456   0.37364   0.00000  Uiso   1.00
N454   N     0.56730   0.21877   0.62635   0.00000  Uiso   1.00
O455   O     0.50000   0.10655   0.53958   0.00000  Uiso   1.00
O456   O     0.50000   0.22678   0.46042   0.00000  Uiso   1.00
O457   O     0.50000   0.10654   0.46039   0.00000  Uiso   1.00
O458   O     0.50000   0.22679   0.53961   0.00000  Uiso   1.00
O459   O     0.42495   0.16667   0.53046   0.00000  Uiso   1.00
O460   O     0.57505   0.16666   0.46954   0.00000  Uiso   1.00
O461   O     0.42494   0.16666   0.45127   0.00000  Uiso   1.00
O462   O     0.57506   0.16667   0.54873   0.00000  Uiso   1.00
C463   C     0.83328   0.08738   0.49994   0.00000  Uiso   1.00
C464   C     0.83176   0.02140   0.54222   0.00000  Uiso   1.00
C465   C     0.83339   0.29058   0.50006   0.00000  Uiso   1.00
C466   C     0.83328   0.04275   0.49994   0.00000  Uiso   1.00
C467   C     0.80056   0.14138   0.35371   0.00000  Uiso   1.00
C468   C     0.86611   0.19195   0.64629   0.00000  Uiso   1.00
C469   C     0.80070   0.14153   0.63740   0.00000  Uiso   1.00
C470   C     0.86596   0.19181   0.36260   0.00000  Uiso   1.00
C471   C     0.83339   0.24596   0.50006   0.00000  Uiso   1.00
C472   C     0.73458   0.16664   0.48788   0.00000  Uiso   1.00
C473   C     0.93209   0.16670   0.51212   0.00000  Uiso   1.00
C474   C     0.67926   0.16665   0.48125   0.00000  Uiso   1.00
C475   C     0.98741   0.16668   0.51875   0.00000  Uiso   1.00
C476   C     0.83484   0.02117   0.45772   0.00000  Uiso   1.00
C477   C     0.83183   0.31216   0.54228   0.00000  Uiso   1.00
C478   C     0.83490   0.31193   0.45778   0.00000  Uiso   1.00
Cu479  Cu    0.83333   0.16667   0.54689   0.00000  Uiso   1.00
Cu480  Cu    0.83333   0.16666   0.45311   0.00000  Uiso   1.00
H481   H     0.99251   0.16664   0.44530   0.00000  Uiso   1.00
H482   H     0.77358   0.08440   0.36398   0.00000  Uiso   1.00
H483   H     0.89309   0.24893   0.63602   0.00000  Uiso   1.00
H484   H     0.93821   0.21172   0.64149   0.00000  Uiso   1.00
H485   H     0.67416   0.16669   0.55470   0.00000  Uiso   1.00
H486   H     0.83611   0.03708   0.42469   0.00000  Uiso   1.00
H487   H     0.83056   0.29625   0.57531   0.00000  Uiso   1.00
H488   H     0.83620   0.29584   0.42477   0.00000  Uiso   1.00
H489   H     0.83047   0.03750   0.57523   0.00000  Uiso   1.00
H490   H     0.77466   0.12139   0.61506   0.00000  Uiso   1.00
H491   H     0.89201   0.21194   0.38494   0.00000  Uiso   1.00
H492   H     0.72845   0.12162   0.35851   0.00000  Uiso   1.00
N493   N     0.83335   0.16668   0.61736   0.00000  Uiso   1.00
N494   N     0.83332   0.16666   0.38264   0.00000  Uiso   1.00
N495   N     0.76603   0.11456   0.37364   0.00000  Uiso   1.00
N496   N     0.90063   0.21877   0.62635   0.00000  Uiso   1.00
O497   O     0.83333   0.10655   0.53958   0.00000  Uiso   1.00
O498   O     0.83334   0.22678   0.46042   0.00000  Uiso   1.00
O499   O     0.83333   0.10654   0.46039   0.00000  Uiso   1.00
O500   O     0.83334   0.22679   0.53961   0.00000  Uiso   1.00
O501   O     0.75828   0.16667   0.53046   0.00000  Uiso   1.00
O502   O     0.90839   0.16666   0.46954   0.00000  Uiso   1.00
O503   O     0.75828   0.16666   0.45127   0.00000  Uiso   1.00
O504   O     0.90839   0.16667   0.54873   0.00000  Uiso   1.00
C505   C     0.16661   0.42071   0.49994   0.00000  Uiso   1.00
C506   C     0.16510   0.35473   0.54222   0.00000  Uiso   1.00
C507   C     0.16673   0.62392   0.50006   0.00000  Uiso   1.00
C508   C     0.16661   0.37608   0.49994   0.00000  Uiso   1.00
C509   C     0.13389   0.47471   0.35371   0.00000  Uiso   1.00
C510   C     0.19944   0.52529   0.64629   0.00000  Uiso   1.00
C511   C     0.13404   0.47486   0.63740   0.00000  Uiso   1.00
C512   C     0.19930   0.52514   0.36260   0.00000  Uiso   1.00
C513   C     0.16672   0.57929   0.50006   0.00000  Uiso   1.00
C514   C     0.06791   0.49997   0.48788   0.00000  Uiso   1.00
C515   C     0.26542   0.50003   0.51212   0.00000  Uiso   1.00
C516   C     0.01259   0.49998   0.48125   0.00000  Uiso   1.00
C517   C     0.32074   0.50002   0.51875   0.00000  Uiso   1.00
C518   C     0.16817   0.35450   0.45772   0.00000  Uiso   1.00
C519   C     0.16516   0.64550   0.54228   0.00000  Uiso   1.00
C520   C     0.16824   0.64527   0.45778   0.00000  Uiso   1.00
Cu521  Cu    0.16667   0.50001   0.54689   0.00000  Uiso   1.00
Cu522  Cu    0.16667   0.49999   0.45311   0.00000  Uiso   1.00
H523   H     0.32584   0.49997   0.44530   0.00000  Uiso   1.00
H524   H     0.10692   0.41773   0.36398   0.00000  Uiso   1.00
H525   H     0.22642   0.58227   0.63602   0.00000  Uiso   1.00
H526   H     0.27155   0.54505   0.64149   0.00000  Uiso   1.00
H527   H     0.00749   0.50003   0.55470   0.00000  Uiso   1.00
H528   H     0.16944   0.37041   0.42469   0.00000  Uiso   1.00
H529   H     0.16389   0.62958   0.57531   0.00000  Uiso   1.00
H530   H     0.16953   0.62917   0.42477   0.00000  Uiso   1.00
H531   H     0.16381   0.37083   0.57523   0.00000  Uiso   1.00
H532   H     0.10799   0.45473   0.61506   0.00000  Uiso   1.00
H533   H     0.22534   0.54527   0.38494   0.00000  Uiso   1.00
H534   H     0.06179   0.45495   0.35851   0.00000  Uiso   1.00
N535   N     0.16668   0.50001   0.61736   0.00000  Uiso   1.00
N536   N     0.16665   0.49999   0.38264   0.00000  Uiso   1.00
N537   N     0.09937   0.44790   0.37364   0.00000  Uiso   1.00
N538   N     0.23397   0.55210   0.62635   0.00000  Uiso   1.00
O539   O     0.16666   0.43989   0.53958   0.00000  Uiso   1.00
O540   O     0.16667   0.56011   0.46042   0.00000  Uiso   1.00
O541   O     0.16666   0.43988   0.46039   0.00000  Uiso   1.00
O542   O     0.16667   0.56012   0.53961   0.00000  Uiso   1.00
O543   O     0.09161   0.50000   0.53046   0.00000  Uiso   1.00
O544   O     0.24172   0.50000   0.46954   0.00000  Uiso   1.00
O545   O     0.09161   0.49999   0.45127   0.00000  Uiso   1.00
O546   O     0.24172   0.50001   0.54873   0.00000  Uiso   1.00
C547   C     0.49995   0.42071   0.49994   0.00000  Uiso   1.00
C548   C     0.49843   0.35473   0.54222   0.00000  Uiso   1.00
C549   C     0.50006   0.62392   0.50006   0.00000  Uiso   1.00
C550   C     0.49994   0.37608   0.49994   0.00000  Uiso   1.00
C551   C     0.46723   0.47471   0.35371   0.00000  Uiso   1.00
C552   C     0.53277   0.52529   0.64629   0.00000  Uiso   1.00
C553   C     0.46737   0.47486   0.63740   0.00000  Uiso   1.00
C554   C     0.53263   0.52514   0.36260   0.00000  Uiso   1.00
C555   C     0.50005   0.57929   0.50006   0.00000  Uiso   1.00
C556   C     0.40125   0.49997   0.48788   0.00000  Uiso   1.00
C557   C     0.59875   0.50003   0.51212   0.00000  Uiso   1.00
C558   C     0.34592   0.49998   0.48125   0.00000  Uiso   1.00
C559   C     0.65408   0.50002   0.51875   0.00000  Uiso   1.00
C560   C     0.50151   0.35450   0.45772   0.00000  Uiso   1.00
C561   C     0.49850   0.64550   0.54228   0.00000  Uiso   1.00
C562   C     0.50157   0.64527   0.45778   0.00000  Uiso   1.00
Cu563  Cu    0.50000   0.50001   0.54689   0.00000  Uiso   1.00
Cu564  Cu    0.50000   0.49999   0.45311   0.00000  Uiso   1.00
H565   H     0.65917   0.49997   0.44530   0.00000  Uiso   1.00
H566   H     0.44025   0.41773   0.36398   0.00000  Uiso   1.00
H567   H     0.55975   0.58227   0.63602   0.00000  Uiso   1.00
H568   H     0.60488   0.54505   0.64149   0.00000  Uiso   1.00
H569   H     0.34083   0.50003   0.55470   0.00000  Uiso   1.00
H570   H     0.50278   0.37041   0.42469   0.00000  Uiso   1.00
H571   H     0.49723   0.62958   0.57531   0.00000  Uiso   1.00
H572   H     0.50286   0.62917   0.42477   0.00000  Uiso   1.00
H573   H     0.49714   0.37083   0.57523   0.00000  Uiso   1.00
H574   H     0.44133   0.45473   0.61506   0.00000  Uiso   1.00
H575   H     0.55867   0.54527   0.38494   0.00000  Uiso   1.00
H576   H     0.39512   0.45495   0.35851   0.00000  Uiso   1.00
N577   N     0.50001   0.50001   0.61736   0.00000  Uiso   1.00
N578   N     0.49999   0.49999   0.38264   0.00000  Uiso   1.00
N579   N     0.43270   0.44790   0.37364   0.00000  Uiso   1.00
N580   N     0.56730   0.55210   0.62635   0.00000  Uiso   1.00
O581   O     0.50000   0.43989   0.53958   0.00000  Uiso   1.00
O582   O     0.50000   0.56011   0.46042   0.00000  Uiso   1.00
O583   O     0.50000   0.43988   0.46039   0.00000  Uiso   1.00
O584   O     0.50000   0.56012   0.53961   0.00000  Uiso   1.00
O585   O     0.42495   0.50000   0.53046   0.00000  Uiso   1.00
O586   O     0.57505   0.50000   0.46954   0.00000  Uiso   1.00
O587   O     0.42494   0.49999   0.45127   0.00000  Uiso   1.00
O588   O     0.57506   0.50001   0.54873   0.00000  Uiso   1.00
C589   C     0.83328   0.42071   0.49994   0.00000  Uiso   1.00
C590   C     0.83176   0.35473   0.54222   0.00000  Uiso   1.00
C591   C     0.83339   0.62392   0.50006   0.00000  Uiso   1.00
C592   C     0.83328   0.37608   0.49994   0.00000  Uiso   1.00
C593   C     0.80056   0.47471   0.35371   0.00000  Uiso   1.00
C594   C     0.86611   0.52529   0.64629   0.00000  Uiso   1.00
C595   C     0.80070   0.47486   0.63740   0.00000  Uiso   1.00
C596   C     0.86596   0.52514   0.36260   0.00000  Uiso   1.00
C597   C     0.83339   0.57929   0.50006   0.00000  Uiso   1.00
C598   C     0.73458   0.49997   0.48788   0.00000  Uiso   1.00
C599   C     0.93209   0.50003   0.51212   0.00000  Uiso   1.00
C600   C     0.67926   0.49998   0.48125   0.00000  Uiso   1.00
C601   C     0.98741   0.50002   0.51875   0.00000  Uiso   1.00
C602   C     0.83484   0.35450   0.45772   0.00000  Uiso   1.00
C603   C     0.83183   0.64550   0.54228   0.00000  Uiso   1.00
C604   C     0.83490   0.64527   0.45778   0.00000  Uiso   1.00
Cu605  Cu    0.83333   0.50001   0.54689   0.00000  Uiso   1.00
Cu606  Cu    0.83333   0.49999   0.45311   0.00000  Uiso   1.00
H607   H     0.99251   0.49997   0.44530   0.00000  Uiso   1.00
H608   H     0.77358   0.41773   0.36398   0.00000  Uiso   1.00
H609   H     0.89309   0.58227   0.63602   0.00000  Uiso   1.00
H610   H     0.93821   0.54505   0.64149   0.00000  Uiso   1.00
H611   H     0.67416   0.50003   0.55470   0.00000  Uiso   1.00
H612   H     0.83611   0.37041   0.42469   0.00000  Uiso   1.00
H613   H     0.83056   0.62958   0.57531   0.00000  Uiso   1.00
H614   H     0.83620   0.62917   0.42477   0.00000  Uiso   1.00
H615   H     0.83047   0.37083   0.57523   0.00000  Uiso   1.00
H616   H     0.77466   0.45473   0.61506   0.00000  Uiso   1.00
H617   H     0.89201   0.54527   0.38494   0.00000  Uiso   1.00
H618   H     0.72845   0.45495   0.35851   0.00000  Uiso   1.00
N619   N     0.83335   0.50001   0.61736   0.00000  Uiso   1.00
N620   N     0.83332   0.49999   0.38264   0.00000  Uiso   1.00
N621   N     0.76603   0.44790   0.37364   0.00000  Uiso   1.00
N622   N     0.90063   0.55210   0.62635   0.00000  Uiso   1.00
O623   O     0.83333   0.43989   0.53958   0.00000  Uiso   1.00
O624   O     0.83334   0.56011   0.46042   0.00000  Uiso   1.00
O625   O     0.83333   0.43988   0.46039   0.00000  Uiso   1.00
O626   O     0.83334   0.56012   0.53961   0.00000  Uiso   1.00
O627   O     0.75828   0.50000   0.53046   0.00000  Uiso   1.00
O628   O     0.90839   0.50000   0.46954   0.00000  Uiso   1.00
O629   O     0.75828   0.49999   0.45127   0.00000  Uiso   1.00
O630   O     0.90839   0.50001   0.54873   0.00000  Uiso   1.00
C631   C     0.16661   0.75404   0.49994   0.00000  Uiso   1.00
C632   C     0.16510   0.68807   0.54222   0.00000  Uiso   1.00
C633   C     0.16673   0.95725   0.50006   0.00000  Uiso   1.00
C634   C     0.16661   0.70941   0.49994   0.00000  Uiso   1.00
C635   C     0.13389   0.80805   0.35371   0.00000  Uiso   1.00
C636   C     0.19944   0.85862   0.64629   0.00000  Uiso   1.00
C637   C     0.13404   0.80819   0.63740   0.00000  Uiso   1.00
C638   C     0.19930   0.85847   0.36260   0.00000  Uiso   1.00
C639   C     0.16672   0.91262   0.50006   0.00000  Uiso   1.00
C640   C     0.06791   0.83330   0.48788   0.00000  Uiso   1.00
C641   C     0.26542   0.83336   0.51212   0.00000  Uiso   1.00
C642   C     0.01259   0.83332   0.48125   0.00000  Uiso   1.00
C643   C     0.32074   0.83335   0.51875   0.00000  Uiso   1.00
C644   C     0.16817   0.68784   0.45772   0.00000  Uiso   1.00
C645   C     0.16516   0.97883   0.54228   0.00000  Uiso   1.00
C646   C     0.16824   0.97860   0.45778   0.00000  Uiso   1.00
Cu647  Cu    0.16667   0.83334   0.54689   0.00000  Uiso   1.00
Cu648  Cu    0.16667   0.83333   0.45311   0.00000  Uiso   1.00
H649   H     0.32584   0.83331   0.44530   0.00000  Uiso   1.00
H650   H     0.10692   0.75107   0.36398   0.00000  Uiso   1.00
H651   H     0.22642   0.91560   0.63602   0.00000  Uiso   1.00
H652   H     0.27155   0.87838   0.64149   0.00000  Uiso   1.00
H653   H     0.00749   0.83336   0.55470   0.00000  Uiso   1.00
H654   H     0.16944   0.70375   0.42469   0.00000  Uiso   1.00
H655   H     0.16389   0.96292   0.57531   0.00000  Uiso   1.00
H656   H     0.16953   0.96250   0.42477   0.00000  Uiso   1.00
H657   H     0.16381   0.70416   0.57523   0.00000  Uiso   1.00
H658   H     0.10799   0.78806   0.61506   0.00000  Uiso   1.00
H659   H     0.22534   0.87861   0.38494   0.00000  Uiso   1.00
H660   H     0.06179   0.78828   0.35851   0.00000  Uiso   1.00
N661   N     0.16668   0.83334   0.61736   0.00000  Uiso   1.00
N662   N     0.16665   0.83332   0.38264   0.00000  Uiso   1.00
N663   N     0.09937   0.78123   0.37364   0.00000  Uiso   1.00
N664   N     0.23397   0.88544   0.62635   0.00000  Uiso   1.00
O665   O     0.16666   0.77322   0.53958   0.00000  Uiso   1.00
O666   O     0.16667   0.89345   0.46042   0.00000  Uiso   1.00
O667   O     0.16666   0.77321   0.46039   0.00000  Uiso   1.00
O668   O     0.16667   0.89346   0.53961   0.00000  Uiso   1.00
O669   O     0.09161   0.83334   0.53046   0.00000  Uiso   1.00
O670   O     0.24172   0.83333   0.46954   0.00000  Uiso   1.00
O671   O     0.09161   0.83333   0.45127   0.00000  Uiso   1.00
O672   O     0.24172   0.83334   0.54873   0.00000  Uiso   1.00
C673   C     0.49995   0.75404   0.49994   0.00000  Uiso   1.00
C674   C     0.49843   0.68807   0.54222   0.00000  Uiso   1.00
C675   C     0.50006   0.95725   0.50006   0.00000  Uiso   1.00
C676   C     0.49994   0.70941   0.49994   0.00000  Uiso   1.00
C677   C     0.46723   0.80805   0.35371   0.00000  Uiso   1.00
C678   C     0.53277   0.85862   0.64629   0.00000  Uiso   1.00
C679   C     0.46737   0.80819   0.63740   0.00000  Uiso   1.00
C680   C     0.53263   0.85847   0.36260   0.00000  Uiso   1.00
C681   C     0.50005   0.91262   0.50006   0.00000  Uiso   1.00
C682   C     0.40125   0.83330   0.48788   0.00000  Uiso   1.00
C683   C     0.59875   0.83336   0.51212   0.00000  Uiso   1.00
C684   C     0.34592   0.83332   0.48125   0.00000  Uiso   1.00
C685   C     0.65408   0.83335   0.51875   0.00000  Uiso   1.00
C686   C     0.50151   0.68784   0.45772   0.00000  Uiso   1.00
C687   C     0.49850   0.97883   0.54228   0.00000  Uiso   1.00
C688   C     0.50157   0.97860   0.45778   0.00000  Uiso   1.00
Cu689  Cu    0.50000   0.83334   0.54689   0.00000  Uiso   1.00
Cu690  Cu    0.50000   0.83333   0.45311   0.00000  Uiso   1.00
H691   H     0.65917   0.83331   0.44530   0.00000  Uiso   1.00
H692   H     0.44025   0.75107   0.36398   0.00000  Uiso   1.00
H693   H     0.55975   0.91560   0.63602   0.00000  Uiso   1.00
H694   H     0.60488   0.87838   0.64149   0.00000  Uiso   1.00
H695   H     0.34083   0.83336   0.55470   0.00000  Uiso   1.00
H696   H     0.50278   0.70375   0.42469   0.00000  Uiso   1.00
H697   H     0.49723   0.96292   0.57531   0.00000  Uiso   1.00
H698   H     0.50286   0.96250   0.42477   0.00000  Uiso   1.00
H699   H     0.49714   0.70416   0.57523   0.00000  Uiso   1.00
H700   H     0.44133   0.78806   0.61506   0.00000  Uiso   1.00
H701   H     0.55867   0.87861   0.38494   0.00000  Uiso   1.00
H702   H     0.39512   0.78828   0.35851   0.00000  Uiso   1.00
N703   N     0.50001   0.83334   0.61736   0.00000  Uiso   1.00
N704   N     0.49999   0.83332   0.38264   0.00000  Uiso   1.00
N705   N     0.43270   0.78123   0.37364   0.00000  Uiso   1.00
N706   N     0.56730   0.88544   0.62635   0.00000  Uiso   1.00
O707   O     0.50000   0.77322   0.53958   0.00000  Uiso   1.00
O708   O     0.50000   0.89345   0.46042   0.00000  Uiso   1.00
O709   O     0.50000   0.77321   0.46039   0.00000  Uiso   1.00
O710   O     0.50000   0.89346   0.53961   0.00000  Uiso   1.00
O711   O     0.42495   0.83334   0.53046   0.00000  Uiso   1.00
O712   O     0.57505   0.83333   0.46954   0.00000  Uiso   1.00
O713   O     0.42494   0.83333   0.45127   0.00000  Uiso   1.00
O714   O     0.57506   0.83334   0.54873   0.00000  Uiso   1.00
C715   C     0.83328   0.75404   0.49994   0.00000  Uiso   1.00
C716   C     0.83176   0.68807   0.54222   0.00000  Uiso   1.00
C717   C     0.83339   0.95725   0.50006   0.00000  Uiso   1.00
C718   C     0.83328   0.70941   0.49994   0.00000  Uiso   1.00
C719   C     0.80056   0.80805   0.35371   0.00000  Uiso   1.00
C720   C     0.86611   0.85862   0.64629   0.00000  Uiso   1.00
C721   C     0.80070   0.80819   0.63740   0.00000  Uiso   1.00
C722   C     0.86596   0.85847   0.36260   0.00000  Uiso   1.00
C723   C     0.83339   0.91262   0.50006   0.00000  Uiso   1.00
C724   C     0.73458   0.83330   0.48788   0.00000  Uiso   1.00
C725   C     0.93209   0.83336   0.51212   0.00000  Uiso   1.00
C726   C     0.67926   0.83332   0.48125   0.00000  Uiso   1.00
C727   C     0.98741   0.83335   0.51875   0.00000  Uiso   1.00
C728   C     0.83484   0.68784   0.45772   0.00000  Uiso   1.00
C729   C     0.83183   0.97883   0.54228   0.00000  Uiso   1.00
C730   C     0.83490   0.97860   0.45778   0.00000  Uiso   1.00
Cu731  Cu    0.83333   0.83334   0.54689   0.00000  Uiso   1.00
Cu732  Cu    0.83333   0.83333   0.45311   0.00000  Uiso   1.00
H733   H     0.99251   0.83331   0.44530   0.00000  Uiso   1.00
H734   H     0.77358   0.75107   0.36398   0.00000  Uiso   1.00
H735   H     0.89309   0.91560   0.63602   0.00000  Uiso   1.00
H736   H     0.93821   0.87838   0.64149   0.00000  Uiso   1.00
H737   H     0.67416   0.83336   0.55470   0.00000  Uiso   1.00
H738   H     0.83611   0.70375   0.42469   0.00000  Uiso   1.00
H739   H     0.83056   0.96292   0.57531   0.00000  Uiso   1.00
H740   H     0.83620   0.96250   0.42477   0.00000  Uiso   1.00
H741   H     0.83047   0.70416   0.57523   0.00000  Uiso   1.00
H742   H     0.77466   0.78806   0.61506   0.00000  Uiso   1.00
H743   H     0.89201   0.87861   0.38494   0.00000  Uiso   1.00
H744   H     0.72845   0.78828   0.35851   0.00000  Uiso   1.00
N745   N     0.83335   0.83334   0.61736   0.00000  Uiso   1.00
N746   N     0.83332   0.83332   0.38264   0.00000  Uiso   1.00
N747   N     0.76603   0.78123   0.37364   0.00000  Uiso   1.00
N748   N     0.90063   0.88544   0.62635   0.00000  Uiso   1.00
O749   O     0.83333   0.77322   0.53958   0.00000  Uiso   1.00
O750   O     0.83334   0.89345   0.46042   0.00000  Uiso   1.00
O751   O     0.83333   0.77321   0.46039   0.00000  Uiso   1.00
O752   O     0.83334   0.89346   0.53961   0.00000  Uiso   1.00
O753   O     0.75828   0.83334   0.53046   0.00000  Uiso   1.00
O754   O     0.90839   0.83333   0.46954   0.00000  Uiso   1.00
O755   O     0.75828   0.83333   0.45127   0.00000  Uiso   1.00
O756   O     0.90839   0.83334   0.54873   0.00000  Uiso   1.00
C757   C     0.16661   0.08738   0.83327   0.00000  Uiso   1.00
C758   C     0.16510   0.02140   0.87555   0.00000  Uiso   1.00
C759   C     0.16673   0.29058   0.83340   0.00000  Uiso   1.00
C760   C     0.16661   0.04275   0.83327   0.00000  Uiso   1.00
C761   C     0.13389   0.14138   0.68704   0.00000  Uiso   1.00
C762   C     0.19944   0.19195   0.97963   0.00000  Uiso   1.00
C763   C     0.13404   0.14153   0.97073   0.00000  Uiso   1.00
C764   C     0.19930   0.19181   0.69593   0.00000  Uiso   1.00
C765   C     0.16672   0.24596   0.83339   0.00000  Uiso   1.00
C766   C     0.06791   0.16664   0.82122   0.00000  Uiso   1.00
C767   C     0.26542   0.16670   0.84545   0.00000  Uiso   1.00
C768   C     0.01259   0.16665   0.81458   0.00000  Uiso   1.00
C769   C     0.32074   0.16668   0.85209   0.00000  Uiso   1.00
C770   C     0.16817   0.02117   0.79106   0.00000  Uiso   1.00
C771   C     0.16516   0.31216   0.87561   0.00000  Uiso   1.00
C772   C     0.16824   0.31193   0.79112   0.00000  Uiso   1.00
Cu773  Cu    0.16667   0.16667   0.88022   0.00000  Uiso   1.00
Cu774  Cu    0.16667   0.16666   0.78645   0.00000  Uiso   1.00
H775   H     0.32584   0.16664   0.77864   0.00000  Uiso   1.00
H776   H     0.10692   0.08440   0.69731   0.00000  Uiso   1.00
H777   H     0.22642   0.24893   0.96936   0.00000  Uiso   1.00
H778   H     0.27155   0.21172   0.97482   0.00000  Uiso   1.00
H779   H     0.00749   0.16669   0.88803   0.00000  Uiso   1.00
H780   H     0.16944   0.03708   0.75803   0.00000  Uiso   1.00
H781   H     0.16389   0.29625   0.90864   0.00000  Uiso   1.00
H782   H     0.16953   0.29584   0.75810   0.00000  Uiso   1.00
H783   H     0.16381   0.03750   0.90856   0.00000  Uiso   1.00
H784   H     0.10799   0.12139   0.94839   0.00000  Uiso   1.00
H785   H     0.22534   0.21194   0.71828   0.00000  Uiso   1.00
H786   H     0.06179   0.12162   0.69184   0.00000  Uiso   1.00
N787   N     0.16668   0.16668   0.95069   0.00000  Uiso   1.00
N788   N     0.16665   0.16666   0.71597   0.00000  Uiso   1.00
N789   N     0.09937   0.11456   0.70698   0.00000  Uiso   1.00
N790   N     0.23397   0.21877   0.95969   0.00000  Uiso   1.00
O791   O     0.16666   0.10655   0.87291   0.00000  Uiso   1.00
O792   O     0.16667   0.22678   0.79375   0.00000  Uiso   1.00
O793   O     0.16666   0.10654   0.79372   0.00000  Uiso   1.00
O794   O     0.16667   0.22679   0.87294   0.00000  Uiso   1.00
O795   O     0.09161   0.16667   0.86379   0.00000  Uiso   1.00
O796   O     0.24172   0.16666   0.80288   0.00000  Uiso   1.00
O797   O     0.09161   0.16666   0.78460   0.00000  Uiso   1.00
O798   O     0.24172   0.16667   0.88207   0.00000  Uiso   1.00
C799   C     0.49995   0.08738   0.83327   0.00000  Uiso   1.00
C800   C     0.49843   0.02140   0.87555   0.00000  Uiso   1.00
C801   C     0.50006   0.29058   0.83340   0.00000  Uiso   1.00
C802   C     0.49994   0.04275   0.83327   0.00000  Uiso   1.00
C803   C     0.46723   0.14138   0.68704   0.00000  Uiso   1.00
C804   C     0.53277   0.19195   0.97963   0.00000  Uiso   1.00
C805   C     0.46737   0.14153   0.97073   0.00000  Uiso   1.00
C806   C     0.53263   0.19181   0.69593   0.00000  Uiso   1.00
C807   C     0.50005   0.24596   0.83339   0.00000  Uiso   1.00
C808   C     0.40125   0.16664   0.82122   0.00000  Uiso   1.00
C809   C     0.59875   0.16670   0.84545   0.00000  Uiso   1.00
C810   C     0.34592   0.16665   0.81458   0.00000  Uiso   1.00
C811   C     0.65408   0.16668   0.85209   0.00000  Uiso   1.00
C812   C     0.50151   0.02117   0.79106   0.00000  Uiso   1.00
C813   C     0.49850   0.31216   0.87561   0.00000  Uiso   1.00
C814   C     0.50157   0.31193   0.79112   0.00000  Uiso   1.00
Cu815  Cu    0.50000   0.16667   0.88022   0.00000  Uiso   1.00
Cu816  Cu    0.50000   0.16666   0.78645   0.00000  Uiso   1.00
H817   H     0.65917   0.16664   0.77864   0.00000  Uiso   1.00
H818   H     0.44025   0.08440   0.69731   0.00000  Uiso   1.00
H819   H     0.55975   0.24893   0.96936   0.00000  Uiso   1.00
H820   H     0.60488   0.21172   0.97482   0.00000  Uiso   1.00
H821   H     0.34083   0.16669   0.88803   0.00000  Uiso   1.00
H822   H     0.50278   0.03708   0.75803   0.00000  Uiso   1.00
H823   H     0.49723   0.29625   0.90864   0.00000  Uiso   1.00
H824   H     0.50286   0.29584   0.75810   0.00000  Uiso   1.00
H825   H     0.49714   0.03750   0.90856   0.00000  Uiso   1.00
H826   H     0.44133   0.12139   0.94839   0.00000  Uiso   1.00
H827   H     0.55867   0.21194   0.71828   0.00000  Uiso   1.00
H828   H     0.39512   0.12162   0.69184   0.00000  Uiso   1.00
N829   N     0.50001   0.16668   0.95069   0.00000  Uiso   1.00
N830   N     0.49999   0.16666   0.71597   0.00000  Uiso   1.00
N831   N     0.43270   0.11456   0.70698   0.00000  Uiso   1.00
N832   N     0.56730   0.21877   0.95969   0.00000  Uiso   1.00
O833   O     0.50000   0.10655   0.87291   0.00000  Uiso   1.00
O834   O     0.50000   0.22678   0.79375   0.00000  Uiso   1.00
O835   O     0.50000   0.10654   0.79372   0.00000  Uiso   1.00
O836   O     0.50000   0.22679   0.87294   0.00000  Uiso   1.00
O837   O     0.42495   0.16667   0.86379   0.00000  Uiso   1.00
O838   O     0.57505   0.16666   0.80288   0.00000  Uiso   1.00
O839   O     0.42494   0.16666   0.78460   0.00000  Uiso   1.00
O840   O     0.57506   0.16667   0.88207   0.00000  Uiso   1.00
C841   C     0.83328   0.08738   0.83327   0.00000  Uiso   1.00
C842   C     0.83176   0.02140   0.87555   0.00000  Uiso   1.00
C843   C     0.83339   0.29058   0.83340   0.00000  Uiso   1.00
C844   C     0.83328   0.04275   0.83327   0.00000  Uiso   1.00
C845   C     0.80056   0.14138   0.68704   0.00000  Uiso   1.00
C846   C     0.86611   0.19195   0.97963   0.00000  Uiso   1.00
C847   C     0.80070   0.14153   0.97073   0.00000  Uiso   1.00
C848   C     0.86596   0.19181   0.69593   0.00000  Uiso   1.00
C849   C     0.83339   0.24596   0.83339   0.00000  Uiso   1.00
C850   C     0.73458   0.16664   0.82122   0.00000  Uiso   1.00
C851   C     0.93209   0.16670   0.84545   0.00000  Uiso   1.00
C852   C     0.67926   0.16665   0.81458   0.00000  Uiso   1.00
C853   C     0.98741   0.16668   0.85209   0.00000  Uiso   1.00
C854   C     0.83484   0.02117   0.79106   0.00000  Uiso   1.00
C855   C     0.83183   0.31216   0.87561   0.00000  Uiso   1.00
C856   C     0.83490   0.31193   0.79112   0.00000  Uiso   1.00
Cu857  Cu    0.83333   0.16667   0.88022   0.00000  Uiso   1.00
Cu858  Cu    0.83333   0.16666   0.78645   0.00000  Uiso   1.00
H859   H     0.99251   0.16664   0.77864   0.00000  Uiso   1.00
H860   H     0.77358   0.08440   0.69731   0.00000  Uiso   1.00
H861   H     0.89309   0.24893   0.96936   0.00000  Uiso   1.00
H862   H     0.93821   0.21172   0.97482   0.00000  Uiso   1.00
H863   H     0.67416   0.16669   0.88803   0.00000  Uiso   1.00
H864   H     0.83611   0.03708   0.75803   0.00000  Uiso   1.00
H865   H     0.83056   0.29625   0.90864   0.00000  Uiso   1.00
H866   H     0.83620   0.29584   0.75810   0.00000  Uiso   1.00
H867   H     0.83047   0.03750   0.90856   0.00000  Uiso   1.00
H868   H     0.77466   0.12139   0.94839   0.00000  Uiso   1.00
H869   H     0.89201   0.21194   0.71828   0.00000  Uiso   1.00
H870   H     0.72845   0.12162   0.69184   0.00000  Uiso   1.00
N871   N     0.83335   0.16668   0.95069   0.00000  Uiso   1.00
N872   N     0.83332   0.16666   0.71597   0.00000  Uiso   1.00
N873   N     0.76603   0.11456   0.70698   0.00000  Uiso   1.00
N874   N     0.90063   0.21877   0.95969   0.00000  Uiso   1.00
O875   O     0.83333   0.10655   0.87291   0.00000  Uiso   1.00
O876   O     0.83334   0.22678   0.79375   0.00000  Uiso   1.00
O877   O     0.83333   0.10654   0.79372   0.00000  Uiso   1.00
O878   O     0.83334   0.22679   0.87294   0.00000  Uiso   1.00
O879   O     0.75828   0.16667   0.86379   0.00000  Uiso   1.00
O880   O     0.90839   0.16666   0.80288   0.00000  Uiso   1.00
O881   O     0.75828   0.16666   0.78460   0.00000  Uiso   1.00
O882   O     0.90839   0.16667   0.88207   0.00000  Uiso   1.00
C883   C     0.16661   0.42071   0.83327   0.00000  Uiso   1.00
C884   C     0.16510   0.35473   0.87555   0.00000  Uiso   1.00
C885   C     0.16673   0.62392   0.83340   0.00000  Uiso   1.00
C886   C     0.16661   0.37608   0.83327   0.00000  Uiso   1.00
C887   C     0.13389   0.47471   0.68704   0.00000  Uiso   1.00
C888   C     0.19944   0.52529   0.97963   0.00000  Uiso   1.00
C889   C     0.13404   0.47486   0.97073   0.00000  Uiso   1.00
C890   C     0.19930   0.52514   0.69593   0.00000  Uiso   1.00
C891   C     0.16672   0.57929   0.83339   0.00000  Uiso   1.00
C892   C     0.06791   0.49997   0.82122   0.00000  Uiso   1.00
C893   C     0.26542   0.50003   0.84545   0.00000  Uiso   1.00
C894   C     0.01259   0.49998   0.81458   0.00000  Uiso   1.00
C895   C     0.32074   0.50002   0.85209   0.00000  Uiso   1.00
C896   C     0.16817   0.35450   0.79106   0.00000  Uiso   1.00
C897   C     0.16516   0.64550   0.87561   0.00000  Uiso   1.00
C898   C     0.16824   0.64527   0.79112   0.00000  Uiso   1.00
Cu899  Cu    0.16667   0.50001   0.88022   0.00000  Uiso   1.00
Cu900  Cu    0.16667   0.49999   0.78645   0.00000  Uiso   1.00
H901   H     0.32584   0.49997   0.77864   0.00000  Uiso   1.00
H902   H     0.10692   0.41773   0.69731   0.00000  Uiso   1.00
H903   H     0.22642   0.58227   0.96936   0.00000  Uiso   1.00
H904   H     0.27155   0.54505   0.97482   0.00000  Uiso   1.00
H905   H     0.00749   0.50003   0.88803   0.00000  Uiso   1.00
H906   H     0.16944   0.37041   0.75803   0.00000  Uiso   1.00
H907   H     0.16389   0.62958   0.90864   0.00000  Uiso   1.00
H908   H     0.16953   0.62917   0.75810   0.00000  Uiso   1.00
H909   H     0.16381   0.37083   0.90856   0.00000  Uiso   1.00
H910   H     0.10799   0.45473   0.94839   0.00000  Uiso   1.00
H911   H     0.22534   0.54527   0.71828   0.00000  Uiso   1.00
H912   H     0.06179   0.45495   0.69184   0.00000  Uiso   1.00
N913   N     0.16668   0.50001   0.95069   0.00000  Uiso   1.00
N914   N     0.16665   0.49999   0.71597   0.00000  Uiso   1.00
N915   N     0.09937   0.44790   0.70698   0.00000  Uiso   1.00
N916   N     0.23397   0.55210   0.95969   0.00000  Uiso   1.00
O917   O     0.16666   0.43989   0.87291   0.00000  Uiso   1.00
O918   O     0.16667   0.56011   0.79375   0.00000  Uiso   1.00
O919   O     0.16666   0.43988   0.79372   0.00000  Uiso   1.00
O920   O     0.16667   0.56012   0.87294   0.00000  Uiso   1.00
O921   O     0.09161   0.50000   0.86379   0.00000  Uiso   1.00
O922   O     0.24172   0.50000   0.80288   0.00000  Uiso   1.00
O923   O     0.09161   0.49999   0.78460   0.00000  Uiso   1.00
O924   O     0.24172   0.50001   0.88207   0.00000  Uiso   1.00
C925   C     0.49995   0.42071   0.83327   0.00000  Uiso   1.00
C926   C     0.49843   0.35473   0.87555   0.00000  Uiso   1.00
C927   C     0.50006   0.62392   0.83340   0.00000  Uiso   1.00
C928   C     0.49994   0.37608   0.83327   0.00000  Uiso   1.00
C929   C     0.46723   0.47471   0.68704   0.00000  Uiso   1.00
C930   C     0.53277   0.52529   0.97963   0.00000  Uiso   1.00
C931   C     0.46737   0.47486   0.97073   0.00000  Uiso   1.00
C932   C     0.53263   0.52514   0.69593   0.00000  Uiso   1.00
C933   C     0.50005   0.57929   0.83339   0.00000  Uiso   1.00
C934   C     0.40125   0.49997   0.82122   0.00000  Uiso   1.00
C935   C     0.59875   0.50003   0.84545   0.00000  Uiso   1.00
C936   C     0.34592   0.49998   0.81458   0.00000  Uiso   1.00
C937   C     0.65408   0.50002   0.85209   0.00000  Uiso   1.00
C938   C     0.50151   0.35450   0.79106   0.00000  Uiso   1.00
C939   C     0.49850   0.64550   0.87561   0.00000  Uiso   1.00
C940   C     0.50157   0.64527   0.79112   0.00000  Uiso   1.00
Cu941  Cu    0.50000   0.50001   0.88022   0.00000  Uiso   1.00
Cu942  Cu    0.50000   0.49999   0.78645   0.00000  Uiso   1.00
H943   H     0.65917   0.49997   0.77864   0.00000  Uiso   1.00
H944   H     0.44025   0.41773   0.69731   0.00000  Uiso   1.00
H945   H     0.55975   0.58227   0.96936   0.00000  Uiso   1.00
H946   H     0.60488   0.54505   0.97482   0.00000  Uiso   1.00
H947   H     0.34083   0.50003   0.88803   0.00000  Uiso   1.00
H948   H     0.50278   0.37041   0.75803   0.00000  Uiso   1.00
H949   H     0.49723   0.62958   0.90864   0.00000  Uiso   1.00
H950   H     0.50286   0.62917   0.75810   0.00000  Uiso   1.00
H951   H     0.49714   0.37083   0.90856   0.00000  Uiso   1.00
H952   H     0.44133   0.45473   0.94839   0.00000  Uiso   1.00
H953   H     0.55867   0.54527   0.71828   0.00000  Uiso   1.00
H954   H     0.39512   0.45495   0.69184   0.00000  Uiso   1.00
N955   N     0.50001   0.50001   0.95069   0.00000  Uiso   1.00
N956   N     0.49999   0.49999   0.71597   0.00000  Uiso   1.00
N957   N     0.43270   0.44790   0.70698   0.00000  Uiso   1.00
N958   N     0.56730   0.55210   0.95969   0.00000  Uiso   1.00
O959   O     0.50000   0.43989   0.87291   0.00000  Uiso   1.00
O960   O     0.50000   0.56011   0.79375   0.00000  Uiso   1.00
O961   O     0.50000   0.43988   0.79372   0.00000  Uiso   1.00
O962   O     0.50000   0.56012   0.87294   0.00000  Uiso   1.00
O963   O     0.42495   0.50000   0.86379   0.00000  Uiso   1.00
O964   O     0.57505   0.50000   0.80288   0.00000  Uiso   1.00
O965   O     0.42494   0.49999   0.78460   0.00000  Uiso   1.00
O966   O     0.57506   0.50001   0.88207   0.00000  Uiso   1.00
C967   C     0.83328   0.42071   0.83327   0.00000  Uiso   1.00
C968   C     0.83176   0.35473   0.87555   0.00000  Uiso   1.00
C969   C     0.83339   0.62392   0.83340   0.00000  Uiso   1.00
C970   C     0.83328   0.37608   0.83327   0.00000  Uiso   1.00
C971   C     0.80056   0.47471   0.68704   0.00000  Uiso   1.00
C972   C     0.86611   0.52529   0.97963   0.00000  Uiso   1.00
C973   C     0.80070   0.47486   0.97073   0.00000  Uiso   1.00
C974   C     0.86596   0.52514   0.69593   0.00000  Uiso   1.00
C975   C     0.83339   0.57929   0.83339   0.00000  Uiso   1.00
C976   C     0.73458   0.49997   0.82122   0.00000  Uiso   1.00
C977   C     0.93209   0.50003   0.84545   0.00000  Uiso   1.00
C978   C     0.67926   0.49998   0.81458   0.00000  Uiso   1.00
C979   C     0.98741   0.50002   0.85209   0.00000  Uiso   1.00
C980   C     0.83484   0.35450   0.79106   0.00000  Uiso   1.00
C981   C     0.83183   0.64550   0.87561   0.00000  Uiso   1.00
C982   C     0.83490   0.64527   0.79112   0.00000  Uiso   1.00
Cu983  Cu    0.83333   0.50001   0.88022   0.00000  Uiso   1.00
Cu984  Cu    0.83333   0.49999   0.78645   0.00000  Uiso   1.00
H985   H     0.99251   0.49997   0.77864   0.00000  Uiso   1.00
H986   H     0.77358   0.41773   0.69731   0.00000  Uiso   1.00
H987   H     0.89309   0.58227   0.96936   0.00000  Uiso   1.00
H988   H     0.93821   0.54505   0.97482   0.00000  Uiso   1.00
H989   H     0.67416   0.50003   0.88803   0.00000  Uiso   1.00
H990   H     0.83611   0.37041   0.75803   0.00000  Uiso   1.00
H991   H     0.83056   0.62958   0.90864   0.00000  Uiso   1.00
H992   H     0.83620   0.62917   0.75810   0.00000  Uiso   1.00
H993   H     0.83047   0.37083   0.90856   0.00000  Uiso   1.00
H994   H     0.77466   0.45473   0.94839   0.00000  Uiso   1.00
H995   H     0.89201   0.54527   0.71828   0.00000  Uiso   1.00
H996   H     0.72845   0.45495   0.69184   0.00000  Uiso   1.00
N997   N     0.83335   0.50001   0.95069   0.00000  Uiso   1.00
N998   N     0.83332   0.49999   0.71597   0.00000  Uiso   1.00
N999   N     0.76603   0.44790   0.70698   0.00000  Uiso   1.00
N1000  N     0.90063   0.55210   0.95969   0.00000  Uiso   1.00
O1001  O     0.83333   0.43989   0.87291   0.00000  Uiso   1.00
O1002  O     0.83334   0.56011   0.79375   0.00000  Uiso   1.00
O1003  O     0.83333   0.43988   0.79372   0.00000  Uiso   1.00
O1004  O     0.83334   0.56012   0.87294   0.00000  Uiso   1.00
O1005  O     0.75828   0.50000   0.86379   0.00000  Uiso   1.00
O1006  O     0.90839   0.50000   0.80288   0.00000  Uiso   1.00
O1007  O     0.75828   0.49999   0.78460   0.00000  Uiso   1.00
O1008  O     0.90839   0.50001   0.88207   0.00000  Uiso   1.00
C1009  C     0.16661   0.75404   0.83327   0.00000  Uiso   1.00
C1010  C     0.16510   0.68807   0.87555   0.00000  Uiso   1.00
C1011  C     0.16673   0.95725   0.83340   0.00000  Uiso   1.00
C1012  C     0.16661   0.70941   0.83327   0.00000  Uiso   1.00
C1013  C     0.13389   0.80805   0.68704   0.00000  Uiso   1.00
C1014  C     0.19944   0.85862   0.97963   0.00000  Uiso   1.00
C1015  C     0.13404   0.80819   0.97073   0.00000  Uiso   1.00
C1016  C     0.19930   0.85847   0.69593   0.00000  Uiso   1.00
C1017  C     0.16672   0.91262   0.83339   0.00000  Uiso   1.00
C1018  C     0.06791   0.83330   0.82122   0.00000  Uiso   1.00
C1019  C     0.26542   0.83336   0.84545   0.00000  Uiso   1.00
C1020  C     0.01259   0.83332   0.81458   0.00000  Uiso   1.00
C1021  C     0.32074   0.83335   0.85209   0.00000  Uiso   1.00
C1022  C     0.16817   0.68784   0.79106   0.00000  Uiso   1.00
C1023  C     0.16516   0.97883   0.87561   0.00000  Uiso   1.00
C1024  C     0.16824   0.97860   0.79112   0.00000  Uiso   1.00
Cu1025 Cu    0.16667   0.83334   0.88022   0.00000  Uiso   1.00
Cu1026 Cu    0.16667   0.83333   0.78645   0.00000  Uiso   1.00
H1027  H     0.32584   0.83331   0.77864   0.00000  Uiso   1.00
H1028  H     0.10692   0.75107   0.69731   0.00000  Uiso   1.00
H1029  H     0.22642   0.91560   0.96936   0.00000  Uiso   1.00
H1030  H     0.27155   0.87838   0.97482   0.00000  Uiso   1.00
H1031  H     0.00749   0.83336   0.88803   0.00000  Uiso   1.00
H1032  H     0.16944   0.70375   0.75803   0.00000  Uiso   1.00
H1033  H     0.16389   0.96292   0.90864   0.00000  Uiso   1.00
H1034  H     0.16953   0.96250   0.75810   0.00000  Uiso   1.00
H1035  H     0.16381   0.70416   0.90856   0.00000  Uiso   1.00
H1036  H     0.10799   0.78806   0.94839   0.00000  Uiso   1.00
H1037  H     0.22534   0.87861   0.71828   0.00000  Uiso   1.00
H1038  H     0.06179   0.78828   0.69184   0.00000  Uiso   1.00
N1039  N     0.16668   0.83334   0.95069   0.00000  Uiso   1.00
N1040  N     0.16665   0.83332   0.71597   0.00000  Uiso   1.00
N1041  N     0.09937   0.78123   0.70698   0.00000  Uiso   1.00
N1042  N     0.23397   0.88544   0.95969   0.00000  Uiso   1.00
O1043  O     0.16666   0.77322   0.87291   0.00000  Uiso   1.00
O1044  O     0.16667   0.89345   0.79375   0.00000  Uiso   1.00
O1045  O     0.16666   0.77321   0.79372   0.00000  Uiso   1.00
O1046  O     0.16667   0.89346   0.87294   0.00000  Uiso   1.00
O1047  O     0.09161   0.83334   0.86379   0.00000  Uiso   1.00
O1048  O     0.24172   0.83333   0.80288   0.00000  Uiso   1.00
O1049  O     0.09161   0.83333   0.78460   0.00000  Uiso   1.00
O1050  O     0.24172   0.83334   0.88207   0.00000  Uiso   1.00
C1051  C     0.49995   0.75404   0.83327   0.00000  Uiso   1.00
C1052  C     0.49843   0.68807   0.87555   0.00000  Uiso   1.00
C1053  C     0.50006   0.95725   0.83340   0.00000  Uiso   1.00
C1054  C     0.49994   0.70941   0.83327   0.00000  Uiso   1.00
C1055  C     0.46723   0.80805   0.68704   0.00000  Uiso   1.00
C1056  C     0.53277   0.85862   0.97963   0.00000  Uiso   1.00
C1057  C     0.46737   0.80819   0.97073   0.00000  Uiso   1.00
C1058  C     0.53263   0.85847   0.69593   0.00000  Uiso   1.00
C1059  C     0.50005   0.91262   0.83339   0.00000  Uiso   1.00
C1060  C     0.40125   0.83330   0.82122   0.00000  Uiso   1.00
C1061  C     0.59875   0.83336   0.84545   0.00000  Uiso   1.00
C1062  C     0.34592   0.83332   0.81458   0.00000  Uiso   1.00
C1063  C     0.65408   0.83335   0.85209   0.00000  Uiso   1.00
C1064  C     0.50151   0.68784   0.79106   0.00000  Uiso   1.00
C1065  C     0.49850   0.97883   0.87561   0.00000  Uiso   1.00
C1066  C     0.50157   0.97860   0.79112   0.00000  Uiso   1.00
Cu1067 Cu    0.50000   0.83334   0.88022   0.00000  Uiso   1.00
Cu1068 Cu    0.50000   0.83333   0.78645   0.00000  Uiso   1.00
H1069  H     0.65917   0.83331   0.77864   0.00000  Uiso   1.00
H1070  H     0.44025   0.75107   0.69731   0.00000  Uiso   1.00
H1071  H     0.55975   0.91560   0.96936   0.00000  Uiso   1.00
H1072  H     0.60488   0.87838   0.97482   0.00000  Uiso   1.00
H1073  H     0.34083   0.83336   0.88803   0.00000  Uiso   1.00
H1074  H     0.50278   0.70375   0.75803   0.00000  Uiso   1.00
H1075  H     0.49723   0.96292   0.90864   0.00000  Uiso   1.00
H1076  H     0.50286   0.96250   0.75810   0.00000  Uiso   1.00
H1077  H     0.49714   0.70416   0.90856   0.00000  Uiso   1.00
H1078  H     0.44133   0.78806   0.94839   0.00000  Uiso   1.00
H1079  H     0.55867   0.87861   0.71828   0.00000  Uiso   1.00
H1080  H     0.39512   0.78828   0.69184   0.00000  Uiso   1.00
N1081  N     0.50001   0.83334   0.95069   0.00000  Uiso   1.00
N1082  N     0.49999   0.83332   0.71597   0.00000  Uiso   1.00
N1083  N     0.43270   0.78123   0.70698   0.00000  Uiso   1.00
N1084  N     0.56730   0.88544   0.95969   0.00000  Uiso   1.00
O1085  O     0.50000   0.77322   0.87291   0.00000  Uiso   1.00
O1086  O     0.50000   0.89345   0.79375   0.00000  Uiso   1.00
O1087  O     0.50000   0.77321   0.79372   0.00000  Uiso   1.00
O1088  O     0.50000   0.89346   0.87294   0.00000  Uiso   1.00
O1089  O     0.42495   0.83334   0.86379   0.00000  Uiso   1.00
O1090  O     0.57505   0.83333   0.80288   0.00000  Uiso   1.00
O1091  O     0.42494   0.83333   0.78460   0.00000  Uiso   1.00
O1092  O     0.57506   0.83334   0.88207   0.00000  Uiso   1.00
C1093  C     0.83328   0.75404   0.83327   0.00000  Uiso   1.00
C1094  C     0.83176   0.68807   0.87555   0.00000  Uiso   1.00
C1095  C     0.83339   0.95725   0.83340   0.00000  Uiso   1.00
C1096  C     0.83328   0.70941   0.83327   0.00000  Uiso   1.00
C1097  C     0.80056   0.80805   0.68704   0.00000  Uiso   1.00
C1098  C     0.86611   0.85862   0.97963   0.00000  Uiso   1.00
C1099  C     0.80070   0.80819   0.97073   0.00000  Uiso   1.00
C1100  C     0.86596   0.85847   0.69593   0.00000  Uiso   1.00
C1101  C     0.83339   0.91262   0.83339   0.00000  Uiso   1.00
C1102  C     0.73458   0.83330   0.82122   0.00000  Uiso   1.00
C1103  C     0.93209   0.83336   0.84545   0.00000  Uiso   1.00
C1104  C     0.67926   0.83332   0.81458   0.00000  Uiso   1.00
C1105  C     0.98741   0.83335   0.85209   0.00000  Uiso   1.00
C1106  C     0.83484   0.68784   0.79106   0.00000  Uiso   1.00
C1107  C     0.83183   0.97883   0.87561   0.00000  Uiso   1.00
C1108  C     0.83490   0.97860   0.79112   0.00000  Uiso   1.00
Cu1109 Cu    0.83333   0.83334   0.88022   0.00000  Uiso   1.00
Cu1110 Cu    0.83333   0.83333   0.78645   0.00000  Uiso   1.00
H1111  H     0.99251   0.83331   0.77864   0.00000  Uiso   1.00
H1112  H     0.77358   0.75107   0.69731   0.00000  Uiso   1.00
H1113  H     0.89309   0.91560   0.96936   0.00000  Uiso   1.00
H1114  H     0.93821   0.87838   0.97482   0.00000  Uiso   1.00
H1115  H     0.67416   0.83336   0.88803   0.00000  Uiso   1.00
H1116  H     0.83611   0.70375   0.75803   0.00000  Uiso   1.00
H1117  H     0.83056   0.96292   0.90864   0.00000  Uiso   1.00
H1118  H     0.83620   0.96250   0.75810   0.00000  Uiso   1.00
H1119  H     0.83047   0.70416   0.90856   0.00000  Uiso   1.00
H1120  H     0.77466   0.78806   0.94839   0.00000  Uiso   1.00
H1121  H     0.89201   0.87861   0.71828   0.00000  Uiso   1.00
H1122  H     0.72845   0.78828   0.69184   0.00000  Uiso   1.00
N1123  N     0.83335   0.83334   0.95069   0.00000  Uiso   1.00
N1124  N     0.83332   0.83332   0.71597   0.00000  Uiso   1.00
N1125  N     0.76603   0.78123   0.70698   0.00000  Uiso   1.00
N1126  N     0.90063   0.88544   0.95969   0.00000  Uiso   1.00
O1127  O     0.83333   0.77322   0.87291   0.00000  Uiso   1.00
O1128  O     0.83334   0.89345   0.79375   0.00000  Uiso   1.00
O1129  O     0.83333   0.77321   0.79372   0.00000  Uiso   1.00
O1130  O     0.83334   0.89346   0.87294   0.00000  Uiso   1.00
O1131  O     0.75828   0.83334   0.86379   0.00000  Uiso   1.00
O1132  O     0.90839   0.83333   0.80288   0.00000  Uiso   1.00
O1133  O     0.75828   0.83333   0.78460   0.00000  Uiso   1.00
O1134  O     0.90839   0.83334   0.88207   0.00000  Uiso   1.00
loop_
_geom_bond_atom_site_label_1
_geom_bond_atom_site_label_2
_geom_bond_distance
_geom_bond_site_symmetry_2
_ccdc_geom_bond_type
C1     O37     1.294   .     A
C1     C4      1.450   .     S
C1     O35     1.292   .     A
C2     C4      1.402   .     A
C2     H27     1.083   .     S
C2     C267    1.384   1_545 S
C3     C9      1.450   .     S
C3     C15     1.401   .     A
C3     C16     1.402   .     A
C4     C14     1.401   .     A
C5     N32     1.372   .     A
C5     N33     1.429   .     S
C5     C763    1.421   1_554 S
C6     N31     1.372   .     A
C6     N34     1.429   .     S
C6     C386    1.421   .     S
C7     N31     1.364   .     A
C7     H28     1.082   .     S
C7     C383    1.421   .     S
C8     H29     1.082   .     S
C8     N32     1.364   .     A
C8     C762    1.421   1_554 S
C9     O36     1.292   .     A
C9     O38     1.294   .     A
C10    O41     1.291   .     A
C10    C12     1.435   .     S
C10    O39     1.287   .     A
C11    C13     1.435   .     S
C11    O40     1.287   .     A
C11    O42     1.291   .     A
C12    C97     1.337   1_455 S
C12    H103    1.087   1_455 S
C13    C54     1.337   .     S
C13    H65     1.087   .     S
C14    H24     1.083   .     S
C14    C268    1.384   1_545 S
C15    H25     1.083   .     S
C15    C128    1.384   .     S
C16    H26     1.083   .     S
C16    C140    1.384   .     S
Cu17   Cu18    2.683   .     S
Cu17   N31     2.016   .     S
Cu17   O38     1.965   .     S
Cu17   O39     1.957   .     S
Cu17   O42     1.960   .     S
Cu17   O35     1.964   .     S
Cu18   O37     1.965   .     S
Cu18   N32     2.016   .     S
Cu18   O41     1.960   .     S
Cu18   O40     1.957   .     S
Cu18   O36     1.964   .     S
H19    C54     1.087   .     S
H20    N33     1.045   .     S
H21    N34     1.046   .     S
H22    N34     1.046   .     S
H23    C97     1.087   1_455 S
H30    N33     1.046   .     S
C43    O79     1.294   .     A
C43    C46     1.450   .     S
C43    O77     1.292   .     A
C44    C46     1.402   .     A
C44    H69     1.083   .     S
C44    C309    1.384   1_545 S
C45    C51     1.450   .     S
C45    C57     1.401   .     A
C45    C58     1.402   .     A
C46    C56     1.401   .     A
C47    N74     1.372   .     A
C47    N75     1.429   .     S
C47    C805    1.421   1_554 S
C48    N73     1.372   .     A
C48    N76     1.429   .     S
C48    C428    1.421   .     S
C49    N73     1.364   .     A
C49    H70     1.082   .     S
C49    C425    1.421   .     S
C50    H71     1.082   .     S
C50    N74     1.364   .     A
C50    C804    1.421   1_554 S
C51    O78     1.292   .     A
C51    O80     1.294   .     A
C52    O83     1.291   .     A
C52    C54     1.435   .     S
C52    O81     1.287   .     A
C53    C55     1.435   .     S
C53    O82     1.287   .     A
C53    O84     1.291   .     A
C55    C96     1.337   .     S
C55    H107    1.087   .     S
C56    H66     1.083   .     S
C56    C310    1.384   1_545 S
C57    H67     1.083   .     S
C57    C170    1.384   .     S
C58    H68     1.083   .     S
C58    C182    1.384   .     S
Cu59   Cu60    2.683   .     S
Cu59   N73     2.016   .     S
Cu59   O80     1.965   .     S
Cu59   O81     1.957   .     S
Cu59   O84     1.960   .     S
Cu59   O77     1.964   .     S
Cu60   O79     1.965   .     S
Cu60   N74     2.016   .     S
Cu60   O83     1.960   .     S
Cu60   O82     1.957   .     S
Cu60   O78     1.964   .     S
H61    C96     1.087   .     S
H62    N75     1.045   .     S
H63    N76     1.046   .     S
H64    N76     1.046   .     S
H72    N75     1.046   .     S
C85    O121    1.294   .     A
C85    C88     1.450   .     S
C85    O119    1.292   .     A
C86    C88     1.402   .     A
C86    H111    1.083   .     S
C86    C351    1.384   1_545 S
C87    C93     1.450   .     S
C87    C99     1.401   .     A
C87    C100    1.402   .     A
C88    C98     1.401   .     A
C89    N116    1.372   .     A
C89    N117    1.429   .     S
C89    C847    1.421   1_554 S
C90    N115    1.372   .     A
C90    N118    1.429   .     S
C90    C470    1.421   .     S
C91    N115    1.364   .     A
C91    H112    1.082   .     S
C91    C467    1.421   .     S
C92    H113    1.082   .     S
C92    N116    1.364   .     A
C92    C846    1.421   1_554 S
C93    O120    1.292   .     A
C93    O122    1.294   .     A
C94    O125    1.291   .     A
C94    C96     1.435   .     S
C94    O123    1.287   .     A
C95    C97     1.435   .     S
C95    O124    1.287   .     A
C95    O126    1.291   .     A
C97    C12     1.337   1_655 S
C97    H23     1.087   1_655 S
C98    H108    1.083   .     S
C98    C352    1.384   1_545 S
C99    H109    1.083   .     S
C99    C212    1.384   .     S
C100   H110    1.083   .     S
C100   C224    1.384   .     S
Cu101  Cu102   2.683   .     S
Cu101  N115    2.016   .     S
Cu101  O122    1.965   .     S
Cu101  O123    1.957   .     S
Cu101  O126    1.960   .     S
Cu101  O119    1.964   .     S
Cu102  O121    1.965   .     S
Cu102  N116    2.016   .     S
Cu102  O125    1.960   .     S
Cu102  O124    1.957   .     S
Cu102  O120    1.964   .     S
H103   C12     1.087   1_655 S
H104   N117    1.045   .     S
H105   N118    1.046   .     S
H106   N118    1.046   .     S
H114   N117    1.046   .     S
C127   O163    1.294   .     A
C127   C130    1.450   .     S
C127   O161    1.292   .     A
C128   C130    1.402   .     A
C128   H153    1.083   .     S
C129   C135    1.450   .     S
C129   C141    1.401   .     A
C129   C142    1.402   .     A
C130   C140    1.401   .     A
C131   N158    1.372   .     A
C131   N159    1.429   .     S
C131   C889    1.421   1_554 S
C132   N157    1.372   .     A
C132   N160    1.429   .     S
C132   C512    1.421   .     S
C133   N157    1.364   .     A
C133   H154    1.082   .     S
C133   C509    1.421   .     S
C134   H155    1.082   .     S
C134   N158    1.364   .     A
C134   C888    1.421   1_554 S
C135   O162    1.292   .     A
C135   O164    1.294   .     A
C136   O167    1.291   .     A
C136   C138    1.435   .     S
C136   O165    1.287   .     A
C137   C139    1.435   .     S
C137   O166    1.287   .     A
C137   O168    1.291   .     A
C138   C223    1.337   1_455 S
C138   H229    1.087   1_455 S
C139   C180    1.337   .     S
C139   H191    1.087   .     S
C140   H150    1.083   .     S
C141   H151    1.083   .     S
C141   C254    1.384   .     S
C142   H152    1.083   .     S
C142   C266    1.384   .     S
Cu143  Cu144   2.683   .     S
Cu143  N157    2.016   .     S
Cu143  O164    1.965   .     S
Cu143  O165    1.957   .     S
Cu143  O168    1.960   .     S
Cu143  O161    1.964   .     S
Cu144  O163    1.965   .     S
Cu144  N158    2.016   .     S
Cu144  O167    1.960   .     S
Cu144  O166    1.957   .     S
Cu144  O162    1.964   .     S
H145   C180    1.087   .     S
H146   N159    1.045   .     S
H147   N160    1.046   .     S
H148   N160    1.046   .     S
H149   C223    1.087   1_455 S
H156   N159    1.046   .     S
C169   O205    1.294   .     A
C169   C172    1.450   .     S
C169   O203    1.292   .     A
C170   C172    1.402   .     A
C170   H195    1.083   .     S
C171   C177    1.450   .     S
C171   C183    1.401   .     A
C171   C184    1.402   .     A
C172   C182    1.401   .     A
C173   N200    1.372   .     A
C173   N201    1.429   .     S
C173   C931    1.421   1_554 S
C174   N199    1.372   .     A
C174   N202    1.429   .     S
C174   C554    1.421   .     S
C175   N199    1.364   .     A
C175   H196    1.082   .     S
C175   C551    1.421   .     S
C176   H197    1.082   .     S
C176   N200    1.364   .     A
C176   C930    1.421   1_554 S
C177   O204    1.292   .     A
C177   O206    1.294   .     A
C178   O209    1.291   .     A
C178   C180    1.435   .     S
C178   O207    1.287   .     A
C179   C181    1.435   .     S
C179   O208    1.287   .     A
C179   O210    1.291   .     A
C181   C222    1.337   .     S
C181   H233    1.087   .     S
C182   H192    1.083   .     S
C183   H193    1.083   .     S
C183   C296    1.384   .     S
C184   H194    1.083   .     S
C184   C308    1.384   .     S
Cu185  Cu186   2.683   .     S
Cu185  N199    2.016   .     S
Cu185  O206    1.965   .     S
Cu185  O207    1.957   .     S
Cu185  O210    1.960   .     S
Cu185  O203    1.964   .     S
Cu186  O205    1.965   .     S
Cu186  N200    2.016   .     S
Cu186  O209    1.960   .     S
Cu186  O208    1.957   .     S
Cu186  O204    1.964   .     S
H187   C222    1.087   .     S
H188   N201    1.045   .     S
H189   N202    1.046   .     S
H190   N202    1.046   .     S
H198   N201    1.046   .     S
C211   O247    1.294   .     A
C211   C214    1.450   .     S
C211   O245    1.292   .     A
C212   C214    1.402   .     A
C212   H237    1.083   .     S
C213   C219    1.450   .     S
C213   C225    1.401   .     A
C213   C226    1.402   .     A
C214   C224    1.401   .     A
C215   N242    1.372   .     A
C215   N243    1.429   .     S
C215   C973    1.421   1_554 S
C216   N241    1.372   .     A
C216   N244    1.429   .     S
C216   C596    1.421   .     S
C217   N241    1.364   .     A
C217   H238    1.082   .     S
C217   C593    1.421   .     S
C218   H239    1.082   .     S
C218   N242    1.364   .     A
C218   C972    1.421   1_554 S
C219   O246    1.292   .     A
C219   O248    1.294   .     A
C220   O251    1.291   .     A
C220   C222    1.435   .     S
C220   O249    1.287   .     A
C221   C223    1.435   .     S
C221   O250    1.287   .     A
C221   O252    1.291   .     A
C223   C138    1.337   1_655 S
C223   H149    1.087   1_655 S
C224   H234    1.083   .     S
C225   H235    1.083   .     S
C225   C338    1.384   .     S
C226   H236    1.083   .     S
C226   C350    1.384   .     S
Cu227  Cu228   2.683   .     S
Cu227  N241    2.016   .     S
Cu227  O248    1.965   .     S
Cu227  O249    1.957   .     S
Cu227  O252    1.960   .     S
Cu227  O245    1.964   .     S
Cu228  O247    1.965   .     S
Cu228  N242    2.016   .     S
Cu228  O251    1.960   .     S
Cu228  O250    1.957   .     S
Cu228  O246    1.964   .     S
H229   C138    1.087   1_655 S
H230   N243    1.045   .     S
H231   N244    1.046   .     S
H232   N244    1.046   .     S
H240   N243    1.046   .     S
C253   O289    1.294   .     A
C253   C256    1.450   .     S
C253   O287    1.292   .     A
C254   C256    1.402   .     A
C254   H279    1.083   .     S
C255   C261    1.450   .     S
C255   C267    1.401   .     A
C255   C268    1.402   .     A
C256   C266    1.401   .     A
C257   N284    1.372   .     A
C257   N285    1.429   .     S
C257   C1015   1.421   1_554 S
C258   N283    1.372   .     A
C258   N286    1.429   .     S
C258   C638    1.421   .     S
C259   N283    1.364   .     A
C259   H280    1.082   .     S
C259   C635    1.421   .     S
C260   H281    1.082   .     S
C260   N284    1.364   .     A
C260   C1014   1.421   1_554 S
C261   O288    1.292   .     A
C261   O290    1.294   .     A
C262   O293    1.291   .     A
C262   C264    1.435   .     S
C262   O291    1.287   .     A
C263   C265    1.435   .     S
C263   O292    1.287   .     A
C263   O294    1.291   .     A
C264   C349    1.337   1_455 S
C264   H355    1.087   1_455 S
C265   C306    1.337   .     S
C265   H317    1.087   .     S
C266   H276    1.083   .     S
C267   H277    1.083   .     S
C267   C2      1.384   1_565 S
C268   H278    1.083   .     S
C268   C14     1.384   1_565 S
Cu269  Cu270   2.683   .     S
Cu269  N283    2.016   .     S
Cu269  O290    1.965   .     S
Cu269  O291    1.957   .     S
Cu269  O294    1.960   .     S
Cu269  O287    1.964   .     S
Cu270  O289    1.965   .     S
Cu270  N284    2.016   .     S
Cu270  O293    1.960   .     S
Cu270  O292    1.957   .     S
Cu270  O288    1.964   .     S
H271   C306    1.087   .     S
H272   N285    1.045   .     S
H273   N286    1.046   .     S
H274   N286    1.046   .     S
H275   C349    1.087   1_455 S
H282   N285    1.046   .     S
C295   O331    1.294   .     A
C295   C298    1.450   .     S
C295   O329    1.292   .     A
C296   C298    1.402   .     A
C296   H321    1.083   .     S
C297   C303    1.450   .     S
C297   C309    1.401   .     A
C297   C310    1.402   .     A
C298   C308    1.401   .     A
C299   N326    1.372   .     A
C299   N327    1.429   .     S
C299   C1057   1.421   1_554 S
C300   N325    1.372   .     A
C300   N328    1.429   .     S
C300   C680    1.421   .     S
C301   N325    1.364   .     A
C301   H322    1.082   .     S
C301   C677    1.421   .     S
C302   H323    1.082   .     S
C302   N326    1.364   .     A
C302   C1056   1.421   1_554 S
C303   O330    1.292   .     A
C303   O332    1.294   .     A
C304   O335    1.291   .     A
C304   C306    1.435   .     S
C304   O333    1.287   .     A
C305   C307    1.435   .     S
C305   O334    1.287   .     A
C305   O336    1.291   .     A
C307   C348    1.337   .     S
C307   H359    1.087   .     S
C308   H318    1.083   .     S
C309   H319    1.083   .     S
C309   C44     1.384   1_565 S
C310   H320    1.083   .     S
C310   C56     1.384   1_565 S
Cu311  Cu312   2.683   .     S
Cu311  N325    2.016   .     S
Cu311  O332    1.965   .     S
Cu311  O333    1.957   .     S
Cu311  O336    1.960   .     S
Cu311  O329    1.964   .     S
Cu312  O331    1.965   .     S
Cu312  N326    2.016   .     S
Cu312  O335    1.960   .     S
Cu312  O334    1.957   .     S
Cu312  O330    1.964   .     S
H313   C348    1.087   .     S
H314   N327    1.045   .     S
H315   N328    1.046   .     S
H316   N328    1.046   .     S
H324   N327    1.046   .     S
C337   O373    1.294   .     A
C337   C340    1.450   .     S
C337   O371    1.292   .     A
C338   C340    1.402   .     A
C338   H363    1.083   .     S
C339   C345    1.450   .     S
C339   C351    1.401   .     A
C339   C352    1.402   .     A
C340   C350    1.401   .     A
C341   N368    1.372   .     A
C341   N369    1.429   .     S
C341   C1099   1.421   1_554 S
C342   N367    1.372   .     A
C342   N370    1.429   .     S
C342   C722    1.421   .     S
C343   N367    1.364   .     A
C343   H364    1.082   .     S
C343   C719    1.421   .     S
C344   H365    1.082   .     S
C344   N368    1.364   .     A
C344   C1098   1.421   1_554 S
C345   O372    1.292   .     A
C345   O374    1.294   .     A
C346   O377    1.291   .     A
C346   C348    1.435   .     S
C346   O375    1.287   .     A
C347   C349    1.435   .     S
C347   O376    1.287   .     A
C347   O378    1.291   .     A
C349   C264    1.337   1_655 S
C349   H275    1.087   1_655 S
C350   H360    1.083   .     S
C351   H361    1.083   .     S
C351   C86     1.384   1_565 S
C352   H362    1.083   .     S
C352   C98     1.384   1_565 S
Cu353  Cu354   2.683   .     S
Cu353  N367    2.016   .     S
Cu353  O374    1.965   .     S
Cu353  O375    1.957   .     S
Cu353  O378    1.960   .     S
Cu353  O371    1.964   .     S
Cu354  O373    1.965   .     S
Cu354  N368    2.016   .     S
Cu354  O377    1.960   .     S
Cu354  O376    1.957   .     S
Cu354  O372    1.964   .     S
H355   C264    1.087   1_655 S
H356   N369    1.045   .     S
H357   N370    1.046   .     S
H358   N370    1.046   .     S
H366   N369    1.046   .     S
C379   O415    1.294   .     A
C379   C382    1.450   .     S
C379   O413    1.292   .     A
C380   C382    1.402   .     A
C380   H405    1.083   .     S
C380   C645    1.384   1_545 S
C381   C387    1.450   .     S
C381   C393    1.401   .     A
C381   C394    1.402   .     A
C382   C392    1.401   .     A
C383   N410    1.372   .     A
C383   N411    1.429   .     S
C384   N409    1.372   .     A
C384   N412    1.429   .     S
C384   C764    1.421   .     S
C385   N409    1.364   .     A
C385   H406    1.082   .     S
C385   C761    1.421   .     S
C386   H407    1.082   .     S
C386   N410    1.364   .     A
C387   O414    1.292   .     A
C387   O416    1.294   .     A
C388   O419    1.291   .     A
C388   C390    1.435   .     S
C388   O417    1.287   .     A
C389   C391    1.435   .     S
C389   O418    1.287   .     A
C389   O420    1.291   .     A
C390   C475    1.337   1_455 S
C390   H481    1.087   1_455 S
C391   C432    1.337   .     S
C391   H443    1.087   .     S
C392   H402    1.083   .     S
C392   C646    1.384   1_545 S
C393   H403    1.083   .     S
C393   C506    1.384   .     S
C394   H404    1.083   .     S
C394   C518    1.384   .     S
Cu395  Cu396   2.683   .     S
Cu395  N409    2.016   .     S
Cu395  O416    1.965   .     S
Cu395  O417    1.957   .     S
Cu395  O420    1.960   .     S
Cu395  O413    1.964   .     S
Cu396  O415    1.965   .     S
Cu396  N410    2.016   .     S
Cu396  O419    1.960   .     S
Cu396  O418    1.957   .     S
Cu396  O414    1.964   .     S
H397   C432    1.087   .     S
H398   N411    1.045   .     S
H399   N412    1.046   .     S
H400   N412    1.046   .     S
H401   C475    1.087   1_455 S
H408   N411    1.046   .     S
C421   O457    1.294   .     A
C421   C424    1.450   .     S
C421   O455    1.292   .     A
C422   C424    1.402   .     A
C422   H447    1.083   .     S
C422   C687    1.384   1_545 S
C423   C429    1.450   .     S
C423   C435    1.401   .     A
C423   C436    1.402   .     A
C424   C434    1.401   .     A
C425   N452    1.372   .     A
C425   N453    1.429   .     S
C426   N451    1.372   .     A
C426   N454    1.429   .     S
C426   C806    1.421   .     S
C427   N451    1.364   .     A
C427   H448    1.082   .     S
C427   C803    1.421   .     S
C428   H449    1.082   .     S
C428   N452    1.364   .     A
C429   O456    1.292   .     A
C429   O458    1.294   .     A
C430   O461    1.291   .     A
C430   C432    1.435   .     S
C430   O459    1.287   .     A
C431   C433    1.435   .     S
C431   O460    1.287   .     A
C431   O462    1.291   .     A
C433   C474    1.337   .     S
C433   H485    1.087   .     S
C434   H444    1.083   .     S
C434   C688    1.384   1_545 S
C435   H445    1.083   .     S
C435   C548    1.384   .     S
C436   H446    1.083   .     S
C436   C560    1.384   .     S
Cu437  Cu438   2.683   .     S
Cu437  N451    2.016   .     S
Cu437  O458    1.965   .     S
Cu437  O459    1.957   .     S
Cu437  O462    1.960   .     S
Cu437  O455    1.964   .     S
Cu438  O457    1.965   .     S
Cu438  N452    2.016   .     S
Cu438  O461    1.960   .     S
Cu438  O460    1.957   .     S
Cu438  O456    1.964   .     S
H439   C474    1.087   .     S
H440   N453    1.045   .     S
H441   N454    1.046   .     S
H442   N454    1.046   .     S
H450   N453    1.046   .     S
C463   O499    1.294   .     A
C463   C466    1.450   .     S
C463   O497    1.292   .     A
C464   C466    1.402   .     A
C464   H489    1.083   .     S
C464   C729    1.384   1_545 S
C465   C471    1.450   .     S
C465   C477    1.401   .     A
C465   C478    1.402   .     A
C466   C476    1.401   .     A
C467   N494    1.372   .     A
C467   N495    1.429   .     S
C468   N493    1.372   .     A
C468   N496    1.429   .     S
C468   C848    1.421   .     S
C469   N493    1.364   .     A
C469   H490    1.082   .     S
C469   C845    1.421   .     S
C470   H491    1.082   .     S
C470   N494    1.364   .     A
C471   O498    1.292   .     A
C471   O500    1.294   .     A
C472   O503    1.291   .     A
C472   C474    1.435   .     S
C472   O501    1.287   .     A
C473   C475    1.435   .     S
C473   O502    1.287   .     A
C473   O504    1.291   .     A
C475   C390    1.337   1_655 S
C475   H401    1.087   1_655 S
C476   H486    1.083   .     S
C476   C730    1.384   1_545 S
C477   H487    1.083   .     S
C477   C590    1.384   .     S
C478   H488    1.083   .     S
C478   C602    1.384   .     S
Cu479  Cu480   2.683   .     S
Cu479  N493    2.016   .     S
Cu479  O500    1.965   .     S
Cu479  O501    1.957   .     S
Cu479  O504    1.960   .     S
Cu479  O497    1.964   .     S
Cu480  O499    1.965   .     S
Cu480  N494    2.016   .     S
Cu480  O503    1.960   .     S
Cu480  O502    1.957   .     S
Cu480  O498    1.964   .     S
H481   C390    1.087   1_655 S
H482   N495    1.045   .     S
H483   N496    1.046   .     S
H484   N496    1.046   .     S
H492   N495    1.046   .     S
C505   O541    1.294   .     A
C505   C508    1.450   .     S
C505   O539    1.292   .     A
C506   C508    1.402   .     A
C506   H531    1.083   .     S
C507   C513    1.450   .     S
C507   C519    1.401   .     A
C507   C520    1.402   .     A
C508   C518    1.401   .     A
C509   N536    1.372   .     A
C509   N537    1.429   .     S
C510   N535    1.372   .     A
C510   N538    1.429   .     S
C510   C890    1.421   .     S
C511   N535    1.364   .     A
C511   H532    1.082   .     S
C511   C887    1.421   .     S
C512   H533    1.082   .     S
C512   N536    1.364   .     A
C513   O540    1.292   .     A
C513   O542    1.294   .     A
C514   O545    1.291   .     A
C514   C516    1.435   .     S
C514   O543    1.287   .     A
C515   C517    1.435   .     S
C515   O544    1.287   .     A
C515   O546    1.291   .     A
C516   C601    1.337   1_455 S
C516   H607    1.087   1_455 S
C517   C558    1.337   .     S
C517   H569    1.087   .     S
C518   H528    1.083   .     S
C519   H529    1.083   .     S
C519   C632    1.384   .     S
C520   H530    1.083   .     S
C520   C644    1.384   .     S
Cu521  Cu522   2.683   .     S
Cu521  N535    2.016   .     S
Cu521  O542    1.965   .     S
Cu521  O543    1.957   .     S
Cu521  O546    1.960   .     S
Cu521  O539    1.964   .     S
Cu522  O541    1.965   .     S
Cu522  N536    2.016   .     S
Cu522  O545    1.960   .     S
Cu522  O544    1.957   .     S
Cu522  O540    1.964   .     S
H523   C558    1.087   .     S
H524   N537    1.045   .     S
H525   N538    1.046   .     S
H526   N538    1.046   .     S
H527   C601    1.087   1_455 S
H534   N537    1.046   .     S
C547   O583    1.294   .     A
C547   C550    1.450   .     S
C547   O581    1.292   .     A
C548   C550    1.402   .     A
C548   H573    1.083   .     S
C549   C555    1.450   .     S
C549   C561    1.401   .     A
C549   C562    1.402   .     A
C550   C560    1.401   .     A
C551   N578    1.372   .     A
C551   N579    1.429   .     S
C552   N577    1.372   .     A
C552   N580    1.429   .     S
C552   C932    1.421   .     S
C553   N577    1.364   .     A
C553   H574    1.082   .     S
C553   C929    1.421   .     S
C554   H575    1.082   .     S
C554   N578    1.364   .     A
C555   O582    1.292   .     A
C555   O584    1.294   .     A
C556   O587    1.291   .     A
C556   C558    1.435   .     S
C556   O585    1.287   .     A
C557   C559    1.435   .     S
C557   O586    1.287   .     A
C557   O588    1.291   .     A
C559   C600    1.337   .     S
C559   H611    1.087   .     S
C560   H570    1.083   .     S
C561   H571    1.083   .     S
C561   C674    1.384   .     S
C562   H572    1.083   .     S
C562   C686    1.384   .     S
Cu563  Cu564   2.683   .     S
Cu563  N577    2.016   .     S
Cu563  O584    1.965   .     S
Cu563  O585    1.957   .     S
Cu563  O588    1.960   .     S
Cu563  O581    1.964   .     S
Cu564  O583    1.965   .     S
Cu564  N578    2.016   .     S
Cu564  O587    1.960   .     S
Cu564  O586    1.957   .     S
Cu564  O582    1.964   .     S
H565   C600    1.087   .     S
H566   N579    1.045   .     S
H567   N580    1.046   .     S
H568   N580    1.046   .     S
H576   N579    1.046   .     S
C589   O625    1.294   .     A
C589   C592    1.450   .     S
C589   O623    1.292   .     A
C590   C592    1.402   .     A
C590   H615    1.083   .     S
C591   C597    1.450   .     S
C591   C603    1.401   .     A
C591   C604    1.402   .     A
C592   C602    1.401   .     A
C593   N620    1.372   .     A
C593   N621    1.429   .     S
C594   N619    1.372   .     A
C594   N622    1.429   .     S
C594   C974    1.421   .     S
C595   N619    1.364   .     A
C595   H616    1.082   .     S
C595   C971    1.421   .     S
C596   H617    1.082   .     S
C596   N620    1.364   .     A
C597   O624    1.292   .     A
C597   O626    1.294   .     A
C598   O629    1.291   .     A
C598   C600    1.435   .     S
C598   O627    1.287   .     A
C599   C601    1.435   .     S
C599   O628    1.287   .     A
C599   O630    1.291   .     A
C601   C516    1.337   1_655 S
C601   H527    1.087   1_655 S
C602   H612    1.083   .     S
C603   H613    1.083   .     S
C603   C716    1.384   .     S
C604   H614    1.083   .     S
C604   C728    1.384   .     S
Cu605  Cu606   2.683   .     S
Cu605  N619    2.016   .     S
Cu605  O626    1.965   .     S
Cu605  O627    1.957   .     S
Cu605  O630    1.960   .     S
Cu605  O623    1.964   .     S
Cu606  O625    1.965   .     S
Cu606  N620    2.016   .     S
Cu606  O629    1.960   .     S
Cu606  O628    1.957   .     S
Cu606  O624    1.964   .     S
H607   C516    1.087   1_655 S
H608   N621    1.045   .     S
H609   N622    1.046   .     S
H610   N622    1.046   .     S
H618   N621    1.046   .     S
C631   O667    1.294   .     A
C631   C634    1.450   .     S
C631   O665    1.292   .     A
C632   C634    1.402   .     A
C632   H657    1.083   .     S
C633   C639    1.450   .     S
C633   C645    1.401   .     A
C633   C646    1.402   .     A
C634   C644    1.401   .     A
C635   N662    1.372   .     A
C635   N663    1.429   .     S
C636   N661    1.372   .     A
C636   N664    1.429   .     S
C636   C1016   1.421   .     S
C637   N661    1.364   .     A
C637   H658    1.082   .     S
C637   C1013   1.421   .     S
C638   H659    1.082   .     S
C638   N662    1.364   .     A
C639   O666    1.292   .     A
C639   O668    1.294   .     A
C640   O671    1.291   .     A
C640   C642    1.435   .     S
C640   O669    1.287   .     A
C641   C643    1.435   .     S
C641   O670    1.287   .     A
C641   O672    1.291   .     A
C642   C727    1.337   1_455 S
C642   H733    1.087   1_455 S
C643   C684    1.337   .     S
C643   H695    1.087   .     S
C644   H654    1.083   .     S
C645   H655    1.083   .     S
C645   C380    1.384   1_565 S
C646   H656    1.083   .     S
C646   C392    1.384   1_565 S
Cu647  Cu648   2.683   .     S
Cu647  N661    2.016   .     S
Cu647  O668    1.965   .     S
Cu647  O669    1.957   .     S
Cu647  O672    1.960   .     S
Cu647  O665    1.964   .     S
Cu648  O667    1.965   .     S
Cu648  N662    2.016   .     S
Cu648  O671    1.960   .     S
Cu648  O670    1.957   .     S
Cu648  O666    1.964   .     S
H649   C684    1.087   .     S
H650   N663    1.045   .     S
H651   N664    1.046   .     S
H652   N664    1.046   .     S
H653   C727    1.087   1_455 S
H660   N663    1.046   .     S
C673   O709    1.294   .     A
C673   C676    1.450   .     S
C673   O707    1.292   .     A
C674   C676    1.402   .     A
C674   H699    1.083   .     S
C675   C681    1.450   .     S
C675   C687    1.401   .     A
C675   C688    1.402   .     A
C676   C686    1.401   .     A
C677   N704    1.372   .     A
C677   N705    1.429   .     S
C678   N703    1.372   .     A
C678   N706    1.429   .     S
C678   C1058   1.421   .     S
C679   N703    1.364   .     A
C679   H700    1.082   .     S
C679   C1055   1.421   .     S
C680   H701    1.082   .     S
C680   N704    1.364   .     A
C681   O708    1.292   .     A
C681   O710    1.294   .     A
C682   O713    1.291   .     A
C682   C684    1.435   .     S
C682   O711    1.287   .     A
C683   C685    1.435   .     S
C683   O712    1.287   .     A
C683   O714    1.291   .     A
C685   C726    1.337   .     S
C685   H737    1.087   .     S
C686   H696    1.083   .     S
C687   H697    1.083   .     S
C687   C422    1.384   1_565 S
C688   H698    1.083   .     S
C688   C434    1.384   1_565 S
Cu689  Cu690   2.683   .     S
Cu689  N703    2.016   .     S
Cu689  O710    1.965   .     S
Cu689  O711    1.957   .     S
Cu689  O714    1.960   .     S
Cu689  O707    1.964   .     S
Cu690  O709    1.965   .     S
Cu690  N704    2.016   .     S
Cu690  O713    1.960   .     S
Cu690  O712    1.957   .     S
Cu690  O708    1.964   .     S
H691   C726    1.087   .     S
H692   N705    1.045   .     S
H693   N706    1.046   .     S
H694   N706    1.046   .     S
H702   N705    1.046   .     S
C715   O751    1.294   .     A
C715   C718    1.450   .     S
C715   O749    1.292   .     A
C716   C718    1.402   .     A
C716   H741    1.083   .     S
C717   C723    1.450   .     S
C717   C729    1.401   .     A
C717   C730    1.402   .     A
C718   C728    1.401   .     A
C719   N746    1.372   .     A
C719   N747    1.429   .     S
C720   N745    1.372   .     A
C720   N748    1.429   .     S
C720   C1100   1.421   .     S
C721   N745    1.364   .     A
C721   H742    1.082   .     S
C721   C1097   1.421   .     S
C722   H743    1.082   .     S
C722   N746    1.364   .     A
C723   O750    1.292   .     A
C723   O752    1.294   .     A
C724   O755    1.291   .     A
C724   C726    1.435   .     S
C724   O753    1.287   .     A
C725   C727    1.435   .     S
C725   O754    1.287   .     A
C725   O756    1.291   .     A
C727   C642    1.337   1_655 S
C727   H653    1.087   1_655 S
C728   H738    1.083   .     S
C729   H739    1.083   .     S
C729   C464    1.384   1_565 S
C730   H740    1.083   .     S
C730   C476    1.384   1_565 S
Cu731  Cu732   2.683   .     S
Cu731  N745    2.016   .     S
Cu731  O752    1.965   .     S
Cu731  O753    1.957   .     S
Cu731  O756    1.960   .     S
Cu731  O749    1.964   .     S
Cu732  O751    1.965   .     S
Cu732  N746    2.016   .     S
Cu732  O755    1.960   .     S
Cu732  O754    1.957   .     S
Cu732  O750    1.964   .     S
H733   C642    1.087   1_655 S
H734   N747    1.045   .     S
H735   N748    1.046   .     S
H736   N748    1.046   .     S
H744   N747    1.046   .     S
C757   O793    1.294   .     A
C757   C760    1.450   .     S
C757   O791    1.292   .     A
C758   C760    1.402   .     A
C758   H783    1.083   .     S
C758   C1023   1.384   1_545 S
C759   C765    1.450   .     S
C759   C771    1.401   .     A
C759   C772    1.402   .     A
C760   C770    1.401   .     A
C761   N788    1.372   .     A
C761   N789    1.429   .     S
C762   N787    1.372   .     A
C762   N790    1.429   .     S
C762   C8      1.421   1_556 S
C763   N787    1.364   .     A
C763   H784    1.082   .     S
C763   C5      1.421   1_556 S
C764   H785    1.082   .     S
C764   N788    1.364   .     A
C765   O792    1.292   .     A
C765   O794    1.294   .     A
C766   O797    1.291   .     A
C766   C768    1.435   .     S
C766   O795    1.287   .     A
C767   C769    1.435   .     S
C767   O796    1.287   .     A
C767   O798    1.291   .     A
C768   C853    1.337   1_455 S
C768   H859    1.087   1_455 S
C769   C810    1.337   .     S
C769   H821    1.087   .     S
C770   H780    1.083   .     S
C770   C1024   1.384   1_545 S
C771   H781    1.083   .     S
C771   C884    1.384   .     S
C772   H782    1.083   .     S
C772   C896    1.384   .     S
Cu773  Cu774   2.683   .     S
Cu773  N787    2.016   .     S
Cu773  O794    1.965   .     S
Cu773  O795    1.957   .     S
Cu773  O798    1.960   .     S
Cu773  O791    1.964   .     S
Cu774  O793    1.965   .     S
Cu774  N788    2.016   .     S
Cu774  O797    1.960   .     S
Cu774  O796    1.957   .     S
Cu774  O792    1.964   .     S
H775   C810    1.087   .     S
H776   N789    1.045   .     S
H777   N790    1.046   .     S
H778   N790    1.046   .     S
H779   C853    1.087   1_455 S
H786   N789    1.046   .     S
C799   O835    1.294   .     A
C799   C802    1.450   .     S
C799   O833    1.292   .     A
C800   C802    1.402   .     A
C800   H825    1.083   .     S
C800   C1065   1.384   1_545 S
C801   C807    1.450   .     S
C801   C813    1.401   .     A
C801   C814    1.402   .     A
C802   C812    1.401   .     A
C803   N830    1.372   .     A
C803   N831    1.429   .     S
C804   N829    1.372   .     A
C804   N832    1.429   .     S
C804   C50     1.421   1_556 S
C805   N829    1.364   .     A
C805   H826    1.082   .     S
C805   C47     1.421   1_556 S
C806   H827    1.082   .     S
C806   N830    1.364   .     A
C807   O834    1.292   .     A
C807   O836    1.294   .     A
C808   O839    1.291   .     A
C808   C810    1.435   .     S
C808   O837    1.287   .     A
C809   C811    1.435   .     S
C809   O838    1.287   .     A
C809   O840    1.291   .     A
C811   C852    1.337   .     S
C811   H863    1.087   .     S
C812   H822    1.083   .     S
C812   C1066   1.384   1_545 S
C813   H823    1.083   .     S
C813   C926    1.384   .     S
C814   H824    1.083   .     S
C814   C938    1.384   .     S
Cu815  Cu816   2.683   .     S
Cu815  N829    2.016   .     S
Cu815  O836    1.965   .     S
Cu815  O837    1.957   .     S
Cu815  O840    1.960   .     S
Cu815  O833    1.964   .     S
Cu816  O835    1.965   .     S
Cu816  N830    2.016   .     S
Cu816  O839    1.960   .     S
Cu816  O838    1.957   .     S
Cu816  O834    1.964   .     S
H817   C852    1.087   .     S
H818   N831    1.045   .     S
H819   N832    1.046   .     S
H820   N832    1.046   .     S
H828   N831    1.046   .     S
C841   O877    1.294   .     A
C841   C844    1.450   .     S
C841   O875    1.292   .     A
C842   C844    1.402   .     A
C842   H867    1.083   .     S
C842   C1107   1.384   1_545 S
C843   C849    1.450   .     S
C843   C855    1.401   .     A
C843   C856    1.402   .     A
C844   C854    1.401   .     A
C845   N872    1.372   .     A
C845   N873    1.429   .     S
C846   N871    1.372   .     A
C846   N874    1.429   .     S
C846   C92     1.421   1_556 S
C847   N871    1.364   .     A
C847   H868    1.082   .     S
C847   C89     1.421   1_556 S
C848   H869    1.082   .     S
C848   N872    1.364   .     A
C849   O876    1.292   .     A
C849   O878    1.294   .     A
C850   O881    1.291   .     A
C850   C852    1.435   .     S
C850   O879    1.287   .     A
C851   C853    1.435   .     S
C851   O880    1.287   .     A
C851   O882    1.291   .     A
C853   C768    1.337   1_655 S
C853   H779    1.087   1_655 S
C854   H864    1.083   .     S
C854   C1108   1.384   1_545 S
C855   H865    1.083   .     S
C855   C968    1.384   .     S
C856   H866    1.083   .     S
C856   C980    1.384   .     S
Cu857  Cu858   2.683   .     S
Cu857  N871    2.016   .     S
Cu857  O878    1.965   .     S
Cu857  O879    1.957   .     S
Cu857  O882    1.960   .     S
Cu857  O875    1.964   .     S
Cu858  O877    1.965   .     S
Cu858  N872    2.016   .     S
Cu858  O881    1.960   .     S
Cu858  O880    1.957   .     S
Cu858  O876    1.964   .     S
H859   C768    1.087   1_655 S
H860   N873    1.045   .     S
H861   N874    1.046   .     S
H862   N874    1.046   .     S
H870   N873    1.046   .     S
C883   O919    1.294   .     A
C883   C886    1.450   .     S
C883   O917    1.292   .     A
C884   C886    1.402   .     A
C884   H909    1.083   .     S
C885   C891    1.450   .     S
C885   C897    1.401   .     A
C885   C898    1.402   .     A
C886   C896    1.401   .     A
C887   N914    1.372   .     A
C887   N915    1.429   .     S
C888   N913    1.372   .     A
C888   N916    1.429   .     S
C888   C134    1.421   1_556 S
C889   N913    1.364   .     A
C889   H910    1.082   .     S
C889   C131    1.421   1_556 S
C890   H911    1.082   .     S
C890   N914    1.364   .     A
C891   O918    1.292   .     A
C891   O920    1.294   .     A
C892   O923    1.291   .     A
C892   C894    1.435   .     S
C892   O921    1.287   .     A
C893   C895    1.435   .     S
C893   O922    1.287   .     A
C893   O924    1.291   .     A
C894   C979    1.337   1_455 S
C894   H985    1.087   1_455 S
C895   C936    1.337   .     S
C895   H947    1.087   .     S
C896   H906    1.083   .     S
C897   H907    1.083   .     S
C897   C1010   1.384   .     S
C898   H908    1.083   .     S
C898   C1022   1.384   .     S
Cu899  Cu900   2.683   .     S
Cu899  N913    2.016   .     S
Cu899  O920    1.965   .     S
Cu899  O921    1.957   .     S
Cu899  O924    1.960   .     S
Cu899  O917    1.964   .     S
Cu900  O919    1.965   .     S
Cu900  N914    2.016   .     S
Cu900  O923    1.960   .     S
Cu900  O922    1.957   .     S
Cu900  O918    1.964   .     S
H901   C936    1.087   .     S
H902   N915    1.045   .     S
H903   N916    1.046   .     S
H904   N916    1.046   .     S
H905   C979    1.087   1_455 S
H912   N915    1.046   .     S
C925   O961    1.294   .     A
C925   C928    1.450   .     S
C925   O959    1.292   .     A
C926   C928    1.402   .     A
C926   H951    1.083   .     S
C927   C933    1.450   .     S
C927   C939    1.401   .     A
C927   C940    1.402   .     A
C928   C938    1.401   .     A
C929   N956    1.372   .     A
C929   N957    1.429   .     S
C930   N955    1.372   .     A
C930   N958    1.429   .     S
C930   C176    1.421   1_556 S
C931   N955    1.364   .     A
C931   H952    1.082   .     S
C931   C173    1.421   1_556 S
C932   H953    1.082   .     S
C932   N956    1.364   .     A
C933   O960    1.292   .     A
C933   O962    1.294   .     A
C934   O965    1.291   .     A
C934   C936    1.435   .     S
C934   O963    1.287   .     A
C935   C937    1.435   .     S
C935   O964    1.287   .     A
C935   O966    1.291   .     A
C937   C978    1.337   .     S
C937   H989    1.087   .     S
C938   H948    1.083   .     S
C939   H949    1.083   .     S
C939   C1052   1.384   .     S
C940   H950    1.083   .     S
C940   C1064   1.384   .     S
Cu941  Cu942   2.683   .     S
Cu941  N955    2.016   .     S
Cu941  O962    1.965   .     S
Cu941  O963    1.957   .     S
Cu941  O966    1.960   .     S
Cu941  O959    1.964   .     S
Cu942  O961    1.965   .     S
Cu942  N956    2.016   .     S
Cu942  O965    1.960   .     S
Cu942  O964    1.957   .     S
Cu942  O960    1.964   .     S
H943   C978    1.087   .     S
H944   N957    1.045   .     S
H945   N958    1.046   .     S
H946   N958    1.046   .     S
H954   N957    1.046   .     S
C967   O1003   1.294   .     A
C967   C970    1.450   .     S
C967   O1001   1.292   .     A
C968   C970    1.402   .     A
C968   H993    1.083   .     S
C969   C975    1.450   .     S
C969   C981    1.401   .     A
C969   C982    1.402   .     A
C970   C980    1.401   .     A
C971   N998    1.372   .     A
C971   N999    1.429   .     S
C972   N997    1.372   .     A
C972   N1000   1.429   .     S
C972   C218    1.421   1_556 S
C973   N997    1.364   .     A
C973   H994    1.082   .     S
C973   C215    1.421   1_556 S
C974   H995    1.082   .     S
C974   N998    1.364   .     A
C975   O1002   1.292   .     A
C975   O1004   1.294   .     A
C976   O1007   1.291   .     A
C976   C978    1.435   .     S
C976   O1005   1.287   .     A
C977   C979    1.435   .     S
C977   O1006   1.287   .     A
C977   O1008   1.291   .     A
C979   C894    1.337   1_655 S
C979   H905    1.087   1_655 S
C980   H990    1.083   .     S
C981   H991    1.083   .     S
C981   C1094   1.384   .     S
C982   H992    1.083   .     S
C982   C1106   1.384   .     S
Cu983  Cu984   2.683   .     S
Cu983  N997    2.016   .     S
Cu983  O1004   1.965   .     S
Cu983  O1005   1.957   .     S
Cu983  O1008   1.960   .     S
Cu983  O1001   1.964   .     S
Cu984  O1003   1.965   .     S
Cu984  N998    2.016   .     S
Cu984  O1007   1.960   .     S
Cu984  O1006   1.957   .     S
Cu984  O1002   1.964   .     S
H985   C894    1.087   1_655 S
H986   N999    1.045   .     S
H987   N1000   1.046   .     S
H988   N1000   1.046   .     S
H996   N999    1.046   .     S
C1009  O1045   1.294   .     A
C1009  C1012   1.450   .     S
C1009  O1043   1.292   .     A
C1010  C1012   1.402   .     A
C1010  H1035   1.083   .     S
C1011  C1017   1.450   .     S
C1011  C1023   1.401   .     A
C1011  C1024   1.402   .     A
C1012  C1022   1.401   .     A
C1013  N1040   1.372   .     A
C1013  N1041   1.429   .     S
C1014  N1039   1.372   .     A
C1014  N1042   1.429   .     S
C1014  C260    1.421   1_556 S
C1015  N1039   1.364   .     A
C1015  H1036   1.082   .     S
C1015  C257    1.421   1_556 S
C1016  H1037   1.082   .     S
C1016  N1040   1.364   .     A
C1017  O1044   1.292   .     A
C1017  O1046   1.294   .     A
C1018  O1049   1.291   .     A
C1018  C1020   1.435   .     S
C1018  O1047   1.287   .     A
C1019  C1021   1.435   .     S
C1019  O1048   1.287   .     A
C1019  O1050   1.291   .     A
C1020  C1105   1.337   1_455 S
C1020  H1111   1.087   1_455 S
C1021  C1062   1.337   .     S
C1021  H1073   1.087   .     S
C1022  H1032   1.083   .     S
C1023  H1033   1.083   .     S
C1023  C758    1.384   1_565 S
C1024  H1034   1.083   .     S
C1024  C770    1.384   1_565 S
Cu1025 Cu1026  2.683   .     S
Cu1025 N1039   2.016   .     S
Cu1025 O1046   1.965   .     S
Cu1025 O1047   1.957   .     S
Cu1025 O1050   1.960   .     S
Cu1025 O1043   1.964   .     S
Cu1026 O1045   1.965   .     S
Cu1026 N1040   2.016   .     S
Cu1026 O1049   1.960   .     S
Cu1026 O1048   1.957   .     S
Cu1026 O1044   1.964   .     S
H1027  C1062   1.087   .     S
H1028  N1041   1.045   .     S
H1029  N1042   1.046   .     S
H1030  N1042   1.046   .     S
H1031  C1105   1.087   1_455 S
H1038  N1041   1.046   .     S
C1051  O1087   1.294   .     A
C1051  C1054   1.450   .     S
C1051  O1085   1.292   .     A
C1052  C1054   1.402   .     A
C1052  H1077   1.083   .     S
C1053  C1059   1.450   .     S
C1053  C1065   1.401   .     A
C1053  C1066   1.402   .     A
C1054  C1064   1.401   .     A
C1055  N1082   1.372   .     A
C1055  N1083   1.429   .     S
C1056  N1081   1.372   .     A
C1056  N1084   1.429   .     S
C1056  C302    1.421   1_556 S
C1057  N1081   1.364   .     A
C1057  H1078   1.082   .     S
C1057  C299    1.421   1_556 S
C1058  H1079   1.082   .     S
C1058  N1082   1.364   .     A
C1059  O1086   1.292   .     A
C1059  O1088   1.294   .     A
C1060  O1091   1.291   .     A
C1060  C1062   1.435   .     S
C1060  O1089   1.287   .     A
C1061  C1063   1.435   .     S
C1061  O1090   1.287   .     A
C1061  O1092   1.291   .     A
C1063  C1104   1.337   .     S
C1063  H1115   1.087   .     S
C1064  H1074   1.083   .     S
C1065  H1075   1.083   .     S
C1065  C800    1.384   1_565 S
C1066  H1076   1.083   .     S
C1066  C812    1.384   1_565 S
Cu1067 Cu1068  2.683   .     S
Cu1067 N1081   2.016   .     S
Cu1067 O1088   1.965   .     S
Cu1067 O1089   1.957   .     S
Cu1067 O1092   1.960   .     S
Cu1067 O1085   1.964   .     S
Cu1068 O1087   1.965   .     S
Cu1068 N1082   2.016   .     S
Cu1068 O1091   1.960   .     S
Cu1068 O1090   1.957   .     S
Cu1068 O1086   1.964   .     S
H1069  C1104   1.087   .     S
H1070  N1083   1.045   .     S
H1071  N1084   1.046   .     S
H1072  N1084   1.046   .     S
H1080  N1083   1.046   .     S
C1093  O1129   1.294   .     A
C1093  C1096   1.450   .     S
C1093  O1127   1.292   .     A
C1094  C1096   1.402   .     A
C1094  H1119   1.083   .     S
C1095  C1101   1.450   .     S
C1095  C1107   1.401   .     A
C1095  C1108   1.402   .     A
C1096  C1106   1.401   .     A
C1097  N1124   1.372   .     A
C1097  N1125   1.429   .     S
C1098  N1123   1.372   .     A
C1098  N1126   1.429   .     S
C1098  C344    1.421   1_556 S
C1099  N1123   1.364   .     A
C1099  H1120   1.082   .     S
C1099  C341    1.421   1_556 S
C1100  H1121   1.082   .     S
C1100  N1124   1.364   .     A
C1101  O1128   1.292   .     A
C1101  O1130   1.294   .     A
C1102  O1133   1.291   .     A
C1102  C1104   1.435   .     S
C1102  O1131   1.287   .     A
C1103  C1105   1.435   .     S
C1103  O1132   1.287   .     A
C1103  O1134   1.291   .     A
C1105  C1020   1.337   1_655 S
C1105  H1031   1.087   1_655 S
C1106  H1116   1.083   .     S
C1107  H1117   1.083   .     S
C1107  C842    1.384   1_565 S
C1108  H1118   1.083   .     S
C1108  C854    1.384   1_565 S
Cu1109 Cu1110  2.683   .     S
Cu1109 N1123   2.016   .     S
Cu1109 O1130   1.965   .     S
Cu1109 O1131   1.957   .     S
Cu1109 O1134   1.960   .     S
Cu1109 O1127   1.964   .     S
Cu1110 O1129   1.965   .     S
Cu1110 N1124   2.016   .     S
Cu1110 O1133   1.960   .     S
Cu1110 O1132   1.957   .     S
Cu1110 O1128   1.964   .     S
H1111  C1020   1.087   1_655 S
H1112  N1125   1.045   .     S
H1113  N1126   1.046   .     S
H1114  N1126   1.046   .     S
H1122  N1125   1.046   .     S
