data_str_m2_o1_o1_pcu_sym.63
_audit_creation_date              2020-01-03
_audit_creation_method            'Materials Studio'
_symmetry_space_group_name_H-M    'P1'
_symmetry_Int_Tables_number       1
_symmetry_cell_setting            triclinic
loop_
_symmetry_equiv_pos_as_xyz
  x,y,z
_cell_length_a                    31.0709
_cell_length_b                    31.0298
_cell_length_c                    28.8963
_cell_angle_alpha                 89.2820
_cell_angle_beta                  90.3542
_cell_angle_gamma                 89.9340
loop_
_atom_site_label
_atom_site_type_symbol
_atom_site_fract_x
_atom_site_fract_y
_atom_site_fract_z
_atom_site_U_iso_or_equiv
_atom_site_adp_type
_atom_site_occupancy
O1     O     0.04508   0.20491   0.20625   0.00000  Uiso   1.00
O2     O     0.45491   0.29509   0.12709   0.00000  Uiso   1.00
O3     O     0.45491   0.29509   0.20625   0.00000  Uiso   1.00
O4     O     0.04508   0.20491   0.12709   0.00000  Uiso   1.00
O5     O     0.45491   0.20491   0.12709   0.00000  Uiso   1.00
O6     O     0.04508   0.29509   0.20625   0.00000  Uiso   1.00
O7     O     0.04508   0.29509   0.12709   0.00000  Uiso   1.00
O8     O     0.45491   0.20491   0.20625   0.00000  Uiso   1.00
O9     O     0.29508   0.45491   0.20625   0.00000  Uiso   1.00
O10    O     0.20491   0.04509   0.12709   0.00000  Uiso   1.00
O11    O     0.20491   0.04509   0.20625   0.00000  Uiso   1.00
O12    O     0.29508   0.45491   0.12709   0.00000  Uiso   1.00
O13    O     0.20491   0.45491   0.12709   0.00000  Uiso   1.00
O14    O     0.29508   0.04509   0.20625   0.00000  Uiso   1.00
O15    O     0.29508   0.04509   0.12709   0.00000  Uiso   1.00
O16    O     0.20491   0.45491   0.20625   0.00000  Uiso   1.00
C17    C     0.05854   0.18988   0.16693   0.00000  Uiso   1.00
C18    C     0.44160   0.31054   0.16671   0.00000  Uiso   1.00
C19    C     0.44175   0.18955   0.16677   0.00000  Uiso   1.00
C20    C     0.05964   0.30903   0.16636   0.00000  Uiso   1.00
C21    C     0.30945   0.44075   0.16700   0.00000  Uiso   1.00
C22    C     0.18879   0.05778   0.16639   0.00000  Uiso   1.00
C23    C     0.19025   0.44078   0.16656   0.00000  Uiso   1.00
C24    C     0.31094   0.05799   0.16670   0.00000  Uiso   1.00
H25    H     0.45927   0.19535   0.04272   0.00000  Uiso   1.00
H26    H     0.04173   0.30376   0.29054   0.00000  Uiso   1.00
H27    H     0.04052   0.30474   0.04204   0.00000  Uiso   1.00
H28    H     0.45644   0.19791   0.29144   0.00000  Uiso   1.00
H29    H     0.30119   0.45486   0.04319   0.00000  Uiso   1.00
H30    H     0.20173   0.04766   0.29047   0.00000  Uiso   1.00
H31    H     0.19836   0.04374   0.04172   0.00000  Uiso   1.00
H32    H     0.29843   0.45219   0.29198   0.00000  Uiso   1.00
N33    N    -0.00000   0.25000   0.28402   0.00000  Uiso   1.00
N34    N     0.00000   0.25000   0.04931   0.00000  Uiso   1.00
N35    N     0.25000   0.00000   0.28402   0.00000  Uiso   1.00
N36    N     0.25000  -0.00000   0.04931   0.00000  Uiso   1.00
Cu37   Cu    0.00000   0.25000   0.21355   0.00000  Uiso   1.00
Cu38   Cu    0.00000   0.25000   0.11978   0.00000  Uiso   1.00
Cu39   Cu    0.25000   0.00000   0.21355   0.00000  Uiso   1.00
Cu40   Cu    0.25000   0.00000   0.11978   0.00000  Uiso   1.00
C41    C     0.47737   0.21997   0.02478   0.00000  Uiso   1.00
C42    C     0.02288   0.27985   0.30852   0.00000  Uiso   1.00
C43    C     0.02232   0.28028   0.02436   0.00000  Uiso   1.00
C44    C     0.47623   0.22094   0.30901   0.00000  Uiso   1.00
C45    C     0.27812   0.47496   0.02507   0.00000  Uiso   1.00
C46    C     0.22281   0.02579   0.30840   0.00000  Uiso   1.00
C47    C     0.22186   0.02474   0.02414   0.00000  Uiso   1.00
C48    C     0.27724   0.47405   0.30927   0.00000  Uiso   1.00
C49    C     0.38787   0.14388   0.12639   0.00000  Uiso   1.00
C50    C     0.10003   0.36748   0.20447   0.00000  Uiso   1.00
C51    C     0.11755   0.35109   0.12549   0.00000  Uiso   1.00
C52    C     0.40493   0.12760   0.20709   0.00000  Uiso   1.00
C53    C     0.11223   0.14216   0.20735   0.00000  Uiso   1.00
C54    C     0.39327   0.36326   0.12600   0.00000  Uiso   1.00
C55    C     0.39577   0.36448   0.20975   0.00000  Uiso   1.00
C56    C     0.09438   0.12835   0.12744   0.00000  Uiso   1.00
C57    C     0.14249   0.38855   0.12357   0.00000  Uiso   1.00
C58    C     0.36889   0.10048   0.20864   0.00000  Uiso   1.00
C59    C     0.36156   0.10759   0.12467   0.00000  Uiso   1.00
C60    C     0.13587   0.39408   0.20708   0.00000  Uiso   1.00
C61    C     0.36891   0.40066   0.20844   0.00000  Uiso   1.00
C62    C     0.13229   0.10339   0.12438   0.00000  Uiso   1.00
C63    C     0.13462   0.10318   0.20829   0.00000  Uiso   1.00
C64    C     0.35499   0.38671   0.12749   0.00000  Uiso   1.00
C65    C     0.09298   0.34255   0.16535   0.00000  Uiso   1.00
C66    C     0.41170   0.15291   0.16676   0.00000  Uiso   1.00
C67    C     0.41005   0.34634   0.16754   0.00000  Uiso   1.00
C68    C     0.08879   0.15342   0.16729   0.00000  Uiso   1.00
C69    C     0.34772   0.08853   0.16674   0.00000  Uiso   1.00
C70    C     0.15608   0.40759   0.16579   0.00000  Uiso   1.00
C71    C     0.15139   0.08772   0.16613   0.00000  Uiso   1.00
C72    C     0.34486   0.40931   0.16778   0.00000  Uiso   1.00
O73    O     0.38736   0.17247   0.08938   0.00000  Uiso   1.00
C74    C     0.34863   0.19642   0.09174   0.00000  Uiso   1.00
H75    H     0.34464   0.21173   0.12623   0.00000  Uiso   1.00
H76    H     0.32038   0.17536   0.08558   0.00000  Uiso   1.00
C77    C     0.34801   0.23113   0.05424   0.00000  Uiso   1.00
H78    H     0.35824   0.21696   0.02103   0.00000  Uiso   1.00
H79    H     0.31477   0.24401   0.05073   0.00000  Uiso   1.00
C80    C     0.37781   0.26792   0.06609   0.00000  Uiso   1.00
H81    H     0.36955   0.28084   0.10046   0.00000  Uiso   1.00
H82    H     0.37463   0.29381   0.03968   0.00000  Uiso   1.00
H83    H     0.41144   0.25661   0.06660   0.00000  Uiso   1.00
O84    O     0.07182   0.36626   0.24076   0.00000  Uiso   1.00
C85    C     0.03638   0.39303   0.22915   0.00000  Uiso   1.00
H86    H     0.00719   0.37286   0.22427   0.00000  Uiso   1.00
H87    H     0.03989   0.41264   0.19662   0.00000  Uiso   1.00
C88    C     0.03025   0.42410   0.26827   0.00000  Uiso   1.00
H89    H     0.06195   0.43751   0.27811   0.00000  Uiso   1.00
H90    H     0.01026   0.45132   0.25649   0.00000  Uiso   1.00
C91    C     0.00953   0.40154   0.30926   0.00000  Uiso   1.00
H92    H     0.47913   0.38592   0.29822   0.00000  Uiso   1.00
H93    H     0.00232   0.42566   0.00248   0.00000  Uiso   1.00
H94    H     0.03155   0.37674   0.32402   0.00000  Uiso   1.00
O95    O     0.11990   0.32221   0.08954   0.00000  Uiso   1.00
C96    C     0.14443   0.28619   0.10532   0.00000  Uiso   1.00
H97    H     0.12445   0.26426   0.12697   0.00000  Uiso   1.00
H98    H     0.17302   0.29602   0.12634   0.00000  Uiso   1.00
C99    C     0.16150   0.26085   0.06461   0.00000  Uiso   1.00
H100   H     0.18326   0.28177   0.04423   0.00000  Uiso   1.00
H101   H     0.18066   0.23317   0.07816   0.00000  Uiso   1.00
C102   C     0.12540   0.24423   0.03369   0.00000  Uiso   1.00
H103   H     0.09988   0.22845   0.05458   0.00000  Uiso   1.00
H104   H     0.13862   0.22011   0.00975   0.00000  Uiso   1.00
H105   H     0.11146   0.27120   0.01297   0.00000  Uiso   1.00
O106   O     0.42773   0.13420   0.24790   0.00000  Uiso   1.00
C107   C     0.47055   0.11842   0.24458   0.00000  Uiso   1.00
H108   H     0.49164   0.14243   0.22771   0.00000  Uiso   1.00
H109   H     0.47284   0.08937   0.22295   0.00000  Uiso   1.00
C110   C     0.48817   0.10797   0.29338   0.00000  Uiso   1.00
H111   H     0.46727   0.12226   0.32023   0.00000  Uiso   1.00
H112   H     0.48841   0.07266   0.29881   0.00000  Uiso   1.00
C113   C     0.03404   0.12414   0.30091   0.00000  Uiso   1.00
H114   H     0.05591   0.10973   0.27556   0.00000  Uiso   1.00
H115   H     0.04548   0.11463   0.00258   0.00000  Uiso   1.00
H116   H     0.03574   0.15966   0.29741   0.00000  Uiso   1.00
O117   O     0.11309   0.16787   0.24611   0.00000  Uiso   1.00
C118   C     0.14026   0.20381   0.23735   0.00000  Uiso   1.00
H119   H     0.13481   0.22736   0.26517   0.00000  Uiso   1.00
H120   H     0.13118   0.22171   0.20509   0.00000  Uiso   1.00
C121   C     0.18835   0.19125   0.23753   0.00000  Uiso   1.00
H122   H     0.20659   0.21347   0.26001   0.00000  Uiso   1.00
H123   H     0.19287   0.15830   0.25224   0.00000  Uiso   1.00
C124   C     0.20782   0.19354   0.18908   0.00000  Uiso   1.00
H125   H     0.18961   0.17295   0.16476   0.00000  Uiso   1.00
H126   H     0.24171   0.18217   0.19038   0.00000  Uiso   1.00
H127   H     0.20731   0.22731   0.17585   0.00000  Uiso   1.00
O128   O     0.41277   0.35453   0.08432   0.00000  Uiso   1.00
C129   C     0.42530   0.39353   0.06230   0.00000  Uiso   1.00
H130   H     0.39722   0.41487   0.05487   0.00000  Uiso   1.00
H131   H     0.43808   0.38504   0.02809   0.00000  Uiso   1.00
C132   C     0.46007   0.41866   0.08938   0.00000  Uiso   1.00
H133   H     0.47059   0.44634   0.06785   0.00000  Uiso   1.00
H134   H     0.44633   0.43207   0.12158   0.00000  Uiso   1.00
C135   C     0.49983   0.39179   0.10140   0.00000  Uiso   1.00
H136   H     0.49358   0.37100   0.13189   0.00000  Uiso   1.00
H137   H     0.02694   0.41346   0.11041   0.00000  Uiso   1.00
H138   H     0.00950   0.37156   0.07191   0.00000  Uiso   1.00
O139   O     0.40852   0.34875   0.25269   0.00000  Uiso   1.00
C140   C     0.38480   0.31089   0.26300   0.00000  Uiso   1.00
H141   H     0.40295   0.29242   0.28994   0.00000  Uiso   1.00
H142   H     0.38167   0.28908   0.23276   0.00000  Uiso   1.00
C143   C     0.33974   0.32051   0.28151   0.00000  Uiso   1.00
H144   H     0.34231   0.33457   0.31653   0.00000  Uiso   1.00
H145   H     0.32247   0.34410   0.25897   0.00000  Uiso   1.00
C146   C     0.31362   0.27891   0.28283   0.00000  Uiso   1.00
H147   H     0.29608   0.27483   0.24956   0.00000  Uiso   1.00
H148   H     0.29046   0.27902   0.31158   0.00000  Uiso   1.00
H149   H     0.33494   0.25063   0.28806   0.00000  Uiso   1.00
O150   O     0.06701   0.13181   0.08939   0.00000  Uiso   1.00
C151   C     0.02587   0.11496   0.10084   0.00000  Uiso   1.00
H152   H     0.00173   0.12978   0.07701   0.00000  Uiso   1.00
H153   H     0.01519   0.12363   0.13626   0.00000  Uiso   1.00
C154   C     0.02454   0.06601   0.09479   0.00000  Uiso   1.00
H155   H     0.01720   0.05851   0.05809   0.00000  Uiso   1.00
H156   H     0.05632   0.05178   0.10378   0.00000  Uiso   1.00
C157   C     0.49082   0.04528   0.12601   0.00000  Uiso   1.00
H158   H     0.00002   0.04984   0.16266   0.00000  Uiso   1.00
H159   H     0.48901   0.01020   0.11940   0.00000  Uiso   1.00
H160   H     0.45872   0.06006   0.12024   0.00000  Uiso   1.00
O161   O     0.15403   0.40466   0.08047   0.00000  Uiso   1.00
C162   C     0.13376   0.44520   0.07239   0.00000  Uiso   1.00
H163   H     0.15827   0.46807   0.05904   0.00000  Uiso   1.00
H164   H     0.11989   0.46013   0.10400   0.00000  Uiso   1.00
C165   C     0.09891   0.44188   0.03549   0.00000  Uiso   1.00
H166   H     0.11443   0.43744   0.00137   0.00000  Uiso   1.00
H167   H     0.07824   0.41358   0.04307   0.00000  Uiso   1.00
C168   C     0.07147   0.48284   0.03472   0.00000  Uiso   1.00
H169   H     0.05052   0.48289   0.06565   0.00000  Uiso   1.00
H170   H     0.05065   0.48461   0.00360   0.00000  Uiso   1.00
H171   H     0.09215   0.01202   0.03485   0.00000  Uiso   1.00
O172   O     0.35545   0.08589   0.25172   0.00000  Uiso   1.00
C173   C     0.31772   0.10846   0.26468   0.00000  Uiso   1.00
H174   H     0.29761   0.08606   0.28565   0.00000  Uiso   1.00
H175   H     0.29733   0.11886   0.23453   0.00000  Uiso   1.00
C176   C     0.32752   0.14771   0.29419   0.00000  Uiso   1.00
H177   H     0.33727   0.13705   0.32954   0.00000  Uiso   1.00
H178   H     0.35399   0.16708   0.27889   0.00000  Uiso   1.00
C179   C     0.28717   0.17561   0.29665   0.00000  Uiso   1.00
H180   H     0.28359   0.19469   0.26415   0.00000  Uiso   1.00
H181   H     0.28853   0.19750   0.32645   0.00000  Uiso   1.00
H182   H     0.25831   0.15512   0.30044   0.00000  Uiso   1.00
O183   O     0.34417   0.09674   0.08205   0.00000  Uiso   1.00
C184   C     0.36211   0.05737   0.06706   0.00000  Uiso   1.00
H185   H     0.33752   0.04104   0.04549   0.00000  Uiso   1.00
H186   H     0.36986   0.03464   0.09625   0.00000  Uiso   1.00
C187   C     0.40191   0.06452   0.03718   0.00000  Uiso   1.00
H188   H     0.39255   0.07940   0.00348   0.00000  Uiso   1.00
H189   H     0.42478   0.08651   0.05464   0.00000  Uiso   1.00
C190   C     0.42368   0.02126   0.02900   0.00000  Uiso   1.00
H191   H     0.43119   0.00569   0.06269   0.00000  Uiso   1.00
H192   H     0.45411   0.02536   0.00990   0.00000  Uiso   1.00
H193   H     0.40187   0.49980   0.00942   0.00000  Uiso   1.00
O194   O     0.14909   0.40774   0.25019   0.00000  Uiso   1.00
C195   C     0.18366   0.38111   0.26514   0.00000  Uiso   1.00
H196   H     0.20090   0.39828   0.29308   0.00000  Uiso   1.00
H197   H     0.20799   0.37645   0.23734   0.00000  Uiso   1.00
C198   C     0.16813   0.33722   0.28415   0.00000  Uiso   1.00
H199   H     0.15435   0.34127   0.31920   0.00000  Uiso   1.00
H200   H     0.14288   0.32282   0.26217   0.00000  Uiso   1.00
C201   C     0.20508   0.30514   0.28569   0.00000  Uiso   1.00
H202   H     0.21673   0.29882   0.25014   0.00000  Uiso   1.00
H203   H     0.19416   0.27432   0.30116   0.00000  Uiso   1.00
H204   H     0.23168   0.31823   0.30666   0.00000  Uiso   1.00
O205   O     0.36285   0.42311   0.24901   0.00000  Uiso   1.00
C206   C     0.37871   0.46568   0.24379   0.00000  Uiso   1.00
H207   H     0.36464   0.48563   0.27150   0.00000  Uiso   1.00
H208   H     0.36912   0.48145   0.21053   0.00000  Uiso   1.00
C209   C     0.42742   0.46707   0.24818   0.00000  Uiso   1.00
H210   H     0.43708   0.45679   0.28367   0.00000  Uiso   1.00
H211   H     0.44220   0.44510   0.22268   0.00000  Uiso   1.00
C212   C     0.44302   0.01257   0.23835   0.00000  Uiso   1.00
H213   H     0.43447   0.02229   0.20234   0.00000  Uiso   1.00
H214   H     0.47835   0.01448   0.24252   0.00000  Uiso   1.00
H215   H     0.42771   0.03533   0.26254   0.00000  Uiso   1.00
O216   O     0.15051   0.09454   0.08171   0.00000  Uiso   1.00
C217   C     0.15321   0.13272   0.05394   0.00000  Uiso   1.00
H218   H     0.14815   0.16308   0.07339   0.00000  Uiso   1.00
H219   H     0.12841   0.13123   0.02612   0.00000  Uiso   1.00
C220   C     0.19719   0.13708   0.03134   0.00000  Uiso   1.00
H221   H     0.20264   0.11015   0.00741   0.00000  Uiso   1.00
H222   H     0.19724   0.16722   0.01020   0.00000  Uiso   1.00
C223   C     0.23367   0.13958   0.06689   0.00000  Uiso   1.00
H224   H     0.23198   0.17038   0.08592   0.00000  Uiso   1.00
H225   H     0.26500   0.13766   0.04901   0.00000  Uiso   1.00
H226   H     0.23237   0.11247   0.09197   0.00000  Uiso   1.00
O227   O     0.14125   0.08355   0.25096   0.00000  Uiso   1.00
C228   C     0.12159   0.04201   0.25468   0.00000  Uiso   1.00
H229   H     0.11655   0.03603   0.29219   0.00000  Uiso   1.00
H230   H     0.14459   0.01643   0.24495   0.00000  Uiso   1.00
C231   C     0.07739   0.03515   0.23028   0.00000  Uiso   1.00
H232   H     0.05402   0.02325   0.25638   0.00000  Uiso   1.00
H233   H     0.06345   0.06506   0.21516   0.00000  Uiso   1.00
C234   C     0.08054   0.00148   0.19234   0.00000  Uiso   1.00
H235   H     0.10040   0.01371   0.16330   0.00000  Uiso   1.00
H236   H     0.04806   0.49332   0.17916   0.00000  Uiso   1.00
H237   H     0.09521   0.47154   0.20635   0.00000  Uiso   1.00
O238   O     0.32527   0.38137   0.09234   0.00000  Uiso   1.00
C239   C     0.29442   0.35120   0.10869   0.00000  Uiso   1.00
H240   H     0.27377   0.36570   0.13578   0.00000  Uiso   1.00
H241   H     0.30987   0.32173   0.12383   0.00000  Uiso   1.00
C242   C     0.26545   0.33668   0.06945   0.00000  Uiso   1.00
H243   H     0.28475   0.31876   0.04398   0.00000  Uiso   1.00
H244   H     0.24102   0.31439   0.08406   0.00000  Uiso   1.00
C245   C     0.24306   0.37464   0.04566   0.00000  Uiso   1.00
H246   H     0.23787   0.40151   0.06987   0.00000  Uiso   1.00
H247   H     0.21122   0.36428   0.03286   0.00000  Uiso   1.00
H248   H     0.26267   0.38619   0.01605   0.00000  Uiso   1.00
O249   O     0.54508   0.20491   0.20625   0.00000  Uiso   1.00
O250   O     0.95491   0.29509   0.12709   0.00000  Uiso   1.00
O251   O     0.95491   0.29509   0.20625   0.00000  Uiso   1.00
O252   O     0.54508   0.20491   0.12709   0.00000  Uiso   1.00
O253   O     0.95491   0.20491   0.12709   0.00000  Uiso   1.00
O254   O     0.54508   0.29509   0.20625   0.00000  Uiso   1.00
O255   O     0.54508   0.29509   0.12709   0.00000  Uiso   1.00
O256   O     0.95491   0.20491   0.20625   0.00000  Uiso   1.00
O257   O     0.79508   0.45491   0.20625   0.00000  Uiso   1.00
O258   O     0.70491   0.04509   0.12709   0.00000  Uiso   1.00
O259   O     0.70491   0.04509   0.20625   0.00000  Uiso   1.00
O260   O     0.79508   0.45491   0.12709   0.00000  Uiso   1.00
O261   O     0.70491   0.45491   0.12709   0.00000  Uiso   1.00
O262   O     0.79508   0.04509   0.20625   0.00000  Uiso   1.00
O263   O     0.79508   0.04509   0.12709   0.00000  Uiso   1.00
O264   O     0.70491   0.45491   0.20625   0.00000  Uiso   1.00
C265   C     0.55854   0.18988   0.16693   0.00000  Uiso   1.00
C266   C     0.94160   0.31054   0.16671   0.00000  Uiso   1.00
C267   C     0.94175   0.18955   0.16677   0.00000  Uiso   1.00
C268   C     0.55964   0.30903   0.16636   0.00000  Uiso   1.00
C269   C     0.80945   0.44075   0.16700   0.00000  Uiso   1.00
C270   C     0.68879   0.05778   0.16639   0.00000  Uiso   1.00
C271   C     0.69025   0.44078   0.16656   0.00000  Uiso   1.00
C272   C     0.81094   0.05799   0.16670   0.00000  Uiso   1.00
H273   H     0.95927   0.19535   0.04272   0.00000  Uiso   1.00
H274   H     0.54173   0.30376   0.29054   0.00000  Uiso   1.00
H275   H     0.54052   0.30474   0.04204   0.00000  Uiso   1.00
H276   H     0.95644   0.19791   0.29144   0.00000  Uiso   1.00
H277   H     0.80119   0.45486   0.04319   0.00000  Uiso   1.00
H278   H     0.70173   0.04766   0.29047   0.00000  Uiso   1.00
H279   H     0.69836   0.04374   0.04172   0.00000  Uiso   1.00
H280   H     0.79843   0.45219   0.29198   0.00000  Uiso   1.00
N281   N     0.50000   0.25000   0.28402   0.00000  Uiso   1.00
N282   N     0.50000   0.25000   0.04931   0.00000  Uiso   1.00
N283   N     0.75000   0.00000   0.28402   0.00000  Uiso   1.00
N284   N     0.75000  -0.00000   0.04931   0.00000  Uiso   1.00
Cu285  Cu    0.50000   0.25000   0.21355   0.00000  Uiso   1.00
Cu286  Cu    0.50000   0.25000   0.11978   0.00000  Uiso   1.00
Cu287  Cu    0.75000   0.00000   0.21355   0.00000  Uiso   1.00
Cu288  Cu    0.75000   0.00000   0.11978   0.00000  Uiso   1.00
C289   C     0.97737   0.21997   0.02478   0.00000  Uiso   1.00
C290   C     0.52288   0.27985   0.30852   0.00000  Uiso   1.00
C291   C     0.52232   0.28028   0.02436   0.00000  Uiso   1.00
C292   C     0.97623   0.22094   0.30901   0.00000  Uiso   1.00
C293   C     0.77812   0.47496   0.02507   0.00000  Uiso   1.00
C294   C     0.72281   0.02579   0.30840   0.00000  Uiso   1.00
C295   C     0.72186   0.02474   0.02414   0.00000  Uiso   1.00
C296   C     0.77724   0.47405   0.30927   0.00000  Uiso   1.00
C297   C     0.88787   0.14388   0.12639   0.00000  Uiso   1.00
C298   C     0.60003   0.36748   0.20447   0.00000  Uiso   1.00
C299   C     0.61755   0.35109   0.12549   0.00000  Uiso   1.00
C300   C     0.90493   0.12760   0.20709   0.00000  Uiso   1.00
C301   C     0.61223   0.14216   0.20735   0.00000  Uiso   1.00
C302   C     0.89327   0.36326   0.12600   0.00000  Uiso   1.00
C303   C     0.89577   0.36448   0.20975   0.00000  Uiso   1.00
C304   C     0.59438   0.12835   0.12744   0.00000  Uiso   1.00
C305   C     0.64249   0.38855   0.12357   0.00000  Uiso   1.00
C306   C     0.86889   0.10048   0.20864   0.00000  Uiso   1.00
C307   C     0.86156   0.10759   0.12467   0.00000  Uiso   1.00
C308   C     0.63587   0.39408   0.20708   0.00000  Uiso   1.00
C309   C     0.86891   0.40066   0.20844   0.00000  Uiso   1.00
C310   C     0.63229   0.10339   0.12438   0.00000  Uiso   1.00
C311   C     0.63462   0.10318   0.20829   0.00000  Uiso   1.00
C312   C     0.85499   0.38671   0.12749   0.00000  Uiso   1.00
C313   C     0.59298   0.34255   0.16535   0.00000  Uiso   1.00
C314   C     0.91170   0.15291   0.16676   0.00000  Uiso   1.00
C315   C     0.91005   0.34634   0.16754   0.00000  Uiso   1.00
C316   C     0.58879   0.15342   0.16729   0.00000  Uiso   1.00
C317   C     0.84772   0.08853   0.16674   0.00000  Uiso   1.00
C318   C     0.65608   0.40759   0.16579   0.00000  Uiso   1.00
C319   C     0.65139   0.08772   0.16613   0.00000  Uiso   1.00
C320   C     0.84486   0.40931   0.16778   0.00000  Uiso   1.00
O321   O     0.88736   0.17247   0.08938   0.00000  Uiso   1.00
C322   C     0.84863   0.19642   0.09174   0.00000  Uiso   1.00
H323   H     0.84464   0.21173   0.12623   0.00000  Uiso   1.00
H324   H     0.82038   0.17536   0.08558   0.00000  Uiso   1.00
C325   C     0.84801   0.23113   0.05424   0.00000  Uiso   1.00
H326   H     0.85824   0.21696   0.02103   0.00000  Uiso   1.00
H327   H     0.81477   0.24401   0.05073   0.00000  Uiso   1.00
C328   C     0.87781   0.26792   0.06609   0.00000  Uiso   1.00
H329   H     0.86955   0.28084   0.10046   0.00000  Uiso   1.00
H330   H     0.87463   0.29381   0.03968   0.00000  Uiso   1.00
H331   H     0.91144   0.25661   0.06660   0.00000  Uiso   1.00
O332   O     0.57182   0.36626   0.24076   0.00000  Uiso   1.00
C333   C     0.53638   0.39303   0.22915   0.00000  Uiso   1.00
H334   H     0.50719   0.37286   0.22427   0.00000  Uiso   1.00
H335   H     0.53989   0.41264   0.19662   0.00000  Uiso   1.00
C336   C     0.53025   0.42410   0.26827   0.00000  Uiso   1.00
H337   H     0.56195   0.43751   0.27811   0.00000  Uiso   1.00
H338   H     0.51026   0.45132   0.25649   0.00000  Uiso   1.00
C339   C     0.50953   0.40154   0.30926   0.00000  Uiso   1.00
H340   H     0.97913   0.38592   0.29822   0.00000  Uiso   1.00
H341   H     0.50232   0.42566   0.00248   0.00000  Uiso   1.00
H342   H     0.53155   0.37674   0.32402   0.00000  Uiso   1.00
O343   O     0.61990   0.32221   0.08954   0.00000  Uiso   1.00
C344   C     0.64443   0.28619   0.10532   0.00000  Uiso   1.00
H345   H     0.62445   0.26426   0.12697   0.00000  Uiso   1.00
H346   H     0.67302   0.29602   0.12634   0.00000  Uiso   1.00
C347   C     0.66150   0.26085   0.06461   0.00000  Uiso   1.00
H348   H     0.68326   0.28177   0.04423   0.00000  Uiso   1.00
H349   H     0.68066   0.23317   0.07816   0.00000  Uiso   1.00
C350   C     0.62540   0.24423   0.03369   0.00000  Uiso   1.00
H351   H     0.59988   0.22845   0.05458   0.00000  Uiso   1.00
H352   H     0.63862   0.22011   0.00975   0.00000  Uiso   1.00
H353   H     0.61146   0.27120   0.01297   0.00000  Uiso   1.00
O354   O     0.92773   0.13420   0.24790   0.00000  Uiso   1.00
C355   C     0.97055   0.11842   0.24458   0.00000  Uiso   1.00
H356   H     0.99164   0.14243   0.22771   0.00000  Uiso   1.00
H357   H     0.97284   0.08937   0.22295   0.00000  Uiso   1.00
C358   C     0.98817   0.10797   0.29338   0.00000  Uiso   1.00
H359   H     0.96727   0.12226   0.32023   0.00000  Uiso   1.00
H360   H     0.98841   0.07266   0.29881   0.00000  Uiso   1.00
C361   C     0.53404   0.12414   0.30091   0.00000  Uiso   1.00
H362   H     0.55591   0.10973   0.27556   0.00000  Uiso   1.00
H363   H     0.54548   0.11463   0.00258   0.00000  Uiso   1.00
H364   H     0.53574   0.15966   0.29741   0.00000  Uiso   1.00
O365   O     0.61309   0.16787   0.24611   0.00000  Uiso   1.00
C366   C     0.64026   0.20381   0.23735   0.00000  Uiso   1.00
H367   H     0.63481   0.22736   0.26517   0.00000  Uiso   1.00
H368   H     0.63118   0.22171   0.20509   0.00000  Uiso   1.00
C369   C     0.68835   0.19125   0.23753   0.00000  Uiso   1.00
H370   H     0.70659   0.21347   0.26001   0.00000  Uiso   1.00
H371   H     0.69287   0.15830   0.25224   0.00000  Uiso   1.00
C372   C     0.70782   0.19354   0.18908   0.00000  Uiso   1.00
H373   H     0.68961   0.17295   0.16476   0.00000  Uiso   1.00
H374   H     0.74171   0.18217   0.19038   0.00000  Uiso   1.00
H375   H     0.70731   0.22731   0.17585   0.00000  Uiso   1.00
O376   O     0.91277   0.35453   0.08432   0.00000  Uiso   1.00
C377   C     0.92530   0.39353   0.06230   0.00000  Uiso   1.00
H378   H     0.89722   0.41487   0.05487   0.00000  Uiso   1.00
H379   H     0.93808   0.38504   0.02809   0.00000  Uiso   1.00
C380   C     0.96007   0.41866   0.08938   0.00000  Uiso   1.00
H381   H     0.97059   0.44634   0.06785   0.00000  Uiso   1.00
H382   H     0.94633   0.43207   0.12158   0.00000  Uiso   1.00
C383   C     0.99983   0.39179   0.10140   0.00000  Uiso   1.00
H384   H     0.99358   0.37100   0.13189   0.00000  Uiso   1.00
H385   H     0.52694   0.41346   0.11041   0.00000  Uiso   1.00
H386   H     0.50950   0.37156   0.07191   0.00000  Uiso   1.00
O387   O     0.90852   0.34875   0.25269   0.00000  Uiso   1.00
C388   C     0.88480   0.31089   0.26300   0.00000  Uiso   1.00
H389   H     0.90295   0.29242   0.28994   0.00000  Uiso   1.00
H390   H     0.88167   0.28908   0.23276   0.00000  Uiso   1.00
C391   C     0.83974   0.32051   0.28151   0.00000  Uiso   1.00
H392   H     0.84231   0.33457   0.31653   0.00000  Uiso   1.00
H393   H     0.82247   0.34410   0.25897   0.00000  Uiso   1.00
C394   C     0.81362   0.27891   0.28283   0.00000  Uiso   1.00
H395   H     0.79608   0.27483   0.24956   0.00000  Uiso   1.00
H396   H     0.79046   0.27902   0.31158   0.00000  Uiso   1.00
H397   H     0.83494   0.25063   0.28806   0.00000  Uiso   1.00
O398   O     0.56701   0.13181   0.08939   0.00000  Uiso   1.00
C399   C     0.52587   0.11496   0.10084   0.00000  Uiso   1.00
H400   H     0.50173   0.12978   0.07701   0.00000  Uiso   1.00
H401   H     0.51519   0.12363   0.13626   0.00000  Uiso   1.00
C402   C     0.52454   0.06601   0.09479   0.00000  Uiso   1.00
H403   H     0.51720   0.05851   0.05809   0.00000  Uiso   1.00
H404   H     0.55632   0.05178   0.10378   0.00000  Uiso   1.00
C405   C     0.99082   0.04528   0.12601   0.00000  Uiso   1.00
H406   H     0.50002   0.04984   0.16266   0.00000  Uiso   1.00
H407   H     0.98901   0.01020   0.11940   0.00000  Uiso   1.00
H408   H     0.95872   0.06006   0.12024   0.00000  Uiso   1.00
O409   O     0.65403   0.40466   0.08047   0.00000  Uiso   1.00
C410   C     0.63376   0.44520   0.07239   0.00000  Uiso   1.00
H411   H     0.65827   0.46807   0.05904   0.00000  Uiso   1.00
H412   H     0.61989   0.46013   0.10400   0.00000  Uiso   1.00
C413   C     0.59891   0.44188   0.03549   0.00000  Uiso   1.00
H414   H     0.61443   0.43744   0.00137   0.00000  Uiso   1.00
H415   H     0.57824   0.41358   0.04307   0.00000  Uiso   1.00
C416   C     0.57147   0.48284   0.03472   0.00000  Uiso   1.00
H417   H     0.55052   0.48289   0.06565   0.00000  Uiso   1.00
H418   H     0.55065   0.48461   0.00360   0.00000  Uiso   1.00
H419   H     0.59215   0.01202   0.03485   0.00000  Uiso   1.00
O420   O     0.85545   0.08589   0.25172   0.00000  Uiso   1.00
C421   C     0.81772   0.10846   0.26468   0.00000  Uiso   1.00
H422   H     0.79761   0.08606   0.28565   0.00000  Uiso   1.00
H423   H     0.79733   0.11886   0.23453   0.00000  Uiso   1.00
C424   C     0.82752   0.14771   0.29419   0.00000  Uiso   1.00
H425   H     0.83727   0.13705   0.32954   0.00000  Uiso   1.00
H426   H     0.85399   0.16708   0.27889   0.00000  Uiso   1.00
C427   C     0.78717   0.17561   0.29665   0.00000  Uiso   1.00
H428   H     0.78359   0.19469   0.26415   0.00000  Uiso   1.00
H429   H     0.78853   0.19750   0.32645   0.00000  Uiso   1.00
H430   H     0.75831   0.15512   0.30044   0.00000  Uiso   1.00
O431   O     0.84417   0.09674   0.08205   0.00000  Uiso   1.00
C432   C     0.86211   0.05737   0.06706   0.00000  Uiso   1.00
H433   H     0.83752   0.04104   0.04549   0.00000  Uiso   1.00
H434   H     0.86986   0.03464   0.09625   0.00000  Uiso   1.00
C435   C     0.90191   0.06452   0.03718   0.00000  Uiso   1.00
H436   H     0.89255   0.07940   0.00348   0.00000  Uiso   1.00
H437   H     0.92478   0.08651   0.05464   0.00000  Uiso   1.00
C438   C     0.92368   0.02126   0.02900   0.00000  Uiso   1.00
H439   H     0.93119   0.00569   0.06269   0.00000  Uiso   1.00
H440   H     0.95411   0.02536   0.00990   0.00000  Uiso   1.00
H441   H     0.90187   0.49980   0.00942   0.00000  Uiso   1.00
O442   O     0.64909   0.40774   0.25019   0.00000  Uiso   1.00
C443   C     0.68366   0.38111   0.26514   0.00000  Uiso   1.00
H444   H     0.70090   0.39828   0.29308   0.00000  Uiso   1.00
H445   H     0.70799   0.37645   0.23734   0.00000  Uiso   1.00
C446   C     0.66813   0.33722   0.28415   0.00000  Uiso   1.00
H447   H     0.65435   0.34127   0.31920   0.00000  Uiso   1.00
H448   H     0.64288   0.32282   0.26217   0.00000  Uiso   1.00
C449   C     0.70508   0.30514   0.28569   0.00000  Uiso   1.00
H450   H     0.71673   0.29882   0.25014   0.00000  Uiso   1.00
H451   H     0.69416   0.27432   0.30116   0.00000  Uiso   1.00
H452   H     0.73168   0.31823   0.30666   0.00000  Uiso   1.00
O453   O     0.86285   0.42311   0.24901   0.00000  Uiso   1.00
C454   C     0.87871   0.46568   0.24379   0.00000  Uiso   1.00
H455   H     0.86464   0.48563   0.27150   0.00000  Uiso   1.00
H456   H     0.86912   0.48145   0.21053   0.00000  Uiso   1.00
C457   C     0.92742   0.46707   0.24818   0.00000  Uiso   1.00
H458   H     0.93708   0.45679   0.28367   0.00000  Uiso   1.00
H459   H     0.94220   0.44510   0.22268   0.00000  Uiso   1.00
C460   C     0.94302   0.01257   0.23835   0.00000  Uiso   1.00
H461   H     0.93447   0.02229   0.20234   0.00000  Uiso   1.00
H462   H     0.97835   0.01448   0.24252   0.00000  Uiso   1.00
H463   H     0.92771   0.03533   0.26254   0.00000  Uiso   1.00
O464   O     0.65051   0.09454   0.08171   0.00000  Uiso   1.00
C465   C     0.65321   0.13272   0.05394   0.00000  Uiso   1.00
H466   H     0.64815   0.16308   0.07339   0.00000  Uiso   1.00
H467   H     0.62841   0.13123   0.02612   0.00000  Uiso   1.00
C468   C     0.69719   0.13708   0.03134   0.00000  Uiso   1.00
H469   H     0.70264   0.11015   0.00741   0.00000  Uiso   1.00
H470   H     0.69724   0.16722   0.01020   0.00000  Uiso   1.00
C471   C     0.73367   0.13958   0.06689   0.00000  Uiso   1.00
H472   H     0.73198   0.17038   0.08592   0.00000  Uiso   1.00
H473   H     0.76500   0.13766   0.04901   0.00000  Uiso   1.00
H474   H     0.73237   0.11247   0.09197   0.00000  Uiso   1.00
O475   O     0.64125   0.08355   0.25096   0.00000  Uiso   1.00
C476   C     0.62159   0.04201   0.25468   0.00000  Uiso   1.00
H477   H     0.61655   0.03603   0.29219   0.00000  Uiso   1.00
H478   H     0.64459   0.01643   0.24495   0.00000  Uiso   1.00
C479   C     0.57739   0.03515   0.23028   0.00000  Uiso   1.00
H480   H     0.55402   0.02325   0.25638   0.00000  Uiso   1.00
H481   H     0.56345   0.06506   0.21516   0.00000  Uiso   1.00
C482   C     0.58054   0.00148   0.19234   0.00000  Uiso   1.00
H483   H     0.60040   0.01371   0.16330   0.00000  Uiso   1.00
H484   H     0.54806   0.49332   0.17916   0.00000  Uiso   1.00
H485   H     0.59521   0.47154   0.20635   0.00000  Uiso   1.00
O486   O     0.82527   0.38137   0.09234   0.00000  Uiso   1.00
C487   C     0.79442   0.35120   0.10869   0.00000  Uiso   1.00
H488   H     0.77377   0.36570   0.13578   0.00000  Uiso   1.00
H489   H     0.80987   0.32173   0.12383   0.00000  Uiso   1.00
C490   C     0.76545   0.33668   0.06945   0.00000  Uiso   1.00
H491   H     0.78475   0.31876   0.04398   0.00000  Uiso   1.00
H492   H     0.74102   0.31439   0.08406   0.00000  Uiso   1.00
C493   C     0.74306   0.37464   0.04566   0.00000  Uiso   1.00
H494   H     0.73787   0.40151   0.06987   0.00000  Uiso   1.00
H495   H     0.71122   0.36428   0.03286   0.00000  Uiso   1.00
H496   H     0.76267   0.38619   0.01605   0.00000  Uiso   1.00
O497   O     0.04508   0.70491   0.20625   0.00000  Uiso   1.00
O498   O     0.45491   0.79509   0.12709   0.00000  Uiso   1.00
O499   O     0.45491   0.79509   0.20625   0.00000  Uiso   1.00
O500   O     0.04508   0.70491   0.12709   0.00000  Uiso   1.00
O501   O     0.45491   0.70491   0.12709   0.00000  Uiso   1.00
O502   O     0.04508   0.79509   0.20625   0.00000  Uiso   1.00
O503   O     0.04508   0.79509   0.12709   0.00000  Uiso   1.00
O504   O     0.45491   0.70491   0.20625   0.00000  Uiso   1.00
O505   O     0.29508   0.95491   0.20625   0.00000  Uiso   1.00
O506   O     0.20491   0.54509   0.12709   0.00000  Uiso   1.00
O507   O     0.20491   0.54509   0.20625   0.00000  Uiso   1.00
O508   O     0.29508   0.95491   0.12709   0.00000  Uiso   1.00
O509   O     0.20491   0.95491   0.12709   0.00000  Uiso   1.00
O510   O     0.29508   0.54509   0.20625   0.00000  Uiso   1.00
O511   O     0.29508   0.54509   0.12709   0.00000  Uiso   1.00
O512   O     0.20491   0.95491   0.20625   0.00000  Uiso   1.00
C513   C     0.05854   0.68988   0.16693   0.00000  Uiso   1.00
C514   C     0.44160   0.81054   0.16671   0.00000  Uiso   1.00
C515   C     0.44175   0.68955   0.16677   0.00000  Uiso   1.00
C516   C     0.05964   0.80903   0.16636   0.00000  Uiso   1.00
C517   C     0.30945   0.94075   0.16700   0.00000  Uiso   1.00
C518   C     0.18879   0.55778   0.16639   0.00000  Uiso   1.00
C519   C     0.19025   0.94078   0.16656   0.00000  Uiso   1.00
C520   C     0.31094   0.55799   0.16670   0.00000  Uiso   1.00
H521   H     0.45927   0.69535   0.04272   0.00000  Uiso   1.00
H522   H     0.04173   0.80376   0.29054   0.00000  Uiso   1.00
H523   H     0.04052   0.80474   0.04204   0.00000  Uiso   1.00
H524   H     0.45644   0.69791   0.29144   0.00000  Uiso   1.00
H525   H     0.30119   0.95486   0.04319   0.00000  Uiso   1.00
H526   H     0.20173   0.54766   0.29047   0.00000  Uiso   1.00
H527   H     0.19836   0.54374   0.04172   0.00000  Uiso   1.00
H528   H     0.29843   0.95219   0.29198   0.00000  Uiso   1.00
N529   N    -0.00000   0.75000   0.28402   0.00000  Uiso   1.00
N530   N     0.00000   0.75000   0.04931   0.00000  Uiso   1.00
N531   N     0.25000   0.50000   0.28402   0.00000  Uiso   1.00
N532   N     0.25000   0.50000   0.04931   0.00000  Uiso   1.00
Cu533  Cu    0.00000   0.75000   0.21355   0.00000  Uiso   1.00
Cu534  Cu    0.00000   0.75000   0.11978   0.00000  Uiso   1.00
Cu535  Cu    0.25000   0.50000   0.21355   0.00000  Uiso   1.00
Cu536  Cu    0.25000   0.50000   0.11978   0.00000  Uiso   1.00
C537   C     0.47737   0.71997   0.02478   0.00000  Uiso   1.00
C538   C     0.02288   0.77985   0.30852   0.00000  Uiso   1.00
C539   C     0.02232   0.78028   0.02436   0.00000  Uiso   1.00
C540   C     0.47623   0.72094   0.30901   0.00000  Uiso   1.00
C541   C     0.27812   0.97496   0.02507   0.00000  Uiso   1.00
C542   C     0.22281   0.52579   0.30840   0.00000  Uiso   1.00
C543   C     0.22186   0.52474   0.02414   0.00000  Uiso   1.00
C544   C     0.27724   0.97405   0.30927   0.00000  Uiso   1.00
C545   C     0.38787   0.64388   0.12639   0.00000  Uiso   1.00
C546   C     0.10003   0.86748   0.20447   0.00000  Uiso   1.00
C547   C     0.11755   0.85109   0.12549   0.00000  Uiso   1.00
C548   C     0.40493   0.62760   0.20709   0.00000  Uiso   1.00
C549   C     0.11223   0.64216   0.20735   0.00000  Uiso   1.00
C550   C     0.39327   0.86326   0.12600   0.00000  Uiso   1.00
C551   C     0.39577   0.86448   0.20975   0.00000  Uiso   1.00
C552   C     0.09438   0.62835   0.12744   0.00000  Uiso   1.00
C553   C     0.14249   0.88855   0.12357   0.00000  Uiso   1.00
C554   C     0.36889   0.60048   0.20864   0.00000  Uiso   1.00
C555   C     0.36156   0.60759   0.12467   0.00000  Uiso   1.00
C556   C     0.13587   0.89408   0.20708   0.00000  Uiso   1.00
C557   C     0.36891   0.90066   0.20844   0.00000  Uiso   1.00
C558   C     0.13229   0.60339   0.12438   0.00000  Uiso   1.00
C559   C     0.13462   0.60318   0.20829   0.00000  Uiso   1.00
C560   C     0.35499   0.88671   0.12749   0.00000  Uiso   1.00
C561   C     0.09298   0.84255   0.16535   0.00000  Uiso   1.00
C562   C     0.41170   0.65291   0.16676   0.00000  Uiso   1.00
C563   C     0.41005   0.84634   0.16754   0.00000  Uiso   1.00
C564   C     0.08879   0.65342   0.16729   0.00000  Uiso   1.00
C565   C     0.34772   0.58853   0.16674   0.00000  Uiso   1.00
C566   C     0.15608   0.90759   0.16579   0.00000  Uiso   1.00
C567   C     0.15139   0.58772   0.16613   0.00000  Uiso   1.00
C568   C     0.34486   0.90931   0.16778   0.00000  Uiso   1.00
O569   O     0.38736   0.67247   0.08938   0.00000  Uiso   1.00
C570   C     0.34863   0.69642   0.09174   0.00000  Uiso   1.00
H571   H     0.34464   0.71173   0.12623   0.00000  Uiso   1.00
H572   H     0.32038   0.67536   0.08558   0.00000  Uiso   1.00
C573   C     0.34801   0.73113   0.05424   0.00000  Uiso   1.00
H574   H     0.35824   0.71696   0.02103   0.00000  Uiso   1.00
H575   H     0.31477   0.74401   0.05073   0.00000  Uiso   1.00
C576   C     0.37781   0.76792   0.06609   0.00000  Uiso   1.00
H577   H     0.36955   0.78084   0.10046   0.00000  Uiso   1.00
H578   H     0.37463   0.79381   0.03968   0.00000  Uiso   1.00
H579   H     0.41144   0.75661   0.06660   0.00000  Uiso   1.00
O580   O     0.07182   0.86626   0.24076   0.00000  Uiso   1.00
C581   C     0.03638   0.89303   0.22915   0.00000  Uiso   1.00
H582   H     0.00719   0.87286   0.22427   0.00000  Uiso   1.00
H583   H     0.03989   0.91264   0.19662   0.00000  Uiso   1.00
C584   C     0.03025   0.92410   0.26827   0.00000  Uiso   1.00
H585   H     0.06195   0.93751   0.27811   0.00000  Uiso   1.00
H586   H     0.01026   0.95132   0.25649   0.00000  Uiso   1.00
C587   C     0.00953   0.90154   0.30926   0.00000  Uiso   1.00
H588   H     0.47913   0.88592   0.29822   0.00000  Uiso   1.00
H589   H     0.00232   0.92566   0.00248   0.00000  Uiso   1.00
H590   H     0.03155   0.87674   0.32402   0.00000  Uiso   1.00
O591   O     0.11990   0.82221   0.08954   0.00000  Uiso   1.00
C592   C     0.14443   0.78619   0.10532   0.00000  Uiso   1.00
H593   H     0.12445   0.76426   0.12697   0.00000  Uiso   1.00
H594   H     0.17302   0.79602   0.12634   0.00000  Uiso   1.00
C595   C     0.16150   0.76085   0.06461   0.00000  Uiso   1.00
H596   H     0.18326   0.78177   0.04423   0.00000  Uiso   1.00
H597   H     0.18066   0.73317   0.07816   0.00000  Uiso   1.00
C598   C     0.12540   0.74423   0.03369   0.00000  Uiso   1.00
H599   H     0.09988   0.72845   0.05458   0.00000  Uiso   1.00
H600   H     0.13862   0.72011   0.00975   0.00000  Uiso   1.00
H601   H     0.11146   0.77120   0.01297   0.00000  Uiso   1.00
O602   O     0.42773   0.63420   0.24790   0.00000  Uiso   1.00
C603   C     0.47055   0.61842   0.24458   0.00000  Uiso   1.00
H604   H     0.49164   0.64243   0.22771   0.00000  Uiso   1.00
H605   H     0.47284   0.58937   0.22295   0.00000  Uiso   1.00
C606   C     0.48817   0.60797   0.29338   0.00000  Uiso   1.00
H607   H     0.46727   0.62226   0.32023   0.00000  Uiso   1.00
H608   H     0.48841   0.57266   0.29881   0.00000  Uiso   1.00
C609   C     0.03404   0.62414   0.30091   0.00000  Uiso   1.00
H610   H     0.05591   0.60973   0.27556   0.00000  Uiso   1.00
H611   H     0.04548   0.61463   0.00258   0.00000  Uiso   1.00
H612   H     0.03574   0.65966   0.29741   0.00000  Uiso   1.00
O613   O     0.11309   0.66787   0.24611   0.00000  Uiso   1.00
C614   C     0.14026   0.70381   0.23735   0.00000  Uiso   1.00
H615   H     0.13481   0.72736   0.26517   0.00000  Uiso   1.00
H616   H     0.13118   0.72171   0.20509   0.00000  Uiso   1.00
C617   C     0.18835   0.69125   0.23753   0.00000  Uiso   1.00
H618   H     0.20659   0.71347   0.26001   0.00000  Uiso   1.00
H619   H     0.19287   0.65830   0.25224   0.00000  Uiso   1.00
C620   C     0.20782   0.69354   0.18908   0.00000  Uiso   1.00
H621   H     0.18961   0.67295   0.16476   0.00000  Uiso   1.00
H622   H     0.24171   0.68217   0.19038   0.00000  Uiso   1.00
H623   H     0.20731   0.72731   0.17585   0.00000  Uiso   1.00
O624   O     0.41277   0.85453   0.08432   0.00000  Uiso   1.00
C625   C     0.42530   0.89353   0.06230   0.00000  Uiso   1.00
H626   H     0.39722   0.91487   0.05487   0.00000  Uiso   1.00
H627   H     0.43808   0.88504   0.02809   0.00000  Uiso   1.00
C628   C     0.46007   0.91866   0.08938   0.00000  Uiso   1.00
H629   H     0.47059   0.94634   0.06785   0.00000  Uiso   1.00
H630   H     0.44633   0.93207   0.12158   0.00000  Uiso   1.00
C631   C     0.49983   0.89179   0.10140   0.00000  Uiso   1.00
H632   H     0.49358   0.87100   0.13189   0.00000  Uiso   1.00
H633   H     0.02694   0.91346   0.11041   0.00000  Uiso   1.00
H634   H     0.00950   0.87156   0.07191   0.00000  Uiso   1.00
O635   O     0.40852   0.84875   0.25269   0.00000  Uiso   1.00
C636   C     0.38480   0.81089   0.26300   0.00000  Uiso   1.00
H637   H     0.40295   0.79242   0.28994   0.00000  Uiso   1.00
H638   H     0.38167   0.78908   0.23276   0.00000  Uiso   1.00
C639   C     0.33974   0.82051   0.28151   0.00000  Uiso   1.00
H640   H     0.34231   0.83457   0.31653   0.00000  Uiso   1.00
H641   H     0.32247   0.84410   0.25897   0.00000  Uiso   1.00
C642   C     0.31362   0.77891   0.28283   0.00000  Uiso   1.00
H643   H     0.29608   0.77483   0.24956   0.00000  Uiso   1.00
H644   H     0.29046   0.77902   0.31158   0.00000  Uiso   1.00
H645   H     0.33494   0.75063   0.28806   0.00000  Uiso   1.00
O646   O     0.06701   0.63181   0.08939   0.00000  Uiso   1.00
C647   C     0.02587   0.61496   0.10084   0.00000  Uiso   1.00
H648   H     0.00173   0.62978   0.07701   0.00000  Uiso   1.00
H649   H     0.01519   0.62363   0.13626   0.00000  Uiso   1.00
C650   C     0.02454   0.56601   0.09479   0.00000  Uiso   1.00
H651   H     0.01720   0.55851   0.05809   0.00000  Uiso   1.00
H652   H     0.05632   0.55178   0.10378   0.00000  Uiso   1.00
C653   C     0.49082   0.54528   0.12601   0.00000  Uiso   1.00
H654   H     0.00002   0.54984   0.16266   0.00000  Uiso   1.00
H655   H     0.48901   0.51020   0.11940   0.00000  Uiso   1.00
H656   H     0.45872   0.56006   0.12024   0.00000  Uiso   1.00
O657   O     0.15403   0.90466   0.08047   0.00000  Uiso   1.00
C658   C     0.13376   0.94520   0.07239   0.00000  Uiso   1.00
H659   H     0.15827   0.96807   0.05904   0.00000  Uiso   1.00
H660   H     0.11989   0.96013   0.10400   0.00000  Uiso   1.00
C661   C     0.09891   0.94188   0.03549   0.00000  Uiso   1.00
H662   H     0.11443   0.93744   0.00137   0.00000  Uiso   1.00
H663   H     0.07824   0.91358   0.04307   0.00000  Uiso   1.00
C664   C     0.07147   0.98284   0.03472   0.00000  Uiso   1.00
H665   H     0.05052   0.98289   0.06565   0.00000  Uiso   1.00
H666   H     0.05065   0.98461   0.00360   0.00000  Uiso   1.00
H667   H     0.09215   0.51202   0.03485   0.00000  Uiso   1.00
O668   O     0.35545   0.58589   0.25172   0.00000  Uiso   1.00
C669   C     0.31772   0.60846   0.26468   0.00000  Uiso   1.00
H670   H     0.29761   0.58606   0.28565   0.00000  Uiso   1.00
H671   H     0.29733   0.61886   0.23453   0.00000  Uiso   1.00
C672   C     0.32752   0.64771   0.29419   0.00000  Uiso   1.00
H673   H     0.33727   0.63705   0.32954   0.00000  Uiso   1.00
H674   H     0.35399   0.66708   0.27889   0.00000  Uiso   1.00
C675   C     0.28717   0.67561   0.29665   0.00000  Uiso   1.00
H676   H     0.28359   0.69469   0.26415   0.00000  Uiso   1.00
H677   H     0.28853   0.69750   0.32645   0.00000  Uiso   1.00
H678   H     0.25831   0.65512   0.30044   0.00000  Uiso   1.00
O679   O     0.34417   0.59674   0.08205   0.00000  Uiso   1.00
C680   C     0.36211   0.55737   0.06706   0.00000  Uiso   1.00
H681   H     0.33752   0.54104   0.04549   0.00000  Uiso   1.00
H682   H     0.36986   0.53464   0.09625   0.00000  Uiso   1.00
C683   C     0.40191   0.56452   0.03718   0.00000  Uiso   1.00
H684   H     0.39255   0.57940   0.00348   0.00000  Uiso   1.00
H685   H     0.42478   0.58651   0.05464   0.00000  Uiso   1.00
C686   C     0.42368   0.52126   0.02900   0.00000  Uiso   1.00
H687   H     0.43119   0.50569   0.06269   0.00000  Uiso   1.00
H688   H     0.45411   0.52536   0.00990   0.00000  Uiso   1.00
H689   H     0.40187   0.99980   0.00942   0.00000  Uiso   1.00
O690   O     0.14909   0.90774   0.25019   0.00000  Uiso   1.00
C691   C     0.18366   0.88111   0.26514   0.00000  Uiso   1.00
H692   H     0.20090   0.89828   0.29308   0.00000  Uiso   1.00
H693   H     0.20799   0.87645   0.23734   0.00000  Uiso   1.00
C694   C     0.16813   0.83722   0.28415   0.00000  Uiso   1.00
H695   H     0.15435   0.84127   0.31920   0.00000  Uiso   1.00
H696   H     0.14288   0.82282   0.26217   0.00000  Uiso   1.00
C697   C     0.20508   0.80514   0.28569   0.00000  Uiso   1.00
H698   H     0.21673   0.79882   0.25014   0.00000  Uiso   1.00
H699   H     0.19416   0.77432   0.30116   0.00000  Uiso   1.00
H700   H     0.23168   0.81823   0.30666   0.00000  Uiso   1.00
O701   O     0.36285   0.92311   0.24901   0.00000  Uiso   1.00
C702   C     0.37871   0.96568   0.24379   0.00000  Uiso   1.00
H703   H     0.36464   0.98563   0.27150   0.00000  Uiso   1.00
H704   H     0.36912   0.98145   0.21053   0.00000  Uiso   1.00
C705   C     0.42742   0.96707   0.24818   0.00000  Uiso   1.00
H706   H     0.43708   0.95679   0.28367   0.00000  Uiso   1.00
H707   H     0.44220   0.94510   0.22268   0.00000  Uiso   1.00
C708   C     0.44302   0.51257   0.23835   0.00000  Uiso   1.00
H709   H     0.43447   0.52229   0.20234   0.00000  Uiso   1.00
H710   H     0.47835   0.51448   0.24252   0.00000  Uiso   1.00
H711   H     0.42771   0.53533   0.26254   0.00000  Uiso   1.00
O712   O     0.15051   0.59454   0.08171   0.00000  Uiso   1.00
C713   C     0.15321   0.63272   0.05394   0.00000  Uiso   1.00
H714   H     0.14815   0.66308   0.07339   0.00000  Uiso   1.00
H715   H     0.12841   0.63123   0.02612   0.00000  Uiso   1.00
C716   C     0.19719   0.63708   0.03134   0.00000  Uiso   1.00
H717   H     0.20264   0.61015   0.00741   0.00000  Uiso   1.00
H718   H     0.19724   0.66722   0.01020   0.00000  Uiso   1.00
C719   C     0.23367   0.63958   0.06689   0.00000  Uiso   1.00
H720   H     0.23198   0.67038   0.08592   0.00000  Uiso   1.00
H721   H     0.26500   0.63766   0.04901   0.00000  Uiso   1.00
H722   H     0.23237   0.61247   0.09197   0.00000  Uiso   1.00
O723   O     0.14125   0.58355   0.25096   0.00000  Uiso   1.00
C724   C     0.12159   0.54201   0.25468   0.00000  Uiso   1.00
H725   H     0.11655   0.53603   0.29219   0.00000  Uiso   1.00
H726   H     0.14459   0.51643   0.24495   0.00000  Uiso   1.00
C727   C     0.07739   0.53515   0.23028   0.00000  Uiso   1.00
H728   H     0.05402   0.52325   0.25638   0.00000  Uiso   1.00
H729   H     0.06345   0.56506   0.21516   0.00000  Uiso   1.00
C730   C     0.08054   0.50148   0.19234   0.00000  Uiso   1.00
H731   H     0.10040   0.51371   0.16330   0.00000  Uiso   1.00
H732   H     0.04806   0.99332   0.17916   0.00000  Uiso   1.00
H733   H     0.09521   0.97154   0.20635   0.00000  Uiso   1.00
O734   O     0.32527   0.88137   0.09234   0.00000  Uiso   1.00
C735   C     0.29442   0.85120   0.10869   0.00000  Uiso   1.00
H736   H     0.27377   0.86570   0.13578   0.00000  Uiso   1.00
H737   H     0.30987   0.82173   0.12383   0.00000  Uiso   1.00
C738   C     0.26545   0.83668   0.06945   0.00000  Uiso   1.00
H739   H     0.28475   0.81876   0.04398   0.00000  Uiso   1.00
H740   H     0.24102   0.81439   0.08406   0.00000  Uiso   1.00
C741   C     0.24306   0.87464   0.04566   0.00000  Uiso   1.00
H742   H     0.23787   0.90151   0.06987   0.00000  Uiso   1.00
H743   H     0.21122   0.86428   0.03286   0.00000  Uiso   1.00
H744   H     0.26267   0.88619   0.01605   0.00000  Uiso   1.00
O745   O     0.54508   0.70491   0.20625   0.00000  Uiso   1.00
O746   O     0.95491   0.79509   0.12709   0.00000  Uiso   1.00
O747   O     0.95491   0.79509   0.20625   0.00000  Uiso   1.00
O748   O     0.54508   0.70491   0.12709   0.00000  Uiso   1.00
O749   O     0.95491   0.70491   0.12709   0.00000  Uiso   1.00
O750   O     0.54508   0.79509   0.20625   0.00000  Uiso   1.00
O751   O     0.54508   0.79509   0.12709   0.00000  Uiso   1.00
O752   O     0.95491   0.70491   0.20625   0.00000  Uiso   1.00
O753   O     0.79508   0.95491   0.20625   0.00000  Uiso   1.00
O754   O     0.70491   0.54509   0.12709   0.00000  Uiso   1.00
O755   O     0.70491   0.54509   0.20625   0.00000  Uiso   1.00
O756   O     0.79508   0.95491   0.12709   0.00000  Uiso   1.00
O757   O     0.70491   0.95491   0.12709   0.00000  Uiso   1.00
O758   O     0.79508   0.54509   0.20625   0.00000  Uiso   1.00
O759   O     0.79508   0.54509   0.12709   0.00000  Uiso   1.00
O760   O     0.70491   0.95491   0.20625   0.00000  Uiso   1.00
C761   C     0.55854   0.68988   0.16693   0.00000  Uiso   1.00
C762   C     0.94160   0.81054   0.16671   0.00000  Uiso   1.00
C763   C     0.94175   0.68955   0.16677   0.00000  Uiso   1.00
C764   C     0.55964   0.80903   0.16636   0.00000  Uiso   1.00
C765   C     0.80945   0.94075   0.16700   0.00000  Uiso   1.00
C766   C     0.68879   0.55778   0.16639   0.00000  Uiso   1.00
C767   C     0.69025   0.94078   0.16656   0.00000  Uiso   1.00
C768   C     0.81094   0.55799   0.16670   0.00000  Uiso   1.00
H769   H     0.95927   0.69535   0.04272   0.00000  Uiso   1.00
H770   H     0.54173   0.80376   0.29054   0.00000  Uiso   1.00
H771   H     0.54052   0.80474   0.04204   0.00000  Uiso   1.00
H772   H     0.95644   0.69791   0.29144   0.00000  Uiso   1.00
H773   H     0.80119   0.95486   0.04319   0.00000  Uiso   1.00
H774   H     0.70173   0.54766   0.29047   0.00000  Uiso   1.00
H775   H     0.69836   0.54374   0.04172   0.00000  Uiso   1.00
H776   H     0.79843   0.95219   0.29198   0.00000  Uiso   1.00
N777   N     0.50000   0.75000   0.28402   0.00000  Uiso   1.00
N778   N     0.50000   0.75000   0.04931   0.00000  Uiso   1.00
N779   N     0.75000   0.50000   0.28402   0.00000  Uiso   1.00
N780   N     0.75000   0.50000   0.04931   0.00000  Uiso   1.00
Cu781  Cu    0.50000   0.75000   0.21355   0.00000  Uiso   1.00
Cu782  Cu    0.50000   0.75000   0.11978   0.00000  Uiso   1.00
Cu783  Cu    0.75000   0.50000   0.21355   0.00000  Uiso   1.00
Cu784  Cu    0.75000   0.50000   0.11978   0.00000  Uiso   1.00
C785   C     0.97737   0.71997   0.02478   0.00000  Uiso   1.00
C786   C     0.52288   0.77985   0.30852   0.00000  Uiso   1.00
C787   C     0.52232   0.78028   0.02436   0.00000  Uiso   1.00
C788   C     0.97623   0.72094   0.30901   0.00000  Uiso   1.00
C789   C     0.77812   0.97496   0.02507   0.00000  Uiso   1.00
C790   C     0.72281   0.52579   0.30840   0.00000  Uiso   1.00
C791   C     0.72186   0.52474   0.02414   0.00000  Uiso   1.00
C792   C     0.77724   0.97405   0.30927   0.00000  Uiso   1.00
C793   C     0.88787   0.64388   0.12639   0.00000  Uiso   1.00
C794   C     0.60003   0.86748   0.20447   0.00000  Uiso   1.00
C795   C     0.61755   0.85109   0.12549   0.00000  Uiso   1.00
C796   C     0.90493   0.62760   0.20709   0.00000  Uiso   1.00
C797   C     0.61223   0.64216   0.20735   0.00000  Uiso   1.00
C798   C     0.89327   0.86326   0.12600   0.00000  Uiso   1.00
C799   C     0.89577   0.86448   0.20975   0.00000  Uiso   1.00
C800   C     0.59438   0.62835   0.12744   0.00000  Uiso   1.00
C801   C     0.64249   0.88855   0.12357   0.00000  Uiso   1.00
C802   C     0.86889   0.60048   0.20864   0.00000  Uiso   1.00
C803   C     0.86156   0.60759   0.12467   0.00000  Uiso   1.00
C804   C     0.63587   0.89408   0.20708   0.00000  Uiso   1.00
C805   C     0.86891   0.90066   0.20844   0.00000  Uiso   1.00
C806   C     0.63229   0.60339   0.12438   0.00000  Uiso   1.00
C807   C     0.63462   0.60318   0.20829   0.00000  Uiso   1.00
C808   C     0.85499   0.88671   0.12749   0.00000  Uiso   1.00
C809   C     0.59298   0.84255   0.16535   0.00000  Uiso   1.00
C810   C     0.91170   0.65291   0.16676   0.00000  Uiso   1.00
C811   C     0.91005   0.84634   0.16754   0.00000  Uiso   1.00
C812   C     0.58879   0.65342   0.16729   0.00000  Uiso   1.00
C813   C     0.84772   0.58853   0.16674   0.00000  Uiso   1.00
C814   C     0.65608   0.90759   0.16579   0.00000  Uiso   1.00
C815   C     0.65139   0.58772   0.16613   0.00000  Uiso   1.00
C816   C     0.84486   0.90931   0.16778   0.00000  Uiso   1.00
O817   O     0.88736   0.67247   0.08938   0.00000  Uiso   1.00
C818   C     0.84863   0.69642   0.09174   0.00000  Uiso   1.00
H819   H     0.84464   0.71173   0.12623   0.00000  Uiso   1.00
H820   H     0.82038   0.67536   0.08558   0.00000  Uiso   1.00
C821   C     0.84801   0.73113   0.05424   0.00000  Uiso   1.00
H822   H     0.85824   0.71696   0.02103   0.00000  Uiso   1.00
H823   H     0.81477   0.74401   0.05073   0.00000  Uiso   1.00
C824   C     0.87781   0.76792   0.06609   0.00000  Uiso   1.00
H825   H     0.86955   0.78084   0.10046   0.00000  Uiso   1.00
H826   H     0.87463   0.79381   0.03968   0.00000  Uiso   1.00
H827   H     0.91144   0.75661   0.06660   0.00000  Uiso   1.00
O828   O     0.57182   0.86626   0.24076   0.00000  Uiso   1.00
C829   C     0.53638   0.89303   0.22915   0.00000  Uiso   1.00
H830   H     0.50719   0.87286   0.22427   0.00000  Uiso   1.00
H831   H     0.53989   0.91264   0.19662   0.00000  Uiso   1.00
C832   C     0.53025   0.92410   0.26827   0.00000  Uiso   1.00
H833   H     0.56195   0.93751   0.27811   0.00000  Uiso   1.00
H834   H     0.51026   0.95132   0.25649   0.00000  Uiso   1.00
C835   C     0.50953   0.90154   0.30926   0.00000  Uiso   1.00
H836   H     0.97913   0.88592   0.29822   0.00000  Uiso   1.00
H837   H     0.50232   0.92566   0.00248   0.00000  Uiso   1.00
H838   H     0.53155   0.87674   0.32402   0.00000  Uiso   1.00
O839   O     0.61990   0.82221   0.08954   0.00000  Uiso   1.00
C840   C     0.64443   0.78619   0.10532   0.00000  Uiso   1.00
H841   H     0.62445   0.76426   0.12697   0.00000  Uiso   1.00
H842   H     0.67302   0.79602   0.12634   0.00000  Uiso   1.00
C843   C     0.66150   0.76085   0.06461   0.00000  Uiso   1.00
H844   H     0.68326   0.78177   0.04423   0.00000  Uiso   1.00
H845   H     0.68066   0.73317   0.07816   0.00000  Uiso   1.00
C846   C     0.62540   0.74423   0.03369   0.00000  Uiso   1.00
H847   H     0.59988   0.72845   0.05458   0.00000  Uiso   1.00
H848   H     0.63862   0.72011   0.00975   0.00000  Uiso   1.00
H849   H     0.61146   0.77120   0.01297   0.00000  Uiso   1.00
O850   O     0.92773   0.63420   0.24790   0.00000  Uiso   1.00
C851   C     0.97055   0.61842   0.24458   0.00000  Uiso   1.00
H852   H     0.99164   0.64243   0.22771   0.00000  Uiso   1.00
H853   H     0.97284   0.58937   0.22295   0.00000  Uiso   1.00
C854   C     0.98817   0.60797   0.29338   0.00000  Uiso   1.00
H855   H     0.96727   0.62226   0.32023   0.00000  Uiso   1.00
H856   H     0.98841   0.57266   0.29881   0.00000  Uiso   1.00
C857   C     0.53404   0.62414   0.30091   0.00000  Uiso   1.00
H858   H     0.55591   0.60973   0.27556   0.00000  Uiso   1.00
H859   H     0.54548   0.61463   0.00258   0.00000  Uiso   1.00
H860   H     0.53574   0.65966   0.29741   0.00000  Uiso   1.00
O861   O     0.61309   0.66787   0.24611   0.00000  Uiso   1.00
C862   C     0.64026   0.70381   0.23735   0.00000  Uiso   1.00
H863   H     0.63481   0.72736   0.26517   0.00000  Uiso   1.00
H864   H     0.63118   0.72171   0.20509   0.00000  Uiso   1.00
C865   C     0.68835   0.69125   0.23753   0.00000  Uiso   1.00
H866   H     0.70659   0.71347   0.26001   0.00000  Uiso   1.00
H867   H     0.69287   0.65830   0.25224   0.00000  Uiso   1.00
C868   C     0.70782   0.69354   0.18908   0.00000  Uiso   1.00
H869   H     0.68961   0.67295   0.16476   0.00000  Uiso   1.00
H870   H     0.74171   0.68217   0.19038   0.00000  Uiso   1.00
H871   H     0.70731   0.72731   0.17585   0.00000  Uiso   1.00
O872   O     0.91277   0.85453   0.08432   0.00000  Uiso   1.00
C873   C     0.92530   0.89353   0.06230   0.00000  Uiso   1.00
H874   H     0.89722   0.91487   0.05487   0.00000  Uiso   1.00
H875   H     0.93808   0.88504   0.02809   0.00000  Uiso   1.00
C876   C     0.96007   0.91866   0.08938   0.00000  Uiso   1.00
H877   H     0.97059   0.94634   0.06785   0.00000  Uiso   1.00
H878   H     0.94633   0.93207   0.12158   0.00000  Uiso   1.00
C879   C     0.99983   0.89179   0.10140   0.00000  Uiso   1.00
H880   H     0.99358   0.87100   0.13189   0.00000  Uiso   1.00
H881   H     0.52694   0.91346   0.11041   0.00000  Uiso   1.00
H882   H     0.50950   0.87156   0.07191   0.00000  Uiso   1.00
O883   O     0.90852   0.84875   0.25269   0.00000  Uiso   1.00
C884   C     0.88480   0.81089   0.26300   0.00000  Uiso   1.00
H885   H     0.90295   0.79242   0.28994   0.00000  Uiso   1.00
H886   H     0.88167   0.78908   0.23276   0.00000  Uiso   1.00
C887   C     0.83974   0.82051   0.28151   0.00000  Uiso   1.00
H888   H     0.84231   0.83457   0.31653   0.00000  Uiso   1.00
H889   H     0.82247   0.84410   0.25897   0.00000  Uiso   1.00
C890   C     0.81362   0.77891   0.28283   0.00000  Uiso   1.00
H891   H     0.79608   0.77483   0.24956   0.00000  Uiso   1.00
H892   H     0.79046   0.77902   0.31158   0.00000  Uiso   1.00
H893   H     0.83494   0.75063   0.28806   0.00000  Uiso   1.00
O894   O     0.56701   0.63181   0.08939   0.00000  Uiso   1.00
C895   C     0.52587   0.61496   0.10084   0.00000  Uiso   1.00
H896   H     0.50173   0.62978   0.07701   0.00000  Uiso   1.00
H897   H     0.51519   0.62363   0.13626   0.00000  Uiso   1.00
C898   C     0.52454   0.56601   0.09479   0.00000  Uiso   1.00
H899   H     0.51720   0.55851   0.05809   0.00000  Uiso   1.00
H900   H     0.55632   0.55178   0.10378   0.00000  Uiso   1.00
C901   C     0.99082   0.54528   0.12601   0.00000  Uiso   1.00
H902   H     0.50002   0.54984   0.16266   0.00000  Uiso   1.00
H903   H     0.98901   0.51020   0.11940   0.00000  Uiso   1.00
H904   H     0.95872   0.56006   0.12024   0.00000  Uiso   1.00
O905   O     0.65403   0.90466   0.08047   0.00000  Uiso   1.00
C906   C     0.63376   0.94520   0.07239   0.00000  Uiso   1.00
H907   H     0.65827   0.96807   0.05904   0.00000  Uiso   1.00
H908   H     0.61989   0.96013   0.10400   0.00000  Uiso   1.00
C909   C     0.59891   0.94188   0.03549   0.00000  Uiso   1.00
H910   H     0.61443   0.93744   0.00137   0.00000  Uiso   1.00
H911   H     0.57824   0.91358   0.04307   0.00000  Uiso   1.00
C912   C     0.57147   0.98284   0.03472   0.00000  Uiso   1.00
H913   H     0.55052   0.98289   0.06565   0.00000  Uiso   1.00
H914   H     0.55065   0.98461   0.00360   0.00000  Uiso   1.00
H915   H     0.59215   0.51202   0.03485   0.00000  Uiso   1.00
O916   O     0.85545   0.58589   0.25172   0.00000  Uiso   1.00
C917   C     0.81772   0.60846   0.26468   0.00000  Uiso   1.00
H918   H     0.79761   0.58606   0.28565   0.00000  Uiso   1.00
H919   H     0.79733   0.61886   0.23453   0.00000  Uiso   1.00
C920   C     0.82752   0.64771   0.29419   0.00000  Uiso   1.00
H921   H     0.83727   0.63705   0.32954   0.00000  Uiso   1.00
H922   H     0.85399   0.66708   0.27889   0.00000  Uiso   1.00
C923   C     0.78717   0.67561   0.29665   0.00000  Uiso   1.00
H924   H     0.78359   0.69469   0.26415   0.00000  Uiso   1.00
H925   H     0.78853   0.69750   0.32645   0.00000  Uiso   1.00
H926   H     0.75831   0.65512   0.30044   0.00000  Uiso   1.00
O927   O     0.84417   0.59674   0.08205   0.00000  Uiso   1.00
C928   C     0.86211   0.55737   0.06706   0.00000  Uiso   1.00
H929   H     0.83752   0.54104   0.04549   0.00000  Uiso   1.00
H930   H     0.86986   0.53464   0.09625   0.00000  Uiso   1.00
C931   C     0.90191   0.56452   0.03718   0.00000  Uiso   1.00
H932   H     0.89255   0.57940   0.00348   0.00000  Uiso   1.00
H933   H     0.92478   0.58651   0.05464   0.00000  Uiso   1.00
C934   C     0.92368   0.52126   0.02900   0.00000  Uiso   1.00
H935   H     0.93119   0.50569   0.06269   0.00000  Uiso   1.00
H936   H     0.95411   0.52536   0.00990   0.00000  Uiso   1.00
H937   H     0.90187   0.99980   0.00942   0.00000  Uiso   1.00
O938   O     0.64909   0.90774   0.25019   0.00000  Uiso   1.00
C939   C     0.68366   0.88111   0.26514   0.00000  Uiso   1.00
H940   H     0.70090   0.89828   0.29308   0.00000  Uiso   1.00
H941   H     0.70799   0.87645   0.23734   0.00000  Uiso   1.00
C942   C     0.66813   0.83722   0.28415   0.00000  Uiso   1.00
H943   H     0.65435   0.84127   0.31920   0.00000  Uiso   1.00
H944   H     0.64288   0.82282   0.26217   0.00000  Uiso   1.00
C945   C     0.70508   0.80514   0.28569   0.00000  Uiso   1.00
H946   H     0.71673   0.79882   0.25014   0.00000  Uiso   1.00
H947   H     0.69416   0.77432   0.30116   0.00000  Uiso   1.00
H948   H     0.73168   0.81823   0.30666   0.00000  Uiso   1.00
O949   O     0.86285   0.92311   0.24901   0.00000  Uiso   1.00
C950   C     0.87871   0.96568   0.24379   0.00000  Uiso   1.00
H951   H     0.86464   0.98563   0.27150   0.00000  Uiso   1.00
H952   H     0.86912   0.98145   0.21053   0.00000  Uiso   1.00
C953   C     0.92742   0.96707   0.24818   0.00000  Uiso   1.00
H954   H     0.93708   0.95679   0.28367   0.00000  Uiso   1.00
H955   H     0.94220   0.94510   0.22268   0.00000  Uiso   1.00
C956   C     0.94302   0.51257   0.23835   0.00000  Uiso   1.00
H957   H     0.93447   0.52229   0.20234   0.00000  Uiso   1.00
H958   H     0.97835   0.51448   0.24252   0.00000  Uiso   1.00
H959   H     0.92771   0.53533   0.26254   0.00000  Uiso   1.00
O960   O     0.65051   0.59454   0.08171   0.00000  Uiso   1.00
C961   C     0.65321   0.63272   0.05394   0.00000  Uiso   1.00
H962   H     0.64815   0.66308   0.07339   0.00000  Uiso   1.00
H963   H     0.62841   0.63123   0.02612   0.00000  Uiso   1.00
C964   C     0.69719   0.63708   0.03134   0.00000  Uiso   1.00
H965   H     0.70264   0.61015   0.00741   0.00000  Uiso   1.00
H966   H     0.69724   0.66722   0.01020   0.00000  Uiso   1.00
C967   C     0.73367   0.63958   0.06689   0.00000  Uiso   1.00
H968   H     0.73198   0.67038   0.08592   0.00000  Uiso   1.00
H969   H     0.76500   0.63766   0.04901   0.00000  Uiso   1.00
H970   H     0.73237   0.61247   0.09197   0.00000  Uiso   1.00
O971   O     0.64125   0.58355   0.25096   0.00000  Uiso   1.00
C972   C     0.62159   0.54201   0.25468   0.00000  Uiso   1.00
H973   H     0.61655   0.53603   0.29219   0.00000  Uiso   1.00
H974   H     0.64459   0.51643   0.24495   0.00000  Uiso   1.00
C975   C     0.57739   0.53515   0.23028   0.00000  Uiso   1.00
H976   H     0.55402   0.52325   0.25638   0.00000  Uiso   1.00
H977   H     0.56345   0.56506   0.21516   0.00000  Uiso   1.00
C978   C     0.58054   0.50148   0.19234   0.00000  Uiso   1.00
H979   H     0.60040   0.51371   0.16330   0.00000  Uiso   1.00
H980   H     0.54806   0.99332   0.17916   0.00000  Uiso   1.00
H981   H     0.59521   0.97154   0.20635   0.00000  Uiso   1.00
O982   O     0.82527   0.88137   0.09234   0.00000  Uiso   1.00
C983   C     0.79442   0.85120   0.10869   0.00000  Uiso   1.00
H984   H     0.77377   0.86570   0.13578   0.00000  Uiso   1.00
H985   H     0.80987   0.82173   0.12383   0.00000  Uiso   1.00
C986   C     0.76545   0.83668   0.06945   0.00000  Uiso   1.00
H987   H     0.78475   0.81876   0.04398   0.00000  Uiso   1.00
H988   H     0.74102   0.81439   0.08406   0.00000  Uiso   1.00
C989   C     0.74306   0.87464   0.04566   0.00000  Uiso   1.00
H990   H     0.73787   0.90151   0.06987   0.00000  Uiso   1.00
H991   H     0.71122   0.86428   0.03286   0.00000  Uiso   1.00
H992   H     0.76267   0.88619   0.01605   0.00000  Uiso   1.00
O993   O     0.04508   0.20491   0.53958   0.00000  Uiso   1.00
O994   O     0.45491   0.29509   0.46042   0.00000  Uiso   1.00
O995   O     0.45491   0.29509   0.53958   0.00000  Uiso   1.00
O996   O     0.04508   0.20491   0.46042   0.00000  Uiso   1.00
O997   O     0.45491   0.20491   0.46042   0.00000  Uiso   1.00
O998   O     0.04508   0.29509   0.53958   0.00000  Uiso   1.00
O999   O     0.04508   0.29509   0.46042   0.00000  Uiso   1.00
O1000  O     0.45491   0.20491   0.53958   0.00000  Uiso   1.00
O1001  O     0.29508   0.45491   0.53958   0.00000  Uiso   1.00
O1002  O     0.20491   0.04509   0.46042   0.00000  Uiso   1.00
O1003  O     0.20491   0.04509   0.53958   0.00000  Uiso   1.00
O1004  O     0.29508   0.45491   0.46042   0.00000  Uiso   1.00
O1005  O     0.20491   0.45491   0.46042   0.00000  Uiso   1.00
O1006  O     0.29508   0.04509   0.53958   0.00000  Uiso   1.00
O1007  O     0.29508   0.04509   0.46042   0.00000  Uiso   1.00
O1008  O     0.20491   0.45491   0.53958   0.00000  Uiso   1.00
C1009  C     0.05854   0.18988   0.50026   0.00000  Uiso   1.00
C1010  C     0.44160   0.31054   0.50005   0.00000  Uiso   1.00
C1011  C     0.44175   0.18955   0.50010   0.00000  Uiso   1.00
C1012  C     0.05964   0.30903   0.49969   0.00000  Uiso   1.00
C1013  C     0.30945   0.44075   0.50033   0.00000  Uiso   1.00
C1014  C     0.18879   0.05778   0.49973   0.00000  Uiso   1.00
C1015  C     0.19025   0.44078   0.49990   0.00000  Uiso   1.00
C1016  C     0.31094   0.05799   0.50003   0.00000  Uiso   1.00
H1017  H     0.45927   0.19535   0.37605   0.00000  Uiso   1.00
H1018  H     0.04173   0.30376   0.62387   0.00000  Uiso   1.00
H1019  H     0.04052   0.30474   0.37538   0.00000  Uiso   1.00
H1020  H     0.45644   0.19791   0.62477   0.00000  Uiso   1.00
H1021  H     0.30119   0.45486   0.37652   0.00000  Uiso   1.00
H1022  H     0.20173   0.04766   0.62380   0.00000  Uiso   1.00
H1023  H     0.19836   0.04374   0.37505   0.00000  Uiso   1.00
H1024  H     0.29843   0.45219   0.62531   0.00000  Uiso   1.00
N1025  N    -0.00000   0.25000   0.61736   0.00000  Uiso   1.00
N1026  N     0.00000   0.25000   0.38264   0.00000  Uiso   1.00
N1027  N     0.25000   0.00000   0.61736   0.00000  Uiso   1.00
N1028  N     0.25000  -0.00000   0.38264   0.00000  Uiso   1.00
Cu1029 Cu    0.00000   0.25000   0.54689   0.00000  Uiso   1.00
Cu1030 Cu    0.00000   0.25000   0.45311   0.00000  Uiso   1.00
Cu1031 Cu    0.25000   0.00000   0.54689   0.00000  Uiso   1.00
Cu1032 Cu    0.25000   0.00000   0.45311   0.00000  Uiso   1.00
C1033  C     0.47737   0.21997   0.35812   0.00000  Uiso   1.00
C1034  C     0.02288   0.27985   0.64186   0.00000  Uiso   1.00
C1035  C     0.02232   0.28028   0.35770   0.00000  Uiso   1.00
C1036  C     0.47623   0.22094   0.64235   0.00000  Uiso   1.00
C1037  C     0.27812   0.47496   0.35840   0.00000  Uiso   1.00
C1038  C     0.22281   0.02579   0.64173   0.00000  Uiso   1.00
C1039  C     0.22186   0.02474   0.35747   0.00000  Uiso   1.00
C1040  C     0.27724   0.47405   0.64261   0.00000  Uiso   1.00
C1041  C     0.38787   0.14388   0.45973   0.00000  Uiso   1.00
C1042  C     0.10003   0.36748   0.53780   0.00000  Uiso   1.00
C1043  C     0.11755   0.35109   0.45882   0.00000  Uiso   1.00
C1044  C     0.40493   0.12760   0.54042   0.00000  Uiso   1.00
C1045  C     0.11223   0.14216   0.54069   0.00000  Uiso   1.00
C1046  C     0.39327   0.36326   0.45933   0.00000  Uiso   1.00
C1047  C     0.39577   0.36448   0.54308   0.00000  Uiso   1.00
C1048  C     0.09438   0.12835   0.46078   0.00000  Uiso   1.00
C1049  C     0.14249   0.38855   0.45690   0.00000  Uiso   1.00
C1050  C     0.36889   0.10048   0.54198   0.00000  Uiso   1.00
C1051  C     0.36156   0.10759   0.45801   0.00000  Uiso   1.00
C1052  C     0.13587   0.39408   0.54041   0.00000  Uiso   1.00
C1053  C     0.36891   0.40066   0.54177   0.00000  Uiso   1.00
C1054  C     0.13229   0.10339   0.45772   0.00000  Uiso   1.00
C1055  C     0.13462   0.10318   0.54162   0.00000  Uiso   1.00
C1056  C     0.35499   0.38671   0.46082   0.00000  Uiso   1.00
C1057  C     0.09298   0.34255   0.49869   0.00000  Uiso   1.00
C1058  C     0.41170   0.15291   0.50009   0.00000  Uiso   1.00
C1059  C     0.41005   0.34634   0.50088   0.00000  Uiso   1.00
C1060  C     0.08879   0.15342   0.50062   0.00000  Uiso   1.00
C1061  C     0.34772   0.08853   0.50008   0.00000  Uiso   1.00
C1062  C     0.15608   0.40759   0.49912   0.00000  Uiso   1.00
C1063  C     0.15139   0.08772   0.49946   0.00000  Uiso   1.00
C1064  C     0.34486   0.40931   0.50111   0.00000  Uiso   1.00
O1065  O     0.38736   0.17247   0.42272   0.00000  Uiso   1.00
C1066  C     0.34863   0.19642   0.42507   0.00000  Uiso   1.00
H1067  H     0.34464   0.21173   0.45957   0.00000  Uiso   1.00
H1068  H     0.32038   0.17536   0.41891   0.00000  Uiso   1.00
C1069  C     0.34801   0.23113   0.38757   0.00000  Uiso   1.00
H1070  H     0.35824   0.21696   0.35436   0.00000  Uiso   1.00
H1071  H     0.31477   0.24401   0.38407   0.00000  Uiso   1.00
C1072  C     0.37781   0.26792   0.39942   0.00000  Uiso   1.00
H1073  H     0.36955   0.28084   0.43380   0.00000  Uiso   1.00
H1074  H     0.37463   0.29381   0.37302   0.00000  Uiso   1.00
H1075  H     0.41144   0.25661   0.39994   0.00000  Uiso   1.00
O1076  O     0.07182   0.36626   0.57409   0.00000  Uiso   1.00
C1077  C     0.03638   0.39303   0.56249   0.00000  Uiso   1.00
H1078  H     0.00719   0.37286   0.55761   0.00000  Uiso   1.00
H1079  H     0.03989   0.41264   0.52996   0.00000  Uiso   1.00
C1080  C     0.03025   0.42410   0.60161   0.00000  Uiso   1.00
H1081  H     0.06195   0.43751   0.61144   0.00000  Uiso   1.00
H1082  H     0.01026   0.45132   0.58983   0.00000  Uiso   1.00
C1083  C     0.00953   0.40154   0.64259   0.00000  Uiso   1.00
H1084  H     0.47913   0.38592   0.63155   0.00000  Uiso   1.00
H1085  H     0.00232   0.42566   0.33581   0.00000  Uiso   1.00
H1086  H     0.03155   0.37674   0.65735   0.00000  Uiso   1.00
O1087  O     0.11990   0.32221   0.42287   0.00000  Uiso   1.00
C1088  C     0.14443   0.28619   0.43865   0.00000  Uiso   1.00
H1089  H     0.12445   0.26426   0.46030   0.00000  Uiso   1.00
H1090  H     0.17302   0.29602   0.45967   0.00000  Uiso   1.00
C1091  C     0.16150   0.26085   0.39794   0.00000  Uiso   1.00
H1092  H     0.18326   0.28177   0.37756   0.00000  Uiso   1.00
H1093  H     0.18066   0.23317   0.41150   0.00000  Uiso   1.00
C1094  C     0.12540   0.24423   0.36702   0.00000  Uiso   1.00
H1095  H     0.09988   0.22845   0.38792   0.00000  Uiso   1.00
H1096  H     0.13862   0.22011   0.34308   0.00000  Uiso   1.00
H1097  H     0.11146   0.27120   0.34630   0.00000  Uiso   1.00
O1098  O     0.42773   0.13420   0.58124   0.00000  Uiso   1.00
C1099  C     0.47055   0.11842   0.57791   0.00000  Uiso   1.00
H1100  H     0.49164   0.14243   0.56105   0.00000  Uiso   1.00
H1101  H     0.47284   0.08937   0.55628   0.00000  Uiso   1.00
C1102  C     0.48817   0.10797   0.62671   0.00000  Uiso   1.00
H1103  H     0.46727   0.12226   0.65357   0.00000  Uiso   1.00
H1104  H     0.48841   0.07266   0.63214   0.00000  Uiso   1.00
C1105  C     0.03404   0.12414   0.63424   0.00000  Uiso   1.00
H1106  H     0.05591   0.10973   0.60889   0.00000  Uiso   1.00
H1107  H     0.04548   0.11463   0.33592   0.00000  Uiso   1.00
H1108  H     0.03574   0.15966   0.63074   0.00000  Uiso   1.00
O1109  O     0.11309   0.16787   0.57944   0.00000  Uiso   1.00
C1110  C     0.14026   0.20381   0.57068   0.00000  Uiso   1.00
H1111  H     0.13481   0.22736   0.59850   0.00000  Uiso   1.00
H1112  H     0.13118   0.22171   0.53842   0.00000  Uiso   1.00
C1113  C     0.18835   0.19125   0.57086   0.00000  Uiso   1.00
H1114  H     0.20659   0.21347   0.59334   0.00000  Uiso   1.00
H1115  H     0.19287   0.15830   0.58558   0.00000  Uiso   1.00
C1116  C     0.20782   0.19354   0.52242   0.00000  Uiso   1.00
H1117  H     0.18961   0.17295   0.49809   0.00000  Uiso   1.00
H1118  H     0.24171   0.18217   0.52371   0.00000  Uiso   1.00
H1119  H     0.20731   0.22731   0.50918   0.00000  Uiso   1.00
O1120  O     0.41277   0.35453   0.41766   0.00000  Uiso   1.00
C1121  C     0.42530   0.39353   0.39563   0.00000  Uiso   1.00
H1122  H     0.39722   0.41487   0.38821   0.00000  Uiso   1.00
H1123  H     0.43808   0.38504   0.36143   0.00000  Uiso   1.00
C1124  C     0.46007   0.41866   0.42271   0.00000  Uiso   1.00
H1125  H     0.47059   0.44634   0.40118   0.00000  Uiso   1.00
H1126  H     0.44633   0.43207   0.45492   0.00000  Uiso   1.00
C1127  C     0.49983   0.39179   0.43473   0.00000  Uiso   1.00
H1128  H     0.49358   0.37100   0.46522   0.00000  Uiso   1.00
H1129  H     0.02694   0.41346   0.44374   0.00000  Uiso   1.00
H1130  H     0.00950   0.37156   0.40524   0.00000  Uiso   1.00
O1131  O     0.40852   0.34875   0.58602   0.00000  Uiso   1.00
C1132  C     0.38480   0.31089   0.59634   0.00000  Uiso   1.00
H1133  H     0.40295   0.29242   0.62327   0.00000  Uiso   1.00
H1134  H     0.38167   0.28908   0.56610   0.00000  Uiso   1.00
C1135  C     0.33974   0.32051   0.61484   0.00000  Uiso   1.00
H1136  H     0.34231   0.33457   0.64986   0.00000  Uiso   1.00
H1137  H     0.32247   0.34410   0.59231   0.00000  Uiso   1.00
C1138  C     0.31362   0.27891   0.61616   0.00000  Uiso   1.00
H1139  H     0.29608   0.27483   0.58290   0.00000  Uiso   1.00
H1140  H     0.29046   0.27902   0.64491   0.00000  Uiso   1.00
H1141  H     0.33494   0.25063   0.62139   0.00000  Uiso   1.00
O1142  O     0.06701   0.13181   0.42273   0.00000  Uiso   1.00
C1143  C     0.02587   0.11496   0.43417   0.00000  Uiso   1.00
H1144  H     0.00173   0.12978   0.41034   0.00000  Uiso   1.00
H1145  H     0.01519   0.12363   0.46959   0.00000  Uiso   1.00
C1146  C     0.02454   0.06601   0.42812   0.00000  Uiso   1.00
H1147  H     0.01720   0.05851   0.39143   0.00000  Uiso   1.00
H1148  H     0.05632   0.05178   0.43711   0.00000  Uiso   1.00
C1149  C     0.49082   0.04528   0.45934   0.00000  Uiso   1.00
H1150  H     0.00002   0.04984   0.49599   0.00000  Uiso   1.00
H1151  H     0.48901   0.01020   0.45273   0.00000  Uiso   1.00
H1152  H     0.45872   0.06006   0.45357   0.00000  Uiso   1.00
O1153  O     0.15403   0.40466   0.41380   0.00000  Uiso   1.00
C1154  C     0.13376   0.44520   0.40573   0.00000  Uiso   1.00
H1155  H     0.15827   0.46807   0.39237   0.00000  Uiso   1.00
H1156  H     0.11989   0.46013   0.43734   0.00000  Uiso   1.00
C1157  C     0.09891   0.44188   0.36882   0.00000  Uiso   1.00
H1158  H     0.11443   0.43744   0.33470   0.00000  Uiso   1.00
H1159  H     0.07824   0.41358   0.37640   0.00000  Uiso   1.00
C1160  C     0.07147   0.48284   0.36805   0.00000  Uiso   1.00
H1161  H     0.05052   0.48289   0.39898   0.00000  Uiso   1.00
H1162  H     0.05065   0.48461   0.33693   0.00000  Uiso   1.00
H1163  H     0.09215   0.01202   0.36819   0.00000  Uiso   1.00
O1164  O     0.35545   0.08589   0.58505   0.00000  Uiso   1.00
C1165  C     0.31772   0.10846   0.59801   0.00000  Uiso   1.00
H1166  H     0.29761   0.08606   0.61898   0.00000  Uiso   1.00
H1167  H     0.29733   0.11886   0.56786   0.00000  Uiso   1.00
C1168  C     0.32752   0.14771   0.62752   0.00000  Uiso   1.00
H1169  H     0.33727   0.13705   0.66288   0.00000  Uiso   1.00
H1170  H     0.35399   0.16708   0.61222   0.00000  Uiso   1.00
C1171  C     0.28717   0.17561   0.62999   0.00000  Uiso   1.00
H1172  H     0.28359   0.19469   0.59749   0.00000  Uiso   1.00
H1173  H     0.28853   0.19750   0.65979   0.00000  Uiso   1.00
H1174  H     0.25831   0.15512   0.63377   0.00000  Uiso   1.00
O1175  O     0.34417   0.09674   0.41538   0.00000  Uiso   1.00
C1176  C     0.36211   0.05737   0.40039   0.00000  Uiso   1.00
H1177  H     0.33752   0.04104   0.37882   0.00000  Uiso   1.00
H1178  H     0.36986   0.03464   0.42958   0.00000  Uiso   1.00
C1179  C     0.40191   0.06452   0.37052   0.00000  Uiso   1.00
H1180  H     0.39255   0.07940   0.33681   0.00000  Uiso   1.00
H1181  H     0.42478   0.08651   0.38798   0.00000  Uiso   1.00
C1182  C     0.42368   0.02126   0.36234   0.00000  Uiso   1.00
H1183  H     0.43119   0.00569   0.39602   0.00000  Uiso   1.00
H1184  H     0.45411   0.02536   0.34323   0.00000  Uiso   1.00
H1185  H     0.40187   0.49980   0.34276   0.00000  Uiso   1.00
O1186  O     0.14909   0.40774   0.58352   0.00000  Uiso   1.00
C1187  C     0.18366   0.38111   0.59847   0.00000  Uiso   1.00
H1188  H     0.20090   0.39828   0.62641   0.00000  Uiso   1.00
H1189  H     0.20799   0.37645   0.57068   0.00000  Uiso   1.00
C1190  C     0.16813   0.33722   0.61748   0.00000  Uiso   1.00
H1191  H     0.15435   0.34127   0.65253   0.00000  Uiso   1.00
H1192  H     0.14288   0.32282   0.59550   0.00000  Uiso   1.00
C1193  C     0.20508   0.30514   0.61902   0.00000  Uiso   1.00
H1194  H     0.21673   0.29882   0.58347   0.00000  Uiso   1.00
H1195  H     0.19416   0.27432   0.63449   0.00000  Uiso   1.00
H1196  H     0.23168   0.31823   0.63999   0.00000  Uiso   1.00
O1197  O     0.36285   0.42311   0.58235   0.00000  Uiso   1.00
C1198  C     0.37871   0.46568   0.57713   0.00000  Uiso   1.00
H1199  H     0.36464   0.48563   0.60483   0.00000  Uiso   1.00
H1200  H     0.36912   0.48145   0.54387   0.00000  Uiso   1.00
C1201  C     0.42742   0.46707   0.58151   0.00000  Uiso   1.00
H1202  H     0.43708   0.45679   0.61701   0.00000  Uiso   1.00
H1203  H     0.44220   0.44510   0.55601   0.00000  Uiso   1.00
C1204  C     0.44302   0.01257   0.57168   0.00000  Uiso   1.00
H1205  H     0.43447   0.02229   0.53567   0.00000  Uiso   1.00
H1206  H     0.47835   0.01448   0.57585   0.00000  Uiso   1.00
H1207  H     0.42771   0.03533   0.59587   0.00000  Uiso   1.00
O1208  O     0.15051   0.09454   0.41505   0.00000  Uiso   1.00
C1209  C     0.15321   0.13272   0.38727   0.00000  Uiso   1.00
H1210  H     0.14815   0.16308   0.40672   0.00000  Uiso   1.00
H1211  H     0.12841   0.13123   0.35945   0.00000  Uiso   1.00
C1212  C     0.19719   0.13708   0.36467   0.00000  Uiso   1.00
H1213  H     0.20264   0.11015   0.34074   0.00000  Uiso   1.00
H1214  H     0.19724   0.16722   0.34354   0.00000  Uiso   1.00
C1215  C     0.23367   0.13958   0.40022   0.00000  Uiso   1.00
H1216  H     0.23198   0.17038   0.41925   0.00000  Uiso   1.00
H1217  H     0.26500   0.13766   0.38234   0.00000  Uiso   1.00
H1218  H     0.23237   0.11247   0.42531   0.00000  Uiso   1.00
O1219  O     0.14125   0.08355   0.58429   0.00000  Uiso   1.00
C1220  C     0.12159   0.04201   0.58801   0.00000  Uiso   1.00
H1221  H     0.11655   0.03603   0.62552   0.00000  Uiso   1.00
H1222  H     0.14459   0.01643   0.57829   0.00000  Uiso   1.00
C1223  C     0.07739   0.03515   0.56361   0.00000  Uiso   1.00
H1224  H     0.05402   0.02325   0.58972   0.00000  Uiso   1.00
H1225  H     0.06345   0.06506   0.54849   0.00000  Uiso   1.00
C1226  C     0.08054   0.00148   0.52567   0.00000  Uiso   1.00
H1227  H     0.10040   0.01371   0.49663   0.00000  Uiso   1.00
H1228  H     0.04806   0.49332   0.51249   0.00000  Uiso   1.00
H1229  H     0.09521   0.47154   0.53969   0.00000  Uiso   1.00
O1230  O     0.32527   0.38137   0.42567   0.00000  Uiso   1.00
C1231  C     0.29442   0.35120   0.44203   0.00000  Uiso   1.00
H1232  H     0.27377   0.36570   0.46911   0.00000  Uiso   1.00
H1233  H     0.30987   0.32173   0.45716   0.00000  Uiso   1.00
C1234  C     0.26545   0.33668   0.40278   0.00000  Uiso   1.00
H1235  H     0.28475   0.31876   0.37731   0.00000  Uiso   1.00
H1236  H     0.24102   0.31439   0.41739   0.00000  Uiso   1.00
C1237  C     0.24306   0.37464   0.37899   0.00000  Uiso   1.00
H1238  H     0.23787   0.40151   0.40320   0.00000  Uiso   1.00
H1239  H     0.21122   0.36428   0.36619   0.00000  Uiso   1.00
H1240  H     0.26267   0.38619   0.34938   0.00000  Uiso   1.00
O1241  O     0.54508   0.20491   0.53958   0.00000  Uiso   1.00
O1242  O     0.95491   0.29509   0.46042   0.00000  Uiso   1.00
O1243  O     0.95491   0.29509   0.53958   0.00000  Uiso   1.00
O1244  O     0.54508   0.20491   0.46042   0.00000  Uiso   1.00
O1245  O     0.95491   0.20491   0.46042   0.00000  Uiso   1.00
O1246  O     0.54508   0.29509   0.53958   0.00000  Uiso   1.00
O1247  O     0.54508   0.29509   0.46042   0.00000  Uiso   1.00
O1248  O     0.95491   0.20491   0.53958   0.00000  Uiso   1.00
O1249  O     0.79508   0.45491   0.53958   0.00000  Uiso   1.00
O1250  O     0.70491   0.04509   0.46042   0.00000  Uiso   1.00
O1251  O     0.70491   0.04509   0.53958   0.00000  Uiso   1.00
O1252  O     0.79508   0.45491   0.46042   0.00000  Uiso   1.00
O1253  O     0.70491   0.45491   0.46042   0.00000  Uiso   1.00
O1254  O     0.79508   0.04509   0.53958   0.00000  Uiso   1.00
O1255  O     0.79508   0.04509   0.46042   0.00000  Uiso   1.00
O1256  O     0.70491   0.45491   0.53958   0.00000  Uiso   1.00
C1257  C     0.55854   0.18988   0.50026   0.00000  Uiso   1.00
C1258  C     0.94160   0.31054   0.50005   0.00000  Uiso   1.00
C1259  C     0.94175   0.18955   0.50010   0.00000  Uiso   1.00
C1260  C     0.55964   0.30903   0.49969   0.00000  Uiso   1.00
C1261  C     0.80945   0.44075   0.50033   0.00000  Uiso   1.00
C1262  C     0.68879   0.05778   0.49973   0.00000  Uiso   1.00
C1263  C     0.69025   0.44078   0.49990   0.00000  Uiso   1.00
C1264  C     0.81094   0.05799   0.50003   0.00000  Uiso   1.00
H1265  H     0.95927   0.19535   0.37605   0.00000  Uiso   1.00
H1266  H     0.54173   0.30376   0.62387   0.00000  Uiso   1.00
H1267  H     0.54052   0.30474   0.37538   0.00000  Uiso   1.00
H1268  H     0.95644   0.19791   0.62477   0.00000  Uiso   1.00
H1269  H     0.80119   0.45486   0.37652   0.00000  Uiso   1.00
H1270  H     0.70173   0.04766   0.62380   0.00000  Uiso   1.00
H1271  H     0.69836   0.04374   0.37505   0.00000  Uiso   1.00
H1272  H     0.79843   0.45219   0.62531   0.00000  Uiso   1.00
N1273  N     0.50000   0.25000   0.61736   0.00000  Uiso   1.00
N1274  N     0.50000   0.25000   0.38264   0.00000  Uiso   1.00
N1275  N     0.75000   0.00000   0.61736   0.00000  Uiso   1.00
N1276  N     0.75000  -0.00000   0.38264   0.00000  Uiso   1.00
Cu1277 Cu    0.50000   0.25000   0.54689   0.00000  Uiso   1.00
Cu1278 Cu    0.50000   0.25000   0.45311   0.00000  Uiso   1.00
Cu1279 Cu    0.75000   0.00000   0.54689   0.00000  Uiso   1.00
Cu1280 Cu    0.75000   0.00000   0.45311   0.00000  Uiso   1.00
C1281  C     0.97737   0.21997   0.35812   0.00000  Uiso   1.00
C1282  C     0.52288   0.27985   0.64186   0.00000  Uiso   1.00
C1283  C     0.52232   0.28028   0.35770   0.00000  Uiso   1.00
C1284  C     0.97623   0.22094   0.64235   0.00000  Uiso   1.00
C1285  C     0.77812   0.47496   0.35840   0.00000  Uiso   1.00
C1286  C     0.72281   0.02579   0.64173   0.00000  Uiso   1.00
C1287  C     0.72186   0.02474   0.35747   0.00000  Uiso   1.00
C1288  C     0.77724   0.47405   0.64261   0.00000  Uiso   1.00
C1289  C     0.88787   0.14388   0.45973   0.00000  Uiso   1.00
C1290  C     0.60003   0.36748   0.53780   0.00000  Uiso   1.00
C1291  C     0.61755   0.35109   0.45882   0.00000  Uiso   1.00
C1292  C     0.90493   0.12760   0.54042   0.00000  Uiso   1.00
C1293  C     0.61223   0.14216   0.54069   0.00000  Uiso   1.00
C1294  C     0.89327   0.36326   0.45933   0.00000  Uiso   1.00
C1295  C     0.89577   0.36448   0.54308   0.00000  Uiso   1.00
C1296  C     0.59438   0.12835   0.46078   0.00000  Uiso   1.00
C1297  C     0.64249   0.38855   0.45690   0.00000  Uiso   1.00
C1298  C     0.86889   0.10048   0.54198   0.00000  Uiso   1.00
C1299  C     0.86156   0.10759   0.45801   0.00000  Uiso   1.00
C1300  C     0.63587   0.39408   0.54041   0.00000  Uiso   1.00
C1301  C     0.86891   0.40066   0.54177   0.00000  Uiso   1.00
C1302  C     0.63229   0.10339   0.45772   0.00000  Uiso   1.00
C1303  C     0.63462   0.10318   0.54162   0.00000  Uiso   1.00
C1304  C     0.85499   0.38671   0.46082   0.00000  Uiso   1.00
C1305  C     0.59298   0.34255   0.49869   0.00000  Uiso   1.00
C1306  C     0.91170   0.15291   0.50009   0.00000  Uiso   1.00
C1307  C     0.91005   0.34634   0.50088   0.00000  Uiso   1.00
C1308  C     0.58879   0.15342   0.50062   0.00000  Uiso   1.00
C1309  C     0.84772   0.08853   0.50008   0.00000  Uiso   1.00
C1310  C     0.65608   0.40759   0.49912   0.00000  Uiso   1.00
C1311  C     0.65139   0.08772   0.49946   0.00000  Uiso   1.00
C1312  C     0.84486   0.40931   0.50111   0.00000  Uiso   1.00
O1313  O     0.88736   0.17247   0.42272   0.00000  Uiso   1.00
C1314  C     0.84863   0.19642   0.42507   0.00000  Uiso   1.00
H1315  H     0.84464   0.21173   0.45957   0.00000  Uiso   1.00
H1316  H     0.82038   0.17536   0.41891   0.00000  Uiso   1.00
C1317  C     0.84801   0.23113   0.38757   0.00000  Uiso   1.00
H1318  H     0.85824   0.21696   0.35436   0.00000  Uiso   1.00
H1319  H     0.81477   0.24401   0.38407   0.00000  Uiso   1.00
C1320  C     0.87781   0.26792   0.39942   0.00000  Uiso   1.00
H1321  H     0.86955   0.28084   0.43380   0.00000  Uiso   1.00
H1322  H     0.87463   0.29381   0.37302   0.00000  Uiso   1.00
H1323  H     0.91144   0.25661   0.39994   0.00000  Uiso   1.00
O1324  O     0.57182   0.36626   0.57409   0.00000  Uiso   1.00
C1325  C     0.53638   0.39303   0.56249   0.00000  Uiso   1.00
H1326  H     0.50719   0.37286   0.55761   0.00000  Uiso   1.00
H1327  H     0.53989   0.41264   0.52996   0.00000  Uiso   1.00
C1328  C     0.53025   0.42410   0.60161   0.00000  Uiso   1.00
H1329  H     0.56195   0.43751   0.61144   0.00000  Uiso   1.00
H1330  H     0.51026   0.45132   0.58983   0.00000  Uiso   1.00
C1331  C     0.50953   0.40154   0.64259   0.00000  Uiso   1.00
H1332  H     0.97913   0.38592   0.63155   0.00000  Uiso   1.00
H1333  H     0.50232   0.42566   0.33581   0.00000  Uiso   1.00
H1334  H     0.53155   0.37674   0.65735   0.00000  Uiso   1.00
O1335  O     0.61990   0.32221   0.42287   0.00000  Uiso   1.00
C1336  C     0.64443   0.28619   0.43865   0.00000  Uiso   1.00
H1337  H     0.62445   0.26426   0.46030   0.00000  Uiso   1.00
H1338  H     0.67302   0.29602   0.45967   0.00000  Uiso   1.00
C1339  C     0.66150   0.26085   0.39794   0.00000  Uiso   1.00
H1340  H     0.68326   0.28177   0.37756   0.00000  Uiso   1.00
H1341  H     0.68066   0.23317   0.41150   0.00000  Uiso   1.00
C1342  C     0.62540   0.24423   0.36702   0.00000  Uiso   1.00
H1343  H     0.59988   0.22845   0.38792   0.00000  Uiso   1.00
H1344  H     0.63862   0.22011   0.34308   0.00000  Uiso   1.00
H1345  H     0.61146   0.27120   0.34630   0.00000  Uiso   1.00
O1346  O     0.92773   0.13420   0.58124   0.00000  Uiso   1.00
C1347  C     0.97055   0.11842   0.57791   0.00000  Uiso   1.00
H1348  H     0.99164   0.14243   0.56105   0.00000  Uiso   1.00
H1349  H     0.97284   0.08937   0.55628   0.00000  Uiso   1.00
C1350  C     0.98817   0.10797   0.62671   0.00000  Uiso   1.00
H1351  H     0.96727   0.12226   0.65357   0.00000  Uiso   1.00
H1352  H     0.98841   0.07266   0.63214   0.00000  Uiso   1.00
C1353  C     0.53404   0.12414   0.63424   0.00000  Uiso   1.00
H1354  H     0.55591   0.10973   0.60889   0.00000  Uiso   1.00
H1355  H     0.54548   0.11463   0.33592   0.00000  Uiso   1.00
H1356  H     0.53574   0.15966   0.63074   0.00000  Uiso   1.00
O1357  O     0.61309   0.16787   0.57944   0.00000  Uiso   1.00
C1358  C     0.64026   0.20381   0.57068   0.00000  Uiso   1.00
H1359  H     0.63481   0.22736   0.59850   0.00000  Uiso   1.00
H1360  H     0.63118   0.22171   0.53842   0.00000  Uiso   1.00
C1361  C     0.68835   0.19125   0.57086   0.00000  Uiso   1.00
H1362  H     0.70659   0.21347   0.59334   0.00000  Uiso   1.00
H1363  H     0.69287   0.15830   0.58558   0.00000  Uiso   1.00
C1364  C     0.70782   0.19354   0.52242   0.00000  Uiso   1.00
H1365  H     0.68961   0.17295   0.49809   0.00000  Uiso   1.00
H1366  H     0.74171   0.18217   0.52371   0.00000  Uiso   1.00
H1367  H     0.70731   0.22731   0.50918   0.00000  Uiso   1.00
O1368  O     0.91277   0.35453   0.41766   0.00000  Uiso   1.00
C1369  C     0.92530   0.39353   0.39563   0.00000  Uiso   1.00
H1370  H     0.89722   0.41487   0.38821   0.00000  Uiso   1.00
H1371  H     0.93808   0.38504   0.36143   0.00000  Uiso   1.00
C1372  C     0.96007   0.41866   0.42271   0.00000  Uiso   1.00
H1373  H     0.97059   0.44634   0.40118   0.00000  Uiso   1.00
H1374  H     0.94633   0.43207   0.45492   0.00000  Uiso   1.00
C1375  C     0.99983   0.39179   0.43473   0.00000  Uiso   1.00
H1376  H     0.99358   0.37100   0.46522   0.00000  Uiso   1.00
H1377  H     0.52694   0.41346   0.44374   0.00000  Uiso   1.00
H1378  H     0.50950   0.37156   0.40524   0.00000  Uiso   1.00
O1379  O     0.90852   0.34875   0.58602   0.00000  Uiso   1.00
C1380  C     0.88480   0.31089   0.59634   0.00000  Uiso   1.00
H1381  H     0.90295   0.29242   0.62327   0.00000  Uiso   1.00
H1382  H     0.88167   0.28908   0.56610   0.00000  Uiso   1.00
C1383  C     0.83974   0.32051   0.61484   0.00000  Uiso   1.00
H1384  H     0.84231   0.33457   0.64986   0.00000  Uiso   1.00
H1385  H     0.82247   0.34410   0.59231   0.00000  Uiso   1.00
C1386  C     0.81362   0.27891   0.61616   0.00000  Uiso   1.00
H1387  H     0.79608   0.27483   0.58290   0.00000  Uiso   1.00
H1388  H     0.79046   0.27902   0.64491   0.00000  Uiso   1.00
H1389  H     0.83494   0.25063   0.62139   0.00000  Uiso   1.00
O1390  O     0.56701   0.13181   0.42273   0.00000  Uiso   1.00
C1391  C     0.52587   0.11496   0.43417   0.00000  Uiso   1.00
H1392  H     0.50173   0.12978   0.41034   0.00000  Uiso   1.00
H1393  H     0.51519   0.12363   0.46959   0.00000  Uiso   1.00
C1394  C     0.52454   0.06601   0.42812   0.00000  Uiso   1.00
H1395  H     0.51720   0.05851   0.39143   0.00000  Uiso   1.00
H1396  H     0.55632   0.05178   0.43711   0.00000  Uiso   1.00
C1397  C     0.99082   0.04528   0.45934   0.00000  Uiso   1.00
H1398  H     0.50002   0.04984   0.49599   0.00000  Uiso   1.00
H1399  H     0.98901   0.01020   0.45273   0.00000  Uiso   1.00
H1400  H     0.95872   0.06006   0.45357   0.00000  Uiso   1.00
O1401  O     0.65403   0.40466   0.41380   0.00000  Uiso   1.00
C1402  C     0.63376   0.44520   0.40573   0.00000  Uiso   1.00
H1403  H     0.65827   0.46807   0.39237   0.00000  Uiso   1.00
H1404  H     0.61989   0.46013   0.43734   0.00000  Uiso   1.00
C1405  C     0.59891   0.44188   0.36882   0.00000  Uiso   1.00
H1406  H     0.61443   0.43744   0.33470   0.00000  Uiso   1.00
H1407  H     0.57824   0.41358   0.37640   0.00000  Uiso   1.00
C1408  C     0.57147   0.48284   0.36805   0.00000  Uiso   1.00
H1409  H     0.55052   0.48289   0.39898   0.00000  Uiso   1.00
H1410  H     0.55065   0.48461   0.33693   0.00000  Uiso   1.00
H1411  H     0.59215   0.01202   0.36819   0.00000  Uiso   1.00
O1412  O     0.85545   0.08589   0.58505   0.00000  Uiso   1.00
C1413  C     0.81772   0.10846   0.59801   0.00000  Uiso   1.00
H1414  H     0.79761   0.08606   0.61898   0.00000  Uiso   1.00
H1415  H     0.79733   0.11886   0.56786   0.00000  Uiso   1.00
C1416  C     0.82752   0.14771   0.62752   0.00000  Uiso   1.00
H1417  H     0.83727   0.13705   0.66288   0.00000  Uiso   1.00
H1418  H     0.85399   0.16708   0.61222   0.00000  Uiso   1.00
C1419  C     0.78717   0.17561   0.62999   0.00000  Uiso   1.00
H1420  H     0.78359   0.19469   0.59749   0.00000  Uiso   1.00
H1421  H     0.78853   0.19750   0.65979   0.00000  Uiso   1.00
H1422  H     0.75831   0.15512   0.63377   0.00000  Uiso   1.00
O1423  O     0.84417   0.09674   0.41538   0.00000  Uiso   1.00
C1424  C     0.86211   0.05737   0.40039   0.00000  Uiso   1.00
H1425  H     0.83752   0.04104   0.37882   0.00000  Uiso   1.00
H1426  H     0.86986   0.03464   0.42958   0.00000  Uiso   1.00
C1427  C     0.90191   0.06452   0.37052   0.00000  Uiso   1.00
H1428  H     0.89255   0.07940   0.33681   0.00000  Uiso   1.00
H1429  H     0.92478   0.08651   0.38798   0.00000  Uiso   1.00
C1430  C     0.92368   0.02126   0.36234   0.00000  Uiso   1.00
H1431  H     0.93119   0.00569   0.39602   0.00000  Uiso   1.00
H1432  H     0.95411   0.02536   0.34323   0.00000  Uiso   1.00
H1433  H     0.90187   0.49980   0.34276   0.00000  Uiso   1.00
O1434  O     0.64909   0.40774   0.58352   0.00000  Uiso   1.00
C1435  C     0.68366   0.38111   0.59847   0.00000  Uiso   1.00
H1436  H     0.70090   0.39828   0.62641   0.00000  Uiso   1.00
H1437  H     0.70799   0.37645   0.57068   0.00000  Uiso   1.00
C1438  C     0.66813   0.33722   0.61748   0.00000  Uiso   1.00
H1439  H     0.65435   0.34127   0.65253   0.00000  Uiso   1.00
H1440  H     0.64288   0.32282   0.59550   0.00000  Uiso   1.00
C1441  C     0.70508   0.30514   0.61902   0.00000  Uiso   1.00
H1442  H     0.71673   0.29882   0.58347   0.00000  Uiso   1.00
H1443  H     0.69416   0.27432   0.63449   0.00000  Uiso   1.00
H1444  H     0.73168   0.31823   0.63999   0.00000  Uiso   1.00
O1445  O     0.86285   0.42311   0.58235   0.00000  Uiso   1.00
C1446  C     0.87871   0.46568   0.57713   0.00000  Uiso   1.00
H1447  H     0.86464   0.48563   0.60483   0.00000  Uiso   1.00
H1448  H     0.86912   0.48145   0.54387   0.00000  Uiso   1.00
C1449  C     0.92742   0.46707   0.58151   0.00000  Uiso   1.00
H1450  H     0.93708   0.45679   0.61701   0.00000  Uiso   1.00
H1451  H     0.94220   0.44510   0.55601   0.00000  Uiso   1.00
C1452  C     0.94302   0.01257   0.57168   0.00000  Uiso   1.00
H1453  H     0.93447   0.02229   0.53567   0.00000  Uiso   1.00
H1454  H     0.97835   0.01448   0.57585   0.00000  Uiso   1.00
H1455  H     0.92771   0.03533   0.59587   0.00000  Uiso   1.00
O1456  O     0.65051   0.09454   0.41505   0.00000  Uiso   1.00
C1457  C     0.65321   0.13272   0.38727   0.00000  Uiso   1.00
H1458  H     0.64815   0.16308   0.40672   0.00000  Uiso   1.00
H1459  H     0.62841   0.13123   0.35945   0.00000  Uiso   1.00
C1460  C     0.69719   0.13708   0.36467   0.00000  Uiso   1.00
H1461  H     0.70264   0.11015   0.34074   0.00000  Uiso   1.00
H1462  H     0.69724   0.16722   0.34354   0.00000  Uiso   1.00
C1463  C     0.73367   0.13958   0.40022   0.00000  Uiso   1.00
H1464  H     0.73198   0.17038   0.41925   0.00000  Uiso   1.00
H1465  H     0.76500   0.13766   0.38234   0.00000  Uiso   1.00
H1466  H     0.73237   0.11247   0.42531   0.00000  Uiso   1.00
O1467  O     0.64125   0.08355   0.58429   0.00000  Uiso   1.00
C1468  C     0.62159   0.04201   0.58801   0.00000  Uiso   1.00
H1469  H     0.61655   0.03603   0.62552   0.00000  Uiso   1.00
H1470  H     0.64459   0.01643   0.57829   0.00000  Uiso   1.00
C1471  C     0.57739   0.03515   0.56361   0.00000  Uiso   1.00
H1472  H     0.55402   0.02325   0.58972   0.00000  Uiso   1.00
H1473  H     0.56345   0.06506   0.54849   0.00000  Uiso   1.00
C1474  C     0.58054   0.00148   0.52567   0.00000  Uiso   1.00
H1475  H     0.60040   0.01371   0.49663   0.00000  Uiso   1.00
H1476  H     0.54806   0.49332   0.51249   0.00000  Uiso   1.00
H1477  H     0.59521   0.47154   0.53969   0.00000  Uiso   1.00
O1478  O     0.82527   0.38137   0.42567   0.00000  Uiso   1.00
C1479  C     0.79442   0.35120   0.44203   0.00000  Uiso   1.00
H1480  H     0.77377   0.36570   0.46911   0.00000  Uiso   1.00
H1481  H     0.80987   0.32173   0.45716   0.00000  Uiso   1.00
C1482  C     0.76545   0.33668   0.40278   0.00000  Uiso   1.00
H1483  H     0.78475   0.31876   0.37731   0.00000  Uiso   1.00
H1484  H     0.74102   0.31439   0.41739   0.00000  Uiso   1.00
C1485  C     0.74306   0.37464   0.37899   0.00000  Uiso   1.00
H1486  H     0.73787   0.40151   0.40320   0.00000  Uiso   1.00
H1487  H     0.71122   0.36428   0.36619   0.00000  Uiso   1.00
H1488  H     0.76267   0.38619   0.34938   0.00000  Uiso   1.00
O1489  O     0.04508   0.70491   0.53958   0.00000  Uiso   1.00
O1490  O     0.45491   0.79509   0.46042   0.00000  Uiso   1.00
O1491  O     0.45491   0.79509   0.53958   0.00000  Uiso   1.00
O1492  O     0.04508   0.70491   0.46042   0.00000  Uiso   1.00
O1493  O     0.45491   0.70491   0.46042   0.00000  Uiso   1.00
O1494  O     0.04508   0.79509   0.53958   0.00000  Uiso   1.00
O1495  O     0.04508   0.79509   0.46042   0.00000  Uiso   1.00
O1496  O     0.45491   0.70491   0.53958   0.00000  Uiso   1.00
O1497  O     0.29508   0.95491   0.53958   0.00000  Uiso   1.00
O1498  O     0.20491   0.54509   0.46042   0.00000  Uiso   1.00
O1499  O     0.20491   0.54509   0.53958   0.00000  Uiso   1.00
O1500  O     0.29508   0.95491   0.46042   0.00000  Uiso   1.00
O1501  O     0.20491   0.95491   0.46042   0.00000  Uiso   1.00
O1502  O     0.29508   0.54509   0.53958   0.00000  Uiso   1.00
O1503  O     0.29508   0.54509   0.46042   0.00000  Uiso   1.00
O1504  O     0.20491   0.95491   0.53958   0.00000  Uiso   1.00
C1505  C     0.05854   0.68988   0.50026   0.00000  Uiso   1.00
C1506  C     0.44160   0.81054   0.50005   0.00000  Uiso   1.00
C1507  C     0.44175   0.68955   0.50010   0.00000  Uiso   1.00
C1508  C     0.05964   0.80903   0.49969   0.00000  Uiso   1.00
C1509  C     0.30945   0.94075   0.50033   0.00000  Uiso   1.00
C1510  C     0.18879   0.55778   0.49973   0.00000  Uiso   1.00
C1511  C     0.19025   0.94078   0.49990   0.00000  Uiso   1.00
C1512  C     0.31094   0.55799   0.50003   0.00000  Uiso   1.00
H1513  H     0.45927   0.69535   0.37605   0.00000  Uiso   1.00
H1514  H     0.04173   0.80376   0.62387   0.00000  Uiso   1.00
H1515  H     0.04052   0.80474   0.37538   0.00000  Uiso   1.00
H1516  H     0.45644   0.69791   0.62477   0.00000  Uiso   1.00
H1517  H     0.30119   0.95486   0.37652   0.00000  Uiso   1.00
H1518  H     0.20173   0.54766   0.62380   0.00000  Uiso   1.00
H1519  H     0.19836   0.54374   0.37505   0.00000  Uiso   1.00
H1520  H     0.29843   0.95219   0.62531   0.00000  Uiso   1.00
N1521  N    -0.00000   0.75000   0.61736   0.00000  Uiso   1.00
N1522  N     0.00000   0.75000   0.38264   0.00000  Uiso   1.00
N1523  N     0.25000   0.50000   0.61736   0.00000  Uiso   1.00
N1524  N     0.25000   0.50000   0.38264   0.00000  Uiso   1.00
Cu1525 Cu    0.00000   0.75000   0.54689   0.00000  Uiso   1.00
Cu1526 Cu    0.00000   0.75000   0.45311   0.00000  Uiso   1.00
Cu1527 Cu    0.25000   0.50000   0.54689   0.00000  Uiso   1.00
Cu1528 Cu    0.25000   0.50000   0.45311   0.00000  Uiso   1.00
C1529  C     0.47737   0.71997   0.35812   0.00000  Uiso   1.00
C1530  C     0.02288   0.77985   0.64186   0.00000  Uiso   1.00
C1531  C     0.02232   0.78028   0.35770   0.00000  Uiso   1.00
C1532  C     0.47623   0.72094   0.64235   0.00000  Uiso   1.00
C1533  C     0.27812   0.97496   0.35840   0.00000  Uiso   1.00
C1534  C     0.22281   0.52579   0.64173   0.00000  Uiso   1.00
C1535  C     0.22186   0.52474   0.35747   0.00000  Uiso   1.00
C1536  C     0.27724   0.97405   0.64261   0.00000  Uiso   1.00
C1537  C     0.38787   0.64388   0.45973   0.00000  Uiso   1.00
C1538  C     0.10003   0.86748   0.53780   0.00000  Uiso   1.00
C1539  C     0.11755   0.85109   0.45882   0.00000  Uiso   1.00
C1540  C     0.40493   0.62760   0.54042   0.00000  Uiso   1.00
C1541  C     0.11223   0.64216   0.54069   0.00000  Uiso   1.00
C1542  C     0.39327   0.86326   0.45933   0.00000  Uiso   1.00
C1543  C     0.39577   0.86448   0.54308   0.00000  Uiso   1.00
C1544  C     0.09438   0.62835   0.46078   0.00000  Uiso   1.00
C1545  C     0.14249   0.88855   0.45690   0.00000  Uiso   1.00
C1546  C     0.36889   0.60048   0.54198   0.00000  Uiso   1.00
C1547  C     0.36156   0.60759   0.45801   0.00000  Uiso   1.00
C1548  C     0.13587   0.89408   0.54041   0.00000  Uiso   1.00
C1549  C     0.36891   0.90066   0.54177   0.00000  Uiso   1.00
C1550  C     0.13229   0.60339   0.45772   0.00000  Uiso   1.00
C1551  C     0.13462   0.60318   0.54162   0.00000  Uiso   1.00
C1552  C     0.35499   0.88671   0.46082   0.00000  Uiso   1.00
C1553  C     0.09298   0.84255   0.49869   0.00000  Uiso   1.00
C1554  C     0.41170   0.65291   0.50009   0.00000  Uiso   1.00
C1555  C     0.41005   0.84634   0.50088   0.00000  Uiso   1.00
C1556  C     0.08879   0.65342   0.50062   0.00000  Uiso   1.00
C1557  C     0.34772   0.58853   0.50008   0.00000  Uiso   1.00
C1558  C     0.15608   0.90759   0.49912   0.00000  Uiso   1.00
C1559  C     0.15139   0.58772   0.49946   0.00000  Uiso   1.00
C1560  C     0.34486   0.90931   0.50111   0.00000  Uiso   1.00
O1561  O     0.38736   0.67247   0.42272   0.00000  Uiso   1.00
C1562  C     0.34863   0.69642   0.42507   0.00000  Uiso   1.00
H1563  H     0.34464   0.71173   0.45957   0.00000  Uiso   1.00
H1564  H     0.32038   0.67536   0.41891   0.00000  Uiso   1.00
C1565  C     0.34801   0.73113   0.38757   0.00000  Uiso   1.00
H1566  H     0.35824   0.71696   0.35436   0.00000  Uiso   1.00
H1567  H     0.31477   0.74401   0.38407   0.00000  Uiso   1.00
C1568  C     0.37781   0.76792   0.39942   0.00000  Uiso   1.00
H1569  H     0.36955   0.78084   0.43380   0.00000  Uiso   1.00
H1570  H     0.37463   0.79381   0.37302   0.00000  Uiso   1.00
H1571  H     0.41144   0.75661   0.39994   0.00000  Uiso   1.00
O1572  O     0.07182   0.86626   0.57409   0.00000  Uiso   1.00
C1573  C     0.03638   0.89303   0.56249   0.00000  Uiso   1.00
H1574  H     0.00719   0.87286   0.55761   0.00000  Uiso   1.00
H1575  H     0.03989   0.91264   0.52996   0.00000  Uiso   1.00
C1576  C     0.03025   0.92410   0.60161   0.00000  Uiso   1.00
H1577  H     0.06195   0.93751   0.61144   0.00000  Uiso   1.00
H1578  H     0.01026   0.95132   0.58983   0.00000  Uiso   1.00
C1579  C     0.00953   0.90154   0.64259   0.00000  Uiso   1.00
H1580  H     0.47913   0.88592   0.63155   0.00000  Uiso   1.00
H1581  H     0.00232   0.92566   0.33581   0.00000  Uiso   1.00
H1582  H     0.03155   0.87674   0.65735   0.00000  Uiso   1.00
O1583  O     0.11990   0.82221   0.42287   0.00000  Uiso   1.00
C1584  C     0.14443   0.78619   0.43865   0.00000  Uiso   1.00
H1585  H     0.12445   0.76426   0.46030   0.00000  Uiso   1.00
H1586  H     0.17302   0.79602   0.45967   0.00000  Uiso   1.00
C1587  C     0.16150   0.76085   0.39794   0.00000  Uiso   1.00
H1588  H     0.18326   0.78177   0.37756   0.00000  Uiso   1.00
H1589  H     0.18066   0.73317   0.41150   0.00000  Uiso   1.00
C1590  C     0.12540   0.74423   0.36702   0.00000  Uiso   1.00
H1591  H     0.09988   0.72845   0.38792   0.00000  Uiso   1.00
H1592  H     0.13862   0.72011   0.34308   0.00000  Uiso   1.00
H1593  H     0.11146   0.77120   0.34630   0.00000  Uiso   1.00
O1594  O     0.42773   0.63420   0.58124   0.00000  Uiso   1.00
C1595  C     0.47055   0.61842   0.57791   0.00000  Uiso   1.00
H1596  H     0.49164   0.64243   0.56105   0.00000  Uiso   1.00
H1597  H     0.47284   0.58937   0.55628   0.00000  Uiso   1.00
C1598  C     0.48817   0.60797   0.62671   0.00000  Uiso   1.00
H1599  H     0.46727   0.62226   0.65357   0.00000  Uiso   1.00
H1600  H     0.48841   0.57266   0.63214   0.00000  Uiso   1.00
C1601  C     0.03404   0.62414   0.63424   0.00000  Uiso   1.00
H1602  H     0.05591   0.60973   0.60889   0.00000  Uiso   1.00
H1603  H     0.04548   0.61463   0.33592   0.00000  Uiso   1.00
H1604  H     0.03574   0.65966   0.63074   0.00000  Uiso   1.00
O1605  O     0.11309   0.66787   0.57944   0.00000  Uiso   1.00
C1606  C     0.14026   0.70381   0.57068   0.00000  Uiso   1.00
H1607  H     0.13481   0.72736   0.59850   0.00000  Uiso   1.00
H1608  H     0.13118   0.72171   0.53842   0.00000  Uiso   1.00
C1609  C     0.18835   0.69125   0.57086   0.00000  Uiso   1.00
H1610  H     0.20659   0.71347   0.59334   0.00000  Uiso   1.00
H1611  H     0.19287   0.65830   0.58558   0.00000  Uiso   1.00
C1612  C     0.20782   0.69354   0.52242   0.00000  Uiso   1.00
H1613  H     0.18961   0.67295   0.49809   0.00000  Uiso   1.00
H1614  H     0.24171   0.68217   0.52371   0.00000  Uiso   1.00
H1615  H     0.20731   0.72731   0.50918   0.00000  Uiso   1.00
O1616  O     0.41277   0.85453   0.41766   0.00000  Uiso   1.00
C1617  C     0.42530   0.89353   0.39563   0.00000  Uiso   1.00
H1618  H     0.39722   0.91487   0.38821   0.00000  Uiso   1.00
H1619  H     0.43808   0.88504   0.36143   0.00000  Uiso   1.00
C1620  C     0.46007   0.91866   0.42271   0.00000  Uiso   1.00
H1621  H     0.47059   0.94634   0.40118   0.00000  Uiso   1.00
H1622  H     0.44633   0.93207   0.45492   0.00000  Uiso   1.00
C1623  C     0.49983   0.89179   0.43473   0.00000  Uiso   1.00
H1624  H     0.49358   0.87100   0.46522   0.00000  Uiso   1.00
H1625  H     0.02694   0.91346   0.44374   0.00000  Uiso   1.00
H1626  H     0.00950   0.87156   0.40524   0.00000  Uiso   1.00
O1627  O     0.40852   0.84875   0.58602   0.00000  Uiso   1.00
C1628  C     0.38480   0.81089   0.59634   0.00000  Uiso   1.00
H1629  H     0.40295   0.79242   0.62327   0.00000  Uiso   1.00
H1630  H     0.38167   0.78908   0.56610   0.00000  Uiso   1.00
C1631  C     0.33974   0.82051   0.61484   0.00000  Uiso   1.00
H1632  H     0.34231   0.83457   0.64986   0.00000  Uiso   1.00
H1633  H     0.32247   0.84410   0.59231   0.00000  Uiso   1.00
C1634  C     0.31362   0.77891   0.61616   0.00000  Uiso   1.00
H1635  H     0.29608   0.77483   0.58290   0.00000  Uiso   1.00
H1636  H     0.29046   0.77902   0.64491   0.00000  Uiso   1.00
H1637  H     0.33494   0.75063   0.62139   0.00000  Uiso   1.00
O1638  O     0.06701   0.63181   0.42273   0.00000  Uiso   1.00
C1639  C     0.02587   0.61496   0.43417   0.00000  Uiso   1.00
H1640  H     0.00173   0.62978   0.41034   0.00000  Uiso   1.00
H1641  H     0.01519   0.62363   0.46959   0.00000  Uiso   1.00
C1642  C     0.02454   0.56601   0.42812   0.00000  Uiso   1.00
H1643  H     0.01720   0.55851   0.39143   0.00000  Uiso   1.00
H1644  H     0.05632   0.55178   0.43711   0.00000  Uiso   1.00
C1645  C     0.49082   0.54528   0.45934   0.00000  Uiso   1.00
H1646  H     0.00002   0.54984   0.49599   0.00000  Uiso   1.00
H1647  H     0.48901   0.51020   0.45273   0.00000  Uiso   1.00
H1648  H     0.45872   0.56006   0.45357   0.00000  Uiso   1.00
O1649  O     0.15403   0.90466   0.41380   0.00000  Uiso   1.00
C1650  C     0.13376   0.94520   0.40573   0.00000  Uiso   1.00
H1651  H     0.15827   0.96807   0.39237   0.00000  Uiso   1.00
H1652  H     0.11989   0.96013   0.43734   0.00000  Uiso   1.00
C1653  C     0.09891   0.94188   0.36882   0.00000  Uiso   1.00
H1654  H     0.11443   0.93744   0.33470   0.00000  Uiso   1.00
H1655  H     0.07824   0.91358   0.37640   0.00000  Uiso   1.00
C1656  C     0.07147   0.98284   0.36805   0.00000  Uiso   1.00
H1657  H     0.05052   0.98289   0.39898   0.00000  Uiso   1.00
H1658  H     0.05065   0.98461   0.33693   0.00000  Uiso   1.00
H1659  H     0.09215   0.51202   0.36819   0.00000  Uiso   1.00
O1660  O     0.35545   0.58589   0.58505   0.00000  Uiso   1.00
C1661  C     0.31772   0.60846   0.59801   0.00000  Uiso   1.00
H1662  H     0.29761   0.58606   0.61898   0.00000  Uiso   1.00
H1663  H     0.29733   0.61886   0.56786   0.00000  Uiso   1.00
C1664  C     0.32752   0.64771   0.62752   0.00000  Uiso   1.00
H1665  H     0.33727   0.63705   0.66288   0.00000  Uiso   1.00
H1666  H     0.35399   0.66708   0.61222   0.00000  Uiso   1.00
C1667  C     0.28717   0.67561   0.62999   0.00000  Uiso   1.00
H1668  H     0.28359   0.69469   0.59749   0.00000  Uiso   1.00
H1669  H     0.28853   0.69750   0.65979   0.00000  Uiso   1.00
H1670  H     0.25831   0.65512   0.63377   0.00000  Uiso   1.00
O1671  O     0.34417   0.59674   0.41538   0.00000  Uiso   1.00
C1672  C     0.36211   0.55737   0.40039   0.00000  Uiso   1.00
H1673  H     0.33752   0.54104   0.37882   0.00000  Uiso   1.00
H1674  H     0.36986   0.53464   0.42958   0.00000  Uiso   1.00
C1675  C     0.40191   0.56452   0.37052   0.00000  Uiso   1.00
H1676  H     0.39255   0.57940   0.33681   0.00000  Uiso   1.00
H1677  H     0.42478   0.58651   0.38798   0.00000  Uiso   1.00
C1678  C     0.42368   0.52126   0.36234   0.00000  Uiso   1.00
H1679  H     0.43119   0.50569   0.39602   0.00000  Uiso   1.00
H1680  H     0.45411   0.52536   0.34323   0.00000  Uiso   1.00
H1681  H     0.40187   0.99980   0.34276   0.00000  Uiso   1.00
O1682  O     0.14909   0.90774   0.58352   0.00000  Uiso   1.00
C1683  C     0.18366   0.88111   0.59847   0.00000  Uiso   1.00
H1684  H     0.20090   0.89828   0.62641   0.00000  Uiso   1.00
H1685  H     0.20799   0.87645   0.57068   0.00000  Uiso   1.00
C1686  C     0.16813   0.83722   0.61748   0.00000  Uiso   1.00
H1687  H     0.15435   0.84127   0.65253   0.00000  Uiso   1.00
H1688  H     0.14288   0.82282   0.59550   0.00000  Uiso   1.00
C1689  C     0.20508   0.80514   0.61902   0.00000  Uiso   1.00
H1690  H     0.21673   0.79882   0.58347   0.00000  Uiso   1.00
H1691  H     0.19416   0.77432   0.63449   0.00000  Uiso   1.00
H1692  H     0.23168   0.81823   0.63999   0.00000  Uiso   1.00
O1693  O     0.36285   0.92311   0.58235   0.00000  Uiso   1.00
C1694  C     0.37871   0.96568   0.57713   0.00000  Uiso   1.00
H1695  H     0.36464   0.98563   0.60483   0.00000  Uiso   1.00
H1696  H     0.36912   0.98145   0.54387   0.00000  Uiso   1.00
C1697  C     0.42742   0.96707   0.58151   0.00000  Uiso   1.00
H1698  H     0.43708   0.95679   0.61701   0.00000  Uiso   1.00
H1699  H     0.44220   0.94510   0.55601   0.00000  Uiso   1.00
C1700  C     0.44302   0.51257   0.57168   0.00000  Uiso   1.00
H1701  H     0.43447   0.52229   0.53567   0.00000  Uiso   1.00
H1702  H     0.47835   0.51448   0.57585   0.00000  Uiso   1.00
H1703  H     0.42771   0.53533   0.59587   0.00000  Uiso   1.00
O1704  O     0.15051   0.59454   0.41505   0.00000  Uiso   1.00
C1705  C     0.15321   0.63272   0.38727   0.00000  Uiso   1.00
H1706  H     0.14815   0.66308   0.40672   0.00000  Uiso   1.00
H1707  H     0.12841   0.63123   0.35945   0.00000  Uiso   1.00
C1708  C     0.19719   0.63708   0.36467   0.00000  Uiso   1.00
H1709  H     0.20264   0.61015   0.34074   0.00000  Uiso   1.00
H1710  H     0.19724   0.66722   0.34354   0.00000  Uiso   1.00
C1711  C     0.23367   0.63958   0.40022   0.00000  Uiso   1.00
H1712  H     0.23198   0.67038   0.41925   0.00000  Uiso   1.00
H1713  H     0.26500   0.63766   0.38234   0.00000  Uiso   1.00
H1714  H     0.23237   0.61247   0.42531   0.00000  Uiso   1.00
O1715  O     0.14125   0.58355   0.58429   0.00000  Uiso   1.00
C1716  C     0.12159   0.54201   0.58801   0.00000  Uiso   1.00
H1717  H     0.11655   0.53603   0.62552   0.00000  Uiso   1.00
H1718  H     0.14459   0.51643   0.57829   0.00000  Uiso   1.00
C1719  C     0.07739   0.53515   0.56361   0.00000  Uiso   1.00
H1720  H     0.05402   0.52325   0.58972   0.00000  Uiso   1.00
H1721  H     0.06345   0.56506   0.54849   0.00000  Uiso   1.00
C1722  C     0.08054   0.50148   0.52567   0.00000  Uiso   1.00
H1723  H     0.10040   0.51371   0.49663   0.00000  Uiso   1.00
H1724  H     0.04806   0.99332   0.51249   0.00000  Uiso   1.00
H1725  H     0.09521   0.97154   0.53969   0.00000  Uiso   1.00
O1726  O     0.32527   0.88137   0.42567   0.00000  Uiso   1.00
C1727  C     0.29442   0.85120   0.44203   0.00000  Uiso   1.00
H1728  H     0.27377   0.86570   0.46911   0.00000  Uiso   1.00
H1729  H     0.30987   0.82173   0.45716   0.00000  Uiso   1.00
C1730  C     0.26545   0.83668   0.40278   0.00000  Uiso   1.00
H1731  H     0.28475   0.81876   0.37731   0.00000  Uiso   1.00
H1732  H     0.24102   0.81439   0.41739   0.00000  Uiso   1.00
C1733  C     0.24306   0.87464   0.37899   0.00000  Uiso   1.00
H1734  H     0.23787   0.90151   0.40320   0.00000  Uiso   1.00
H1735  H     0.21122   0.86428   0.36619   0.00000  Uiso   1.00
H1736  H     0.26267   0.88619   0.34938   0.00000  Uiso   1.00
O1737  O     0.54508   0.70491   0.53958   0.00000  Uiso   1.00
O1738  O     0.95491   0.79509   0.46042   0.00000  Uiso   1.00
O1739  O     0.95491   0.79509   0.53958   0.00000  Uiso   1.00
O1740  O     0.54508   0.70491   0.46042   0.00000  Uiso   1.00
O1741  O     0.95491   0.70491   0.46042   0.00000  Uiso   1.00
O1742  O     0.54508   0.79509   0.53958   0.00000  Uiso   1.00
O1743  O     0.54508   0.79509   0.46042   0.00000  Uiso   1.00
O1744  O     0.95491   0.70491   0.53958   0.00000  Uiso   1.00
O1745  O     0.79508   0.95491   0.53958   0.00000  Uiso   1.00
O1746  O     0.70491   0.54509   0.46042   0.00000  Uiso   1.00
O1747  O     0.70491   0.54509   0.53958   0.00000  Uiso   1.00
O1748  O     0.79508   0.95491   0.46042   0.00000  Uiso   1.00
O1749  O     0.70491   0.95491   0.46042   0.00000  Uiso   1.00
O1750  O     0.79508   0.54509   0.53958   0.00000  Uiso   1.00
O1751  O     0.79508   0.54509   0.46042   0.00000  Uiso   1.00
O1752  O     0.70491   0.95491   0.53958   0.00000  Uiso   1.00
C1753  C     0.55854   0.68988   0.50026   0.00000  Uiso   1.00
C1754  C     0.94160   0.81054   0.50005   0.00000  Uiso   1.00
C1755  C     0.94175   0.68955   0.50010   0.00000  Uiso   1.00
C1756  C     0.55964   0.80903   0.49969   0.00000  Uiso   1.00
C1757  C     0.80945   0.94075   0.50033   0.00000  Uiso   1.00
C1758  C     0.68879   0.55778   0.49973   0.00000  Uiso   1.00
C1759  C     0.69025   0.94078   0.49990   0.00000  Uiso   1.00
C1760  C     0.81094   0.55799   0.50003   0.00000  Uiso   1.00
H1761  H     0.95927   0.69535   0.37605   0.00000  Uiso   1.00
H1762  H     0.54173   0.80376   0.62387   0.00000  Uiso   1.00
H1763  H     0.54052   0.80474   0.37538   0.00000  Uiso   1.00
H1764  H     0.95644   0.69791   0.62477   0.00000  Uiso   1.00
H1765  H     0.80119   0.95486   0.37652   0.00000  Uiso   1.00
H1766  H     0.70173   0.54766   0.62380   0.00000  Uiso   1.00
H1767  H     0.69836   0.54374   0.37505   0.00000  Uiso   1.00
H1768  H     0.79843   0.95219   0.62531   0.00000  Uiso   1.00
N1769  N     0.50000   0.75000   0.61736   0.00000  Uiso   1.00
N1770  N     0.50000   0.75000   0.38264   0.00000  Uiso   1.00
N1771  N     0.75000   0.50000   0.61736   0.00000  Uiso   1.00
N1772  N     0.75000   0.50000   0.38264   0.00000  Uiso   1.00
Cu1773 Cu    0.50000   0.75000   0.54689   0.00000  Uiso   1.00
Cu1774 Cu    0.50000   0.75000   0.45311   0.00000  Uiso   1.00
Cu1775 Cu    0.75000   0.50000   0.54689   0.00000  Uiso   1.00
Cu1776 Cu    0.75000   0.50000   0.45311   0.00000  Uiso   1.00
C1777  C     0.97737   0.71997   0.35812   0.00000  Uiso   1.00
C1778  C     0.52288   0.77985   0.64186   0.00000  Uiso   1.00
C1779  C     0.52232   0.78028   0.35770   0.00000  Uiso   1.00
C1780  C     0.97623   0.72094   0.64235   0.00000  Uiso   1.00
C1781  C     0.77812   0.97496   0.35840   0.00000  Uiso   1.00
C1782  C     0.72281   0.52579   0.64173   0.00000  Uiso   1.00
C1783  C     0.72186   0.52474   0.35747   0.00000  Uiso   1.00
C1784  C     0.77724   0.97405   0.64261   0.00000  Uiso   1.00
C1785  C     0.88787   0.64388   0.45973   0.00000  Uiso   1.00
C1786  C     0.60003   0.86748   0.53780   0.00000  Uiso   1.00
C1787  C     0.61755   0.85109   0.45882   0.00000  Uiso   1.00
C1788  C     0.90493   0.62760   0.54042   0.00000  Uiso   1.00
C1789  C     0.61223   0.64216   0.54069   0.00000  Uiso   1.00
C1790  C     0.89327   0.86326   0.45933   0.00000  Uiso   1.00
C1791  C     0.89577   0.86448   0.54308   0.00000  Uiso   1.00
C1792  C     0.59438   0.62835   0.46078   0.00000  Uiso   1.00
C1793  C     0.64249   0.88855   0.45690   0.00000  Uiso   1.00
C1794  C     0.86889   0.60048   0.54198   0.00000  Uiso   1.00
C1795  C     0.86156   0.60759   0.45801   0.00000  Uiso   1.00
C1796  C     0.63587   0.89408   0.54041   0.00000  Uiso   1.00
C1797  C     0.86891   0.90066   0.54177   0.00000  Uiso   1.00
C1798  C     0.63229   0.60339   0.45772   0.00000  Uiso   1.00
C1799  C     0.63462   0.60318   0.54162   0.00000  Uiso   1.00
C1800  C     0.85499   0.88671   0.46082   0.00000  Uiso   1.00
C1801  C     0.59298   0.84255   0.49869   0.00000  Uiso   1.00
C1802  C     0.91170   0.65291   0.50009   0.00000  Uiso   1.00
C1803  C     0.91005   0.84634   0.50088   0.00000  Uiso   1.00
C1804  C     0.58879   0.65342   0.50062   0.00000  Uiso   1.00
C1805  C     0.84772   0.58853   0.50008   0.00000  Uiso   1.00
C1806  C     0.65608   0.90759   0.49912   0.00000  Uiso   1.00
C1807  C     0.65139   0.58772   0.49946   0.00000  Uiso   1.00
C1808  C     0.84486   0.90931   0.50111   0.00000  Uiso   1.00
O1809  O     0.88736   0.67247   0.42272   0.00000  Uiso   1.00
C1810  C     0.84863   0.69642   0.42507   0.00000  Uiso   1.00
H1811  H     0.84464   0.71173   0.45957   0.00000  Uiso   1.00
H1812  H     0.82038   0.67536   0.41891   0.00000  Uiso   1.00
C1813  C     0.84801   0.73113   0.38757   0.00000  Uiso   1.00
H1814  H     0.85824   0.71696   0.35436   0.00000  Uiso   1.00
H1815  H     0.81477   0.74401   0.38407   0.00000  Uiso   1.00
C1816  C     0.87781   0.76792   0.39942   0.00000  Uiso   1.00
H1817  H     0.86955   0.78084   0.43380   0.00000  Uiso   1.00
H1818  H     0.87463   0.79381   0.37302   0.00000  Uiso   1.00
H1819  H     0.91144   0.75661   0.39994   0.00000  Uiso   1.00
O1820  O     0.57182   0.86626   0.57409   0.00000  Uiso   1.00
C1821  C     0.53638   0.89303   0.56249   0.00000  Uiso   1.00
H1822  H     0.50719   0.87286   0.55761   0.00000  Uiso   1.00
H1823  H     0.53989   0.91264   0.52996   0.00000  Uiso   1.00
C1824  C     0.53025   0.92410   0.60161   0.00000  Uiso   1.00
H1825  H     0.56195   0.93751   0.61144   0.00000  Uiso   1.00
H1826  H     0.51026   0.95132   0.58983   0.00000  Uiso   1.00
C1827  C     0.50953   0.90154   0.64259   0.00000  Uiso   1.00
H1828  H     0.97913   0.88592   0.63155   0.00000  Uiso   1.00
H1829  H     0.50232   0.92566   0.33581   0.00000  Uiso   1.00
H1830  H     0.53155   0.87674   0.65735   0.00000  Uiso   1.00
O1831  O     0.61990   0.82221   0.42287   0.00000  Uiso   1.00
C1832  C     0.64443   0.78619   0.43865   0.00000  Uiso   1.00
H1833  H     0.62445   0.76426   0.46030   0.00000  Uiso   1.00
H1834  H     0.67302   0.79602   0.45967   0.00000  Uiso   1.00
C1835  C     0.66150   0.76085   0.39794   0.00000  Uiso   1.00
H1836  H     0.68326   0.78177   0.37756   0.00000  Uiso   1.00
H1837  H     0.68066   0.73317   0.41150   0.00000  Uiso   1.00
C1838  C     0.62540   0.74423   0.36702   0.00000  Uiso   1.00
H1839  H     0.59988   0.72845   0.38792   0.00000  Uiso   1.00
H1840  H     0.63862   0.72011   0.34308   0.00000  Uiso   1.00
H1841  H     0.61146   0.77120   0.34630   0.00000  Uiso   1.00
O1842  O     0.92773   0.63420   0.58124   0.00000  Uiso   1.00
C1843  C     0.97055   0.61842   0.57791   0.00000  Uiso   1.00
H1844  H     0.99164   0.64243   0.56105   0.00000  Uiso   1.00
H1845  H     0.97284   0.58937   0.55628   0.00000  Uiso   1.00
C1846  C     0.98817   0.60797   0.62671   0.00000  Uiso   1.00
H1847  H     0.96727   0.62226   0.65357   0.00000  Uiso   1.00
H1848  H     0.98841   0.57266   0.63214   0.00000  Uiso   1.00
C1849  C     0.53404   0.62414   0.63424   0.00000  Uiso   1.00
H1850  H     0.55591   0.60973   0.60889   0.00000  Uiso   1.00
H1851  H     0.54548   0.61463   0.33592   0.00000  Uiso   1.00
H1852  H     0.53574   0.65966   0.63074   0.00000  Uiso   1.00
O1853  O     0.61309   0.66787   0.57944   0.00000  Uiso   1.00
C1854  C     0.64026   0.70381   0.57068   0.00000  Uiso   1.00
H1855  H     0.63481   0.72736   0.59850   0.00000  Uiso   1.00
H1856  H     0.63118   0.72171   0.53842   0.00000  Uiso   1.00
C1857  C     0.68835   0.69125   0.57086   0.00000  Uiso   1.00
H1858  H     0.70659   0.71347   0.59334   0.00000  Uiso   1.00
H1859  H     0.69287   0.65830   0.58558   0.00000  Uiso   1.00
C1860  C     0.70782   0.69354   0.52242   0.00000  Uiso   1.00
H1861  H     0.68961   0.67295   0.49809   0.00000  Uiso   1.00
H1862  H     0.74171   0.68217   0.52371   0.00000  Uiso   1.00
H1863  H     0.70731   0.72731   0.50918   0.00000  Uiso   1.00
O1864  O     0.91277   0.85453   0.41766   0.00000  Uiso   1.00
C1865  C     0.92530   0.89353   0.39563   0.00000  Uiso   1.00
H1866  H     0.89722   0.91487   0.38821   0.00000  Uiso   1.00
H1867  H     0.93808   0.88504   0.36143   0.00000  Uiso   1.00
C1868  C     0.96007   0.91866   0.42271   0.00000  Uiso   1.00
H1869  H     0.97059   0.94634   0.40118   0.00000  Uiso   1.00
H1870  H     0.94633   0.93207   0.45492   0.00000  Uiso   1.00
C1871  C     0.99983   0.89179   0.43473   0.00000  Uiso   1.00
H1872  H     0.99358   0.87100   0.46522   0.00000  Uiso   1.00
H1873  H     0.52694   0.91346   0.44374   0.00000  Uiso   1.00
H1874  H     0.50950   0.87156   0.40524   0.00000  Uiso   1.00
O1875  O     0.90852   0.84875   0.58602   0.00000  Uiso   1.00
C1876  C     0.88480   0.81089   0.59634   0.00000  Uiso   1.00
H1877  H     0.90295   0.79242   0.62327   0.00000  Uiso   1.00
H1878  H     0.88167   0.78908   0.56610   0.00000  Uiso   1.00
C1879  C     0.83974   0.82051   0.61484   0.00000  Uiso   1.00
H1880  H     0.84231   0.83457   0.64986   0.00000  Uiso   1.00
H1881  H     0.82247   0.84410   0.59231   0.00000  Uiso   1.00
C1882  C     0.81362   0.77891   0.61616   0.00000  Uiso   1.00
H1883  H     0.79608   0.77483   0.58290   0.00000  Uiso   1.00
H1884  H     0.79046   0.77902   0.64491   0.00000  Uiso   1.00
H1885  H     0.83494   0.75063   0.62139   0.00000  Uiso   1.00
O1886  O     0.56701   0.63181   0.42273   0.00000  Uiso   1.00
C1887  C     0.52587   0.61496   0.43417   0.00000  Uiso   1.00
H1888  H     0.50173   0.62978   0.41034   0.00000  Uiso   1.00
H1889  H     0.51519   0.62363   0.46959   0.00000  Uiso   1.00
C1890  C     0.52454   0.56601   0.42812   0.00000  Uiso   1.00
H1891  H     0.51720   0.55851   0.39143   0.00000  Uiso   1.00
H1892  H     0.55632   0.55178   0.43711   0.00000  Uiso   1.00
C1893  C     0.99082   0.54528   0.45934   0.00000  Uiso   1.00
H1894  H     0.50002   0.54984   0.49599   0.00000  Uiso   1.00
H1895  H     0.98901   0.51020   0.45273   0.00000  Uiso   1.00
H1896  H     0.95872   0.56006   0.45357   0.00000  Uiso   1.00
O1897  O     0.65403   0.90466   0.41380   0.00000  Uiso   1.00
C1898  C     0.63376   0.94520   0.40573   0.00000  Uiso   1.00
H1899  H     0.65827   0.96807   0.39237   0.00000  Uiso   1.00
H1900  H     0.61989   0.96013   0.43734   0.00000  Uiso   1.00
C1901  C     0.59891   0.94188   0.36882   0.00000  Uiso   1.00
H1902  H     0.61443   0.93744   0.33470   0.00000  Uiso   1.00
H1903  H     0.57824   0.91358   0.37640   0.00000  Uiso   1.00
C1904  C     0.57147   0.98284   0.36805   0.00000  Uiso   1.00
H1905  H     0.55052   0.98289   0.39898   0.00000  Uiso   1.00
H1906  H     0.55065   0.98461   0.33693   0.00000  Uiso   1.00
H1907  H     0.59215   0.51202   0.36819   0.00000  Uiso   1.00
O1908  O     0.85545   0.58589   0.58505   0.00000  Uiso   1.00
C1909  C     0.81772   0.60846   0.59801   0.00000  Uiso   1.00
H1910  H     0.79761   0.58606   0.61898   0.00000  Uiso   1.00
H1911  H     0.79733   0.61886   0.56786   0.00000  Uiso   1.00
C1912  C     0.82752   0.64771   0.62752   0.00000  Uiso   1.00
H1913  H     0.83727   0.63705   0.66288   0.00000  Uiso   1.00
H1914  H     0.85399   0.66708   0.61222   0.00000  Uiso   1.00
C1915  C     0.78717   0.67561   0.62999   0.00000  Uiso   1.00
H1916  H     0.78359   0.69469   0.59749   0.00000  Uiso   1.00
H1917  H     0.78853   0.69750   0.65979   0.00000  Uiso   1.00
H1918  H     0.75831   0.65512   0.63377   0.00000  Uiso   1.00
O1919  O     0.84417   0.59674   0.41538   0.00000  Uiso   1.00
C1920  C     0.86211   0.55737   0.40039   0.00000  Uiso   1.00
H1921  H     0.83752   0.54104   0.37882   0.00000  Uiso   1.00
H1922  H     0.86986   0.53464   0.42958   0.00000  Uiso   1.00
C1923  C     0.90191   0.56452   0.37052   0.00000  Uiso   1.00
H1924  H     0.89255   0.57940   0.33681   0.00000  Uiso   1.00
H1925  H     0.92478   0.58651   0.38798   0.00000  Uiso   1.00
C1926  C     0.92368   0.52126   0.36234   0.00000  Uiso   1.00
H1927  H     0.93119   0.50569   0.39602   0.00000  Uiso   1.00
H1928  H     0.95411   0.52536   0.34323   0.00000  Uiso   1.00
H1929  H     0.90187   0.99980   0.34276   0.00000  Uiso   1.00
O1930  O     0.64909   0.90774   0.58352   0.00000  Uiso   1.00
C1931  C     0.68366   0.88111   0.59847   0.00000  Uiso   1.00
H1932  H     0.70090   0.89828   0.62641   0.00000  Uiso   1.00
H1933  H     0.70799   0.87645   0.57068   0.00000  Uiso   1.00
C1934  C     0.66813   0.83722   0.61748   0.00000  Uiso   1.00
H1935  H     0.65435   0.84127   0.65253   0.00000  Uiso   1.00
H1936  H     0.64288   0.82282   0.59550   0.00000  Uiso   1.00
C1937  C     0.70508   0.80514   0.61902   0.00000  Uiso   1.00
H1938  H     0.71673   0.79882   0.58347   0.00000  Uiso   1.00
H1939  H     0.69416   0.77432   0.63449   0.00000  Uiso   1.00
H1940  H     0.73168   0.81823   0.63999   0.00000  Uiso   1.00
O1941  O     0.86285   0.92311   0.58235   0.00000  Uiso   1.00
C1942  C     0.87871   0.96568   0.57713   0.00000  Uiso   1.00
H1943  H     0.86464   0.98563   0.60483   0.00000  Uiso   1.00
H1944  H     0.86912   0.98145   0.54387   0.00000  Uiso   1.00
C1945  C     0.92742   0.96707   0.58151   0.00000  Uiso   1.00
H1946  H     0.93708   0.95679   0.61701   0.00000  Uiso   1.00
H1947  H     0.94220   0.94510   0.55601   0.00000  Uiso   1.00
C1948  C     0.94302   0.51257   0.57168   0.00000  Uiso   1.00
H1949  H     0.93447   0.52229   0.53567   0.00000  Uiso   1.00
H1950  H     0.97835   0.51448   0.57585   0.00000  Uiso   1.00
H1951  H     0.92771   0.53533   0.59587   0.00000  Uiso   1.00
O1952  O     0.65051   0.59454   0.41505   0.00000  Uiso   1.00
C1953  C     0.65321   0.63272   0.38727   0.00000  Uiso   1.00
H1954  H     0.64815   0.66308   0.40672   0.00000  Uiso   1.00
H1955  H     0.62841   0.63123   0.35945   0.00000  Uiso   1.00
C1956  C     0.69719   0.63708   0.36467   0.00000  Uiso   1.00
H1957  H     0.70264   0.61015   0.34074   0.00000  Uiso   1.00
H1958  H     0.69724   0.66722   0.34354   0.00000  Uiso   1.00
C1959  C     0.73367   0.63958   0.40022   0.00000  Uiso   1.00
H1960  H     0.73198   0.67038   0.41925   0.00000  Uiso   1.00
H1961  H     0.76500   0.63766   0.38234   0.00000  Uiso   1.00
H1962  H     0.73237   0.61247   0.42531   0.00000  Uiso   1.00
O1963  O     0.64125   0.58355   0.58429   0.00000  Uiso   1.00
C1964  C     0.62159   0.54201   0.58801   0.00000  Uiso   1.00
H1965  H     0.61655   0.53603   0.62552   0.00000  Uiso   1.00
H1966  H     0.64459   0.51643   0.57829   0.00000  Uiso   1.00
C1967  C     0.57739   0.53515   0.56361   0.00000  Uiso   1.00
H1968  H     0.55402   0.52325   0.58972   0.00000  Uiso   1.00
H1969  H     0.56345   0.56506   0.54849   0.00000  Uiso   1.00
C1970  C     0.58054   0.50148   0.52567   0.00000  Uiso   1.00
H1971  H     0.60040   0.51371   0.49663   0.00000  Uiso   1.00
H1972  H     0.54806   0.99332   0.51249   0.00000  Uiso   1.00
H1973  H     0.59521   0.97154   0.53969   0.00000  Uiso   1.00
O1974  O     0.82527   0.88137   0.42567   0.00000  Uiso   1.00
C1975  C     0.79442   0.85120   0.44203   0.00000  Uiso   1.00
H1976  H     0.77377   0.86570   0.46911   0.00000  Uiso   1.00
H1977  H     0.80987   0.82173   0.45716   0.00000  Uiso   1.00
C1978  C     0.76545   0.83668   0.40278   0.00000  Uiso   1.00
H1979  H     0.78475   0.81876   0.37731   0.00000  Uiso   1.00
H1980  H     0.74102   0.81439   0.41739   0.00000  Uiso   1.00
C1981  C     0.74306   0.87464   0.37899   0.00000  Uiso   1.00
H1982  H     0.73787   0.90151   0.40320   0.00000  Uiso   1.00
H1983  H     0.71122   0.86428   0.36619   0.00000  Uiso   1.00
H1984  H     0.76267   0.88619   0.34938   0.00000  Uiso   1.00
O1985  O     0.04508   0.20491   0.87291   0.00000  Uiso   1.00
O1986  O     0.45491   0.29509   0.79375   0.00000  Uiso   1.00
O1987  O     0.45491   0.29509   0.87291   0.00000  Uiso   1.00
O1988  O     0.04508   0.20491   0.79375   0.00000  Uiso   1.00
O1989  O     0.45491   0.20491   0.79375   0.00000  Uiso   1.00
O1990  O     0.04508   0.29509   0.87291   0.00000  Uiso   1.00
O1991  O     0.04508   0.29509   0.79375   0.00000  Uiso   1.00
O1992  O     0.45491   0.20491   0.87291   0.00000  Uiso   1.00
O1993  O     0.29508   0.45491   0.87291   0.00000  Uiso   1.00
O1994  O     0.20491   0.04509   0.79375   0.00000  Uiso   1.00
O1995  O     0.20491   0.04509   0.87291   0.00000  Uiso   1.00
O1996  O     0.29508   0.45491   0.79375   0.00000  Uiso   1.00
O1997  O     0.20491   0.45491   0.79375   0.00000  Uiso   1.00
O1998  O     0.29508   0.04509   0.87291   0.00000  Uiso   1.00
O1999  O     0.29508   0.04509   0.79375   0.00000  Uiso   1.00
O2000  O     0.20491   0.45491   0.87291   0.00000  Uiso   1.00
C2001  C     0.05854   0.18988   0.83359   0.00000  Uiso   1.00
C2002  C     0.44160   0.31054   0.83338   0.00000  Uiso   1.00
C2003  C     0.44175   0.18955   0.83344   0.00000  Uiso   1.00
C2004  C     0.05964   0.30903   0.83302   0.00000  Uiso   1.00
C2005  C     0.30945   0.44075   0.83366   0.00000  Uiso   1.00
C2006  C     0.18879   0.05778   0.83306   0.00000  Uiso   1.00
C2007  C     0.19025   0.44078   0.83323   0.00000  Uiso   1.00
C2008  C     0.31094   0.05799   0.83336   0.00000  Uiso   1.00
H2009  H     0.45927   0.19535   0.70939   0.00000  Uiso   1.00
H2010  H     0.04173   0.30376   0.95721   0.00000  Uiso   1.00
H2011  H     0.04052   0.30474   0.70871   0.00000  Uiso   1.00
H2012  H     0.45644   0.19791   0.95810   0.00000  Uiso   1.00
H2013  H     0.30119   0.45486   0.70986   0.00000  Uiso   1.00
H2014  H     0.20173   0.04766   0.95713   0.00000  Uiso   1.00
H2015  H     0.19836   0.04374   0.70838   0.00000  Uiso   1.00
H2016  H     0.29843   0.45219   0.95865   0.00000  Uiso   1.00
N2017  N    -0.00000   0.25000   0.95069   0.00000  Uiso   1.00
N2018  N     0.00000   0.25000   0.71598   0.00000  Uiso   1.00
N2019  N     0.25000   0.00000   0.95069   0.00000  Uiso   1.00
N2020  N     0.25000  -0.00000   0.71598   0.00000  Uiso   1.00
Cu2021 Cu    0.00000   0.25000   0.88022   0.00000  Uiso   1.00
Cu2022 Cu    0.00000   0.25000   0.78645   0.00000  Uiso   1.00
Cu2023 Cu    0.25000   0.00000   0.88022   0.00000  Uiso   1.00
Cu2024 Cu    0.25000   0.00000   0.78645   0.00000  Uiso   1.00
C2025  C     0.47737   0.21997   0.69145   0.00000  Uiso   1.00
C2026  C     0.02288   0.27985   0.97519   0.00000  Uiso   1.00
C2027  C     0.02232   0.28028   0.69103   0.00000  Uiso   1.00
C2028  C     0.47623   0.22094   0.97568   0.00000  Uiso   1.00
C2029  C     0.27812   0.47496   0.69173   0.00000  Uiso   1.00
C2030  C     0.22281   0.02579   0.97507   0.00000  Uiso   1.00
C2031  C     0.22186   0.02474   0.69080   0.00000  Uiso   1.00
C2032  C     0.27724   0.47405   0.97594   0.00000  Uiso   1.00
C2033  C     0.38787   0.14388   0.79306   0.00000  Uiso   1.00
C2034  C     0.10003   0.36748   0.87113   0.00000  Uiso   1.00
C2035  C     0.11755   0.35109   0.79216   0.00000  Uiso   1.00
C2036  C     0.40493   0.12760   0.87375   0.00000  Uiso   1.00
C2037  C     0.11223   0.14216   0.87402   0.00000  Uiso   1.00
C2038  C     0.39327   0.36326   0.79266   0.00000  Uiso   1.00
C2039  C     0.39577   0.36448   0.87641   0.00000  Uiso   1.00
C2040  C     0.09438   0.12835   0.79411   0.00000  Uiso   1.00
C2041  C     0.14249   0.38855   0.79023   0.00000  Uiso   1.00
C2042  C     0.36889   0.10048   0.87531   0.00000  Uiso   1.00
C2043  C     0.36156   0.10759   0.79134   0.00000  Uiso   1.00
C2044  C     0.13587   0.39408   0.87374   0.00000  Uiso   1.00
C2045  C     0.36891   0.40066   0.87511   0.00000  Uiso   1.00
C2046  C     0.13229   0.10339   0.79105   0.00000  Uiso   1.00
C2047  C     0.13462   0.10318   0.87495   0.00000  Uiso   1.00
C2048  C     0.35499   0.38671   0.79415   0.00000  Uiso   1.00
C2049  C     0.09298   0.34255   0.83202   0.00000  Uiso   1.00
C2050  C     0.41170   0.15291   0.83342   0.00000  Uiso   1.00
C2051  C     0.41005   0.34634   0.83421   0.00000  Uiso   1.00
C2052  C     0.08879   0.15342   0.83395   0.00000  Uiso   1.00
C2053  C     0.34772   0.08853   0.83341   0.00000  Uiso   1.00
C2054  C     0.15608   0.40759   0.83246   0.00000  Uiso   1.00
C2055  C     0.15139   0.08772   0.83279   0.00000  Uiso   1.00
C2056  C     0.34486   0.40931   0.83445   0.00000  Uiso   1.00
O2057  O     0.38736   0.17247   0.75605   0.00000  Uiso   1.00
C2058  C     0.34863   0.19642   0.75840   0.00000  Uiso   1.00
H2059  H     0.34464   0.21173   0.79290   0.00000  Uiso   1.00
H2060  H     0.32038   0.17536   0.75224   0.00000  Uiso   1.00
C2061  C     0.34801   0.23113   0.72091   0.00000  Uiso   1.00
H2062  H     0.35824   0.21696   0.68770   0.00000  Uiso   1.00
H2063  H     0.31477   0.24401   0.71740   0.00000  Uiso   1.00
C2064  C     0.37781   0.26792   0.73275   0.00000  Uiso   1.00
H2065  H     0.36955   0.28084   0.76713   0.00000  Uiso   1.00
H2066  H     0.37463   0.29381   0.70635   0.00000  Uiso   1.00
H2067  H     0.41144   0.25661   0.73327   0.00000  Uiso   1.00
O2068  O     0.07182   0.36626   0.90742   0.00000  Uiso   1.00
C2069  C     0.03638   0.39303   0.89582   0.00000  Uiso   1.00
H2070  H     0.00719   0.37286   0.89094   0.00000  Uiso   1.00
H2071  H     0.03989   0.41264   0.86329   0.00000  Uiso   1.00
C2072  C     0.03025   0.42410   0.93494   0.00000  Uiso   1.00
H2073  H     0.06195   0.43751   0.94477   0.00000  Uiso   1.00
H2074  H     0.01026   0.45132   0.92316   0.00000  Uiso   1.00
C2075  C     0.00953   0.40154   0.97593   0.00000  Uiso   1.00
H2076  H     0.47913   0.38592   0.96488   0.00000  Uiso   1.00
H2077  H     0.00232   0.42566   0.66914   0.00000  Uiso   1.00
H2078  H     0.03155   0.37674   0.99068   0.00000  Uiso   1.00
O2079  O     0.11990   0.32221   0.75621   0.00000  Uiso   1.00
C2080  C     0.14443   0.28619   0.77199   0.00000  Uiso   1.00
H2081  H     0.12445   0.26426   0.79363   0.00000  Uiso   1.00
H2082  H     0.17302   0.29602   0.79301   0.00000  Uiso   1.00
C2083  C     0.16150   0.26085   0.73128   0.00000  Uiso   1.00
H2084  H     0.18326   0.28177   0.71090   0.00000  Uiso   1.00
H2085  H     0.18066   0.23317   0.74483   0.00000  Uiso   1.00
C2086  C     0.12540   0.24423   0.70036   0.00000  Uiso   1.00
H2087  H     0.09988   0.22845   0.72125   0.00000  Uiso   1.00
H2088  H     0.13862   0.22011   0.67641   0.00000  Uiso   1.00
H2089  H     0.11146   0.27120   0.67964   0.00000  Uiso   1.00
O2090  O     0.42773   0.13420   0.91457   0.00000  Uiso   1.00
C2091  C     0.47055   0.11842   0.91125   0.00000  Uiso   1.00
H2092  H     0.49164   0.14243   0.89438   0.00000  Uiso   1.00
H2093  H     0.47284   0.08937   0.88962   0.00000  Uiso   1.00
C2094  C     0.48817   0.10797   0.96005   0.00000  Uiso   1.00
H2095  H     0.46727   0.12226   0.98690   0.00000  Uiso   1.00
H2096  H     0.48841   0.07266   0.96548   0.00000  Uiso   1.00
C2097  C     0.03404   0.12414   0.96757   0.00000  Uiso   1.00
H2098  H     0.05591   0.10973   0.94223   0.00000  Uiso   1.00
H2099  H     0.04548   0.11463   0.66925   0.00000  Uiso   1.00
H2100  H     0.03574   0.15966   0.96408   0.00000  Uiso   1.00
O2101  O     0.11309   0.16787   0.91277   0.00000  Uiso   1.00
C2102  C     0.14026   0.20381   0.90401   0.00000  Uiso   1.00
H2103  H     0.13481   0.22736   0.93183   0.00000  Uiso   1.00
H2104  H     0.13118   0.22171   0.87175   0.00000  Uiso   1.00
C2105  C     0.18835   0.19125   0.90420   0.00000  Uiso   1.00
H2106  H     0.20659   0.21347   0.92667   0.00000  Uiso   1.00
H2107  H     0.19287   0.15830   0.91891   0.00000  Uiso   1.00
C2108  C     0.20782   0.19354   0.85575   0.00000  Uiso   1.00
H2109  H     0.18961   0.17295   0.83142   0.00000  Uiso   1.00
H2110  H     0.24171   0.18217   0.85704   0.00000  Uiso   1.00
H2111  H     0.20731   0.22731   0.84252   0.00000  Uiso   1.00
O2112  O     0.41277   0.35453   0.75099   0.00000  Uiso   1.00
C2113  C     0.42530   0.39353   0.72897   0.00000  Uiso   1.00
H2114  H     0.39722   0.41487   0.72154   0.00000  Uiso   1.00
H2115  H     0.43808   0.38504   0.69476   0.00000  Uiso   1.00
C2116  C     0.46007   0.41866   0.75604   0.00000  Uiso   1.00
H2117  H     0.47059   0.44634   0.73452   0.00000  Uiso   1.00
H2118  H     0.44633   0.43207   0.78825   0.00000  Uiso   1.00
C2119  C     0.49983   0.39179   0.76806   0.00000  Uiso   1.00
H2120  H     0.49358   0.37100   0.79856   0.00000  Uiso   1.00
H2121  H     0.02694   0.41346   0.77708   0.00000  Uiso   1.00
H2122  H     0.00950   0.37156   0.73857   0.00000  Uiso   1.00
O2123  O     0.40852   0.34875   0.91935   0.00000  Uiso   1.00
C2124  C     0.38480   0.31089   0.92967   0.00000  Uiso   1.00
H2125  H     0.40295   0.29242   0.95660   0.00000  Uiso   1.00
H2126  H     0.38167   0.28908   0.89943   0.00000  Uiso   1.00
C2127  C     0.33974   0.32051   0.94817   0.00000  Uiso   1.00
H2128  H     0.34231   0.33457   0.98320   0.00000  Uiso   1.00
H2129  H     0.32247   0.34410   0.92564   0.00000  Uiso   1.00
C2130  C     0.31362   0.27891   0.94949   0.00000  Uiso   1.00
H2131  H     0.29608   0.27483   0.91623   0.00000  Uiso   1.00
H2132  H     0.29046   0.27902   0.97824   0.00000  Uiso   1.00
H2133  H     0.33494   0.25063   0.95473   0.00000  Uiso   1.00
O2134  O     0.06701   0.13181   0.75606   0.00000  Uiso   1.00
C2135  C     0.02587   0.11496   0.76750   0.00000  Uiso   1.00
H2136  H     0.00173   0.12978   0.74367   0.00000  Uiso   1.00
H2137  H     0.01519   0.12363   0.80292   0.00000  Uiso   1.00
C2138  C     0.02454   0.06601   0.76145   0.00000  Uiso   1.00
H2139  H     0.01720   0.05851   0.72476   0.00000  Uiso   1.00
H2140  H     0.05632   0.05178   0.77045   0.00000  Uiso   1.00
C2141  C     0.49082   0.04528   0.79268   0.00000  Uiso   1.00
H2142  H     0.00002   0.04984   0.82933   0.00000  Uiso   1.00
H2143  H     0.48901   0.01020   0.78607   0.00000  Uiso   1.00
H2144  H     0.45872   0.06006   0.78690   0.00000  Uiso   1.00
O2145  O     0.15403   0.40466   0.74713   0.00000  Uiso   1.00
C2146  C     0.13376   0.44520   0.73906   0.00000  Uiso   1.00
H2147  H     0.15827   0.46807   0.72571   0.00000  Uiso   1.00
H2148  H     0.11989   0.46013   0.77067   0.00000  Uiso   1.00
C2149  C     0.09891   0.44188   0.70216   0.00000  Uiso   1.00
H2150  H     0.11443   0.43744   0.66804   0.00000  Uiso   1.00
H2151  H     0.07824   0.41358   0.70974   0.00000  Uiso   1.00
C2152  C     0.07147   0.48284   0.70139   0.00000  Uiso   1.00
H2153  H     0.05052   0.48289   0.73232   0.00000  Uiso   1.00
H2154  H     0.05065   0.48461   0.67026   0.00000  Uiso   1.00
H2155  H     0.09215   0.01202   0.70152   0.00000  Uiso   1.00
O2156  O     0.35545   0.08589   0.91838   0.00000  Uiso   1.00
C2157  C     0.31772   0.10846   0.93134   0.00000  Uiso   1.00
H2158  H     0.29761   0.08606   0.95231   0.00000  Uiso   1.00
H2159  H     0.29733   0.11886   0.90120   0.00000  Uiso   1.00
C2160  C     0.32752   0.14771   0.96085   0.00000  Uiso   1.00
H2161  H     0.33727   0.13705   0.99621   0.00000  Uiso   1.00
H2162  H     0.35399   0.16708   0.94555   0.00000  Uiso   1.00
C2163  C     0.28717   0.17561   0.96332   0.00000  Uiso   1.00
H2164  H     0.28359   0.19469   0.93082   0.00000  Uiso   1.00
H2165  H     0.28853   0.19750   0.99312   0.00000  Uiso   1.00
H2166  H     0.25831   0.15512   0.96710   0.00000  Uiso   1.00
O2167  O     0.34417   0.09674   0.74871   0.00000  Uiso   1.00
C2168  C     0.36211   0.05737   0.73373   0.00000  Uiso   1.00
H2169  H     0.33752   0.04104   0.71215   0.00000  Uiso   1.00
H2170  H     0.36986   0.03464   0.76292   0.00000  Uiso   1.00
C2171  C     0.40191   0.06452   0.70385   0.00000  Uiso   1.00
H2172  H     0.39255   0.07940   0.67015   0.00000  Uiso   1.00
H2173  H     0.42478   0.08651   0.72131   0.00000  Uiso   1.00
C2174  C     0.42368   0.02126   0.69567   0.00000  Uiso   1.00
H2175  H     0.43119   0.00569   0.72936   0.00000  Uiso   1.00
H2176  H     0.45411   0.02536   0.67656   0.00000  Uiso   1.00
H2177  H     0.40187   0.49980   0.67609   0.00000  Uiso   1.00
O2178  O     0.14909   0.40774   0.91686   0.00000  Uiso   1.00
C2179  C     0.18366   0.38111   0.93180   0.00000  Uiso   1.00
H2180  H     0.20090   0.39828   0.95974   0.00000  Uiso   1.00
H2181  H     0.20799   0.37645   0.90401   0.00000  Uiso   1.00
C2182  C     0.16813   0.33722   0.95081   0.00000  Uiso   1.00
H2183  H     0.15435   0.34127   0.98587   0.00000  Uiso   1.00
H2184  H     0.14288   0.32282   0.92883   0.00000  Uiso   1.00
C2185  C     0.20508   0.30514   0.95235   0.00000  Uiso   1.00
H2186  H     0.21673   0.29882   0.91680   0.00000  Uiso   1.00
H2187  H     0.19416   0.27432   0.96783   0.00000  Uiso   1.00
H2188  H     0.23168   0.31823   0.97332   0.00000  Uiso   1.00
O2189  O     0.36285   0.42311   0.91568   0.00000  Uiso   1.00
C2190  C     0.37871   0.46568   0.91046   0.00000  Uiso   1.00
H2191  H     0.36464   0.48563   0.93816   0.00000  Uiso   1.00
H2192  H     0.36912   0.48145   0.87720   0.00000  Uiso   1.00
C2193  C     0.42742   0.46707   0.91484   0.00000  Uiso   1.00
H2194  H     0.43708   0.45679   0.95034   0.00000  Uiso   1.00
H2195  H     0.44220   0.44510   0.88934   0.00000  Uiso   1.00
C2196  C     0.44302   0.01257   0.90501   0.00000  Uiso   1.00
H2197  H     0.43447   0.02229   0.86900   0.00000  Uiso   1.00
H2198  H     0.47835   0.01448   0.90919   0.00000  Uiso   1.00
H2199  H     0.42771   0.03533   0.92920   0.00000  Uiso   1.00
O2200  O     0.15051   0.09454   0.74838   0.00000  Uiso   1.00
C2201  C     0.15321   0.13272   0.72061   0.00000  Uiso   1.00
H2202  H     0.14815   0.16308   0.74006   0.00000  Uiso   1.00
H2203  H     0.12841   0.13123   0.69279   0.00000  Uiso   1.00
C2204  C     0.19719   0.13708   0.69800   0.00000  Uiso   1.00
H2205  H     0.20264   0.11015   0.67407   0.00000  Uiso   1.00
H2206  H     0.19724   0.16722   0.67687   0.00000  Uiso   1.00
C2207  C     0.23367   0.13958   0.73355   0.00000  Uiso   1.00
H2208  H     0.23198   0.17038   0.75259   0.00000  Uiso   1.00
H2209  H     0.26500   0.13766   0.71567   0.00000  Uiso   1.00
H2210  H     0.23237   0.11247   0.75864   0.00000  Uiso   1.00
O2211  O     0.14125   0.08355   0.91762   0.00000  Uiso   1.00
C2212  C     0.12159   0.04201   0.92134   0.00000  Uiso   1.00
H2213  H     0.11655   0.03603   0.95886   0.00000  Uiso   1.00
H2214  H     0.14459   0.01643   0.91162   0.00000  Uiso   1.00
C2215  C     0.07739   0.03515   0.89694   0.00000  Uiso   1.00
H2216  H     0.05402   0.02325   0.92305   0.00000  Uiso   1.00
H2217  H     0.06345   0.06506   0.88183   0.00000  Uiso   1.00
C2218  C     0.08054   0.00148   0.85901   0.00000  Uiso   1.00
H2219  H     0.10040   0.01371   0.82996   0.00000  Uiso   1.00
H2220  H     0.04806   0.49332   0.84582   0.00000  Uiso   1.00
H2221  H     0.09521   0.47154   0.87302   0.00000  Uiso   1.00
O2222  O     0.32527   0.38137   0.75901   0.00000  Uiso   1.00
C2223  C     0.29442   0.35120   0.77536   0.00000  Uiso   1.00
H2224  H     0.27377   0.36570   0.80244   0.00000  Uiso   1.00
H2225  H     0.30987   0.32173   0.79050   0.00000  Uiso   1.00
C2226  C     0.26545   0.33668   0.73612   0.00000  Uiso   1.00
H2227  H     0.28475   0.31876   0.71065   0.00000  Uiso   1.00
H2228  H     0.24102   0.31439   0.75073   0.00000  Uiso   1.00
C2229  C     0.24306   0.37464   0.71233   0.00000  Uiso   1.00
H2230  H     0.23787   0.40151   0.73653   0.00000  Uiso   1.00
H2231  H     0.21122   0.36428   0.69952   0.00000  Uiso   1.00
H2232  H     0.26267   0.38619   0.68272   0.00000  Uiso   1.00
O2233  O     0.54508   0.20491   0.87291   0.00000  Uiso   1.00
O2234  O     0.95491   0.29509   0.79375   0.00000  Uiso   1.00
O2235  O     0.95491   0.29509   0.87291   0.00000  Uiso   1.00
O2236  O     0.54508   0.20491   0.79375   0.00000  Uiso   1.00
O2237  O     0.95491   0.20491   0.79375   0.00000  Uiso   1.00
O2238  O     0.54508   0.29509   0.87291   0.00000  Uiso   1.00
O2239  O     0.54508   0.29509   0.79375   0.00000  Uiso   1.00
O2240  O     0.95491   0.20491   0.87291   0.00000  Uiso   1.00
O2241  O     0.79508   0.45491   0.87291   0.00000  Uiso   1.00
O2242  O     0.70491   0.04509   0.79375   0.00000  Uiso   1.00
O2243  O     0.70491   0.04509   0.87291   0.00000  Uiso   1.00
O2244  O     0.79508   0.45491   0.79375   0.00000  Uiso   1.00
O2245  O     0.70491   0.45491   0.79375   0.00000  Uiso   1.00
O2246  O     0.79508   0.04509   0.87291   0.00000  Uiso   1.00
O2247  O     0.79508   0.04509   0.79375   0.00000  Uiso   1.00
O2248  O     0.70491   0.45491   0.87291   0.00000  Uiso   1.00
C2249  C     0.55854   0.18988   0.83359   0.00000  Uiso   1.00
C2250  C     0.94160   0.31054   0.83338   0.00000  Uiso   1.00
C2251  C     0.94175   0.18955   0.83344   0.00000  Uiso   1.00
C2252  C     0.55964   0.30903   0.83302   0.00000  Uiso   1.00
C2253  C     0.80945   0.44075   0.83366   0.00000  Uiso   1.00
C2254  C     0.68879   0.05778   0.83306   0.00000  Uiso   1.00
C2255  C     0.69025   0.44078   0.83323   0.00000  Uiso   1.00
C2256  C     0.81094   0.05799   0.83336   0.00000  Uiso   1.00
H2257  H     0.95927   0.19535   0.70939   0.00000  Uiso   1.00
H2258  H     0.54173   0.30376   0.95721   0.00000  Uiso   1.00
H2259  H     0.54052   0.30474   0.70871   0.00000  Uiso   1.00
H2260  H     0.95644   0.19791   0.95810   0.00000  Uiso   1.00
H2261  H     0.80119   0.45486   0.70986   0.00000  Uiso   1.00
H2262  H     0.70173   0.04766   0.95713   0.00000  Uiso   1.00
H2263  H     0.69836   0.04374   0.70838   0.00000  Uiso   1.00
H2264  H     0.79843   0.45219   0.95865   0.00000  Uiso   1.00
N2265  N     0.50000   0.25000   0.95069   0.00000  Uiso   1.00
N2266  N     0.50000   0.25000   0.71598   0.00000  Uiso   1.00
N2267  N     0.75000   0.00000   0.95069   0.00000  Uiso   1.00
N2268  N     0.75000  -0.00000   0.71598   0.00000  Uiso   1.00
Cu2269 Cu    0.50000   0.25000   0.88022   0.00000  Uiso   1.00
Cu2270 Cu    0.50000   0.25000   0.78645   0.00000  Uiso   1.00
Cu2271 Cu    0.75000   0.00000   0.88022   0.00000  Uiso   1.00
Cu2272 Cu    0.75000   0.00000   0.78645   0.00000  Uiso   1.00
C2273  C     0.97737   0.21997   0.69145   0.00000  Uiso   1.00
C2274  C     0.52288   0.27985   0.97519   0.00000  Uiso   1.00
C2275  C     0.52232   0.28028   0.69103   0.00000  Uiso   1.00
C2276  C     0.97623   0.22094   0.97568   0.00000  Uiso   1.00
C2277  C     0.77812   0.47496   0.69173   0.00000  Uiso   1.00
C2278  C     0.72281   0.02579   0.97507   0.00000  Uiso   1.00
C2279  C     0.72186   0.02474   0.69080   0.00000  Uiso   1.00
C2280  C     0.77724   0.47405   0.97594   0.00000  Uiso   1.00
C2281  C     0.88787   0.14388   0.79306   0.00000  Uiso   1.00
C2282  C     0.60003   0.36748   0.87113   0.00000  Uiso   1.00
C2283  C     0.61755   0.35109   0.79216   0.00000  Uiso   1.00
C2284  C     0.90493   0.12760   0.87375   0.00000  Uiso   1.00
C2285  C     0.61223   0.14216   0.87402   0.00000  Uiso   1.00
C2286  C     0.89327   0.36326   0.79266   0.00000  Uiso   1.00
C2287  C     0.89577   0.36448   0.87641   0.00000  Uiso   1.00
C2288  C     0.59438   0.12835   0.79411   0.00000  Uiso   1.00
C2289  C     0.64249   0.38855   0.79023   0.00000  Uiso   1.00
C2290  C     0.86889   0.10048   0.87531   0.00000  Uiso   1.00
C2291  C     0.86156   0.10759   0.79134   0.00000  Uiso   1.00
C2292  C     0.63587   0.39408   0.87374   0.00000  Uiso   1.00
C2293  C     0.86891   0.40066   0.87511   0.00000  Uiso   1.00
C2294  C     0.63229   0.10339   0.79105   0.00000  Uiso   1.00
C2295  C     0.63462   0.10318   0.87495   0.00000  Uiso   1.00
C2296  C     0.85499   0.38671   0.79415   0.00000  Uiso   1.00
C2297  C     0.59298   0.34255   0.83202   0.00000  Uiso   1.00
C2298  C     0.91170   0.15291   0.83342   0.00000  Uiso   1.00
C2299  C     0.91005   0.34634   0.83421   0.00000  Uiso   1.00
C2300  C     0.58879   0.15342   0.83395   0.00000  Uiso   1.00
C2301  C     0.84772   0.08853   0.83341   0.00000  Uiso   1.00
C2302  C     0.65608   0.40759   0.83246   0.00000  Uiso   1.00
C2303  C     0.65139   0.08772   0.83279   0.00000  Uiso   1.00
C2304  C     0.84486   0.40931   0.83445   0.00000  Uiso   1.00
O2305  O     0.88736   0.17247   0.75605   0.00000  Uiso   1.00
C2306  C     0.84863   0.19642   0.75840   0.00000  Uiso   1.00
H2307  H     0.84464   0.21173   0.79290   0.00000  Uiso   1.00
H2308  H     0.82038   0.17536   0.75224   0.00000  Uiso   1.00
C2309  C     0.84801   0.23113   0.72091   0.00000  Uiso   1.00
H2310  H     0.85824   0.21696   0.68770   0.00000  Uiso   1.00
H2311  H     0.81477   0.24401   0.71740   0.00000  Uiso   1.00
C2312  C     0.87781   0.26792   0.73275   0.00000  Uiso   1.00
H2313  H     0.86955   0.28084   0.76713   0.00000  Uiso   1.00
H2314  H     0.87463   0.29381   0.70635   0.00000  Uiso   1.00
H2315  H     0.91144   0.25661   0.73327   0.00000  Uiso   1.00
O2316  O     0.57182   0.36626   0.90742   0.00000  Uiso   1.00
C2317  C     0.53638   0.39303   0.89582   0.00000  Uiso   1.00
H2318  H     0.50719   0.37286   0.89094   0.00000  Uiso   1.00
H2319  H     0.53989   0.41264   0.86329   0.00000  Uiso   1.00
C2320  C     0.53025   0.42410   0.93494   0.00000  Uiso   1.00
H2321  H     0.56195   0.43751   0.94477   0.00000  Uiso   1.00
H2322  H     0.51026   0.45132   0.92316   0.00000  Uiso   1.00
C2323  C     0.50953   0.40154   0.97593   0.00000  Uiso   1.00
H2324  H     0.97913   0.38592   0.96488   0.00000  Uiso   1.00
H2325  H     0.50232   0.42566   0.66914   0.00000  Uiso   1.00
H2326  H     0.53155   0.37674   0.99068   0.00000  Uiso   1.00
O2327  O     0.61990   0.32221   0.75621   0.00000  Uiso   1.00
C2328  C     0.64443   0.28619   0.77199   0.00000  Uiso   1.00
H2329  H     0.62445   0.26426   0.79363   0.00000  Uiso   1.00
H2330  H     0.67302   0.29602   0.79301   0.00000  Uiso   1.00
C2331  C     0.66150   0.26085   0.73128   0.00000  Uiso   1.00
H2332  H     0.68326   0.28177   0.71090   0.00000  Uiso   1.00
H2333  H     0.68066   0.23317   0.74483   0.00000  Uiso   1.00
C2334  C     0.62540   0.24423   0.70036   0.00000  Uiso   1.00
H2335  H     0.59988   0.22845   0.72125   0.00000  Uiso   1.00
H2336  H     0.63862   0.22011   0.67641   0.00000  Uiso   1.00
H2337  H     0.61146   0.27120   0.67964   0.00000  Uiso   1.00
O2338  O     0.92773   0.13420   0.91457   0.00000  Uiso   1.00
C2339  C     0.97055   0.11842   0.91125   0.00000  Uiso   1.00
H2340  H     0.99164   0.14243   0.89438   0.00000  Uiso   1.00
H2341  H     0.97284   0.08937   0.88962   0.00000  Uiso   1.00
C2342  C     0.98817   0.10797   0.96005   0.00000  Uiso   1.00
H2343  H     0.96727   0.12226   0.98690   0.00000  Uiso   1.00
H2344  H     0.98841   0.07266   0.96548   0.00000  Uiso   1.00
C2345  C     0.53404   0.12414   0.96757   0.00000  Uiso   1.00
H2346  H     0.55591   0.10973   0.94223   0.00000  Uiso   1.00
H2347  H     0.54548   0.11463   0.66925   0.00000  Uiso   1.00
H2348  H     0.53574   0.15966   0.96408   0.00000  Uiso   1.00
O2349  O     0.61309   0.16787   0.91277   0.00000  Uiso   1.00
C2350  C     0.64026   0.20381   0.90401   0.00000  Uiso   1.00
H2351  H     0.63481   0.22736   0.93183   0.00000  Uiso   1.00
H2352  H     0.63118   0.22171   0.87175   0.00000  Uiso   1.00
C2353  C     0.68835   0.19125   0.90420   0.00000  Uiso   1.00
H2354  H     0.70659   0.21347   0.92667   0.00000  Uiso   1.00
H2355  H     0.69287   0.15830   0.91891   0.00000  Uiso   1.00
C2356  C     0.70782   0.19354   0.85575   0.00000  Uiso   1.00
H2357  H     0.68961   0.17295   0.83142   0.00000  Uiso   1.00
H2358  H     0.74171   0.18217   0.85704   0.00000  Uiso   1.00
H2359  H     0.70731   0.22731   0.84252   0.00000  Uiso   1.00
O2360  O     0.91277   0.35453   0.75099   0.00000  Uiso   1.00
C2361  C     0.92530   0.39353   0.72897   0.00000  Uiso   1.00
H2362  H     0.89722   0.41487   0.72154   0.00000  Uiso   1.00
H2363  H     0.93808   0.38504   0.69476   0.00000  Uiso   1.00
C2364  C     0.96007   0.41866   0.75604   0.00000  Uiso   1.00
H2365  H     0.97059   0.44634   0.73452   0.00000  Uiso   1.00
H2366  H     0.94633   0.43207   0.78825   0.00000  Uiso   1.00
C2367  C     0.99983   0.39179   0.76806   0.00000  Uiso   1.00
H2368  H     0.99358   0.37100   0.79856   0.00000  Uiso   1.00
H2369  H     0.52694   0.41346   0.77708   0.00000  Uiso   1.00
H2370  H     0.50950   0.37156   0.73857   0.00000  Uiso   1.00
O2371  O     0.90852   0.34875   0.91935   0.00000  Uiso   1.00
C2372  C     0.88480   0.31089   0.92967   0.00000  Uiso   1.00
H2373  H     0.90295   0.29242   0.95660   0.00000  Uiso   1.00
H2374  H     0.88167   0.28908   0.89943   0.00000  Uiso   1.00
C2375  C     0.83974   0.32051   0.94817   0.00000  Uiso   1.00
H2376  H     0.84231   0.33457   0.98320   0.00000  Uiso   1.00
H2377  H     0.82247   0.34410   0.92564   0.00000  Uiso   1.00
C2378  C     0.81362   0.27891   0.94949   0.00000  Uiso   1.00
H2379  H     0.79608   0.27483   0.91623   0.00000  Uiso   1.00
H2380  H     0.79046   0.27902   0.97824   0.00000  Uiso   1.00
H2381  H     0.83494   0.25063   0.95473   0.00000  Uiso   1.00
O2382  O     0.56701   0.13181   0.75606   0.00000  Uiso   1.00
C2383  C     0.52587   0.11496   0.76750   0.00000  Uiso   1.00
H2384  H     0.50173   0.12978   0.74367   0.00000  Uiso   1.00
H2385  H     0.51519   0.12363   0.80292   0.00000  Uiso   1.00
C2386  C     0.52454   0.06601   0.76145   0.00000  Uiso   1.00
H2387  H     0.51720   0.05851   0.72476   0.00000  Uiso   1.00
H2388  H     0.55632   0.05178   0.77045   0.00000  Uiso   1.00
C2389  C     0.99082   0.04528   0.79268   0.00000  Uiso   1.00
H2390  H     0.50002   0.04984   0.82933   0.00000  Uiso   1.00
H2391  H     0.98901   0.01020   0.78607   0.00000  Uiso   1.00
H2392  H     0.95872   0.06006   0.78690   0.00000  Uiso   1.00
O2393  O     0.65403   0.40466   0.74713   0.00000  Uiso   1.00
C2394  C     0.63376   0.44520   0.73906   0.00000  Uiso   1.00
H2395  H     0.65827   0.46807   0.72571   0.00000  Uiso   1.00
H2396  H     0.61989   0.46013   0.77067   0.00000  Uiso   1.00
C2397  C     0.59891   0.44188   0.70216   0.00000  Uiso   1.00
H2398  H     0.61443   0.43744   0.66804   0.00000  Uiso   1.00
H2399  H     0.57824   0.41358   0.70974   0.00000  Uiso   1.00
C2400  C     0.57147   0.48284   0.70139   0.00000  Uiso   1.00
H2401  H     0.55052   0.48289   0.73232   0.00000  Uiso   1.00
H2402  H     0.55065   0.48461   0.67026   0.00000  Uiso   1.00
H2403  H     0.59215   0.01202   0.70152   0.00000  Uiso   1.00
O2404  O     0.85545   0.08589   0.91838   0.00000  Uiso   1.00
C2405  C     0.81772   0.10846   0.93134   0.00000  Uiso   1.00
H2406  H     0.79761   0.08606   0.95231   0.00000  Uiso   1.00
H2407  H     0.79733   0.11886   0.90120   0.00000  Uiso   1.00
C2408  C     0.82752   0.14771   0.96085   0.00000  Uiso   1.00
H2409  H     0.83727   0.13705   0.99621   0.00000  Uiso   1.00
H2410  H     0.85399   0.16708   0.94555   0.00000  Uiso   1.00
C2411  C     0.78717   0.17561   0.96332   0.00000  Uiso   1.00
H2412  H     0.78359   0.19469   0.93082   0.00000  Uiso   1.00
H2413  H     0.78853   0.19750   0.99312   0.00000  Uiso   1.00
H2414  H     0.75831   0.15512   0.96710   0.00000  Uiso   1.00
O2415  O     0.84417   0.09674   0.74871   0.00000  Uiso   1.00
C2416  C     0.86211   0.05737   0.73373   0.00000  Uiso   1.00
H2417  H     0.83752   0.04104   0.71215   0.00000  Uiso   1.00
H2418  H     0.86986   0.03464   0.76292   0.00000  Uiso   1.00
C2419  C     0.90191   0.06452   0.70385   0.00000  Uiso   1.00
H2420  H     0.89255   0.07940   0.67015   0.00000  Uiso   1.00
H2421  H     0.92478   0.08651   0.72131   0.00000  Uiso   1.00
C2422  C     0.92368   0.02126   0.69567   0.00000  Uiso   1.00
H2423  H     0.93119   0.00569   0.72936   0.00000  Uiso   1.00
H2424  H     0.95411   0.02536   0.67656   0.00000  Uiso   1.00
H2425  H     0.90187   0.49980   0.67609   0.00000  Uiso   1.00
O2426  O     0.64909   0.40774   0.91686   0.00000  Uiso   1.00
C2427  C     0.68366   0.38111   0.93180   0.00000  Uiso   1.00
H2428  H     0.70090   0.39828   0.95974   0.00000  Uiso   1.00
H2429  H     0.70799   0.37645   0.90401   0.00000  Uiso   1.00
C2430  C     0.66813   0.33722   0.95081   0.00000  Uiso   1.00
H2431  H     0.65435   0.34127   0.98587   0.00000  Uiso   1.00
H2432  H     0.64288   0.32282   0.92883   0.00000  Uiso   1.00
C2433  C     0.70508   0.30514   0.95235   0.00000  Uiso   1.00
H2434  H     0.71673   0.29882   0.91680   0.00000  Uiso   1.00
H2435  H     0.69416   0.27432   0.96783   0.00000  Uiso   1.00
H2436  H     0.73168   0.31823   0.97332   0.00000  Uiso   1.00
O2437  O     0.86285   0.42311   0.91568   0.00000  Uiso   1.00
C2438  C     0.87871   0.46568   0.91046   0.00000  Uiso   1.00
H2439  H     0.86464   0.48563   0.93816   0.00000  Uiso   1.00
H2440  H     0.86912   0.48145   0.87720   0.00000  Uiso   1.00
C2441  C     0.92742   0.46707   0.91484   0.00000  Uiso   1.00
H2442  H     0.93708   0.45679   0.95034   0.00000  Uiso   1.00
H2443  H     0.94220   0.44510   0.88934   0.00000  Uiso   1.00
C2444  C     0.94302   0.01257   0.90501   0.00000  Uiso   1.00
H2445  H     0.93447   0.02229   0.86900   0.00000  Uiso   1.00
H2446  H     0.97835   0.01448   0.90919   0.00000  Uiso   1.00
H2447  H     0.92771   0.03533   0.92920   0.00000  Uiso   1.00
O2448  O     0.65051   0.09454   0.74838   0.00000  Uiso   1.00
C2449  C     0.65321   0.13272   0.72061   0.00000  Uiso   1.00
H2450  H     0.64815   0.16308   0.74006   0.00000  Uiso   1.00
H2451  H     0.62841   0.13123   0.69279   0.00000  Uiso   1.00
C2452  C     0.69719   0.13708   0.69800   0.00000  Uiso   1.00
H2453  H     0.70264   0.11015   0.67407   0.00000  Uiso   1.00
H2454  H     0.69724   0.16722   0.67687   0.00000  Uiso   1.00
C2455  C     0.73367   0.13958   0.73355   0.00000  Uiso   1.00
H2456  H     0.73198   0.17038   0.75259   0.00000  Uiso   1.00
H2457  H     0.76500   0.13766   0.71567   0.00000  Uiso   1.00
H2458  H     0.73237   0.11247   0.75864   0.00000  Uiso   1.00
O2459  O     0.64125   0.08355   0.91762   0.00000  Uiso   1.00
C2460  C     0.62159   0.04201   0.92134   0.00000  Uiso   1.00
H2461  H     0.61655   0.03603   0.95886   0.00000  Uiso   1.00
H2462  H     0.64459   0.01643   0.91162   0.00000  Uiso   1.00
C2463  C     0.57739   0.03515   0.89694   0.00000  Uiso   1.00
H2464  H     0.55402   0.02325   0.92305   0.00000  Uiso   1.00
H2465  H     0.56345   0.06506   0.88183   0.00000  Uiso   1.00
C2466  C     0.58054   0.00148   0.85901   0.00000  Uiso   1.00
H2467  H     0.60040   0.01371   0.82996   0.00000  Uiso   1.00
H2468  H     0.54806   0.49332   0.84582   0.00000  Uiso   1.00
H2469  H     0.59521   0.47154   0.87302   0.00000  Uiso   1.00
O2470  O     0.82527   0.38137   0.75901   0.00000  Uiso   1.00
C2471  C     0.79442   0.35120   0.77536   0.00000  Uiso   1.00
H2472  H     0.77377   0.36570   0.80244   0.00000  Uiso   1.00
H2473  H     0.80987   0.32173   0.79050   0.00000  Uiso   1.00
C2474  C     0.76545   0.33668   0.73612   0.00000  Uiso   1.00
H2475  H     0.78475   0.31876   0.71065   0.00000  Uiso   1.00
H2476  H     0.74102   0.31439   0.75073   0.00000  Uiso   1.00
C2477  C     0.74306   0.37464   0.71233   0.00000  Uiso   1.00
H2478  H     0.73787   0.40151   0.73653   0.00000  Uiso   1.00
H2479  H     0.71122   0.36428   0.69952   0.00000  Uiso   1.00
H2480  H     0.76267   0.38619   0.68272   0.00000  Uiso   1.00
O2481  O     0.04508   0.70491   0.87291   0.00000  Uiso   1.00
O2482  O     0.45491   0.79509   0.79375   0.00000  Uiso   1.00
O2483  O     0.45491   0.79509   0.87291   0.00000  Uiso   1.00
O2484  O     0.04508   0.70491   0.79375   0.00000  Uiso   1.00
O2485  O     0.45491   0.70491   0.79375   0.00000  Uiso   1.00
O2486  O     0.04508   0.79509   0.87291   0.00000  Uiso   1.00
O2487  O     0.04508   0.79509   0.79375   0.00000  Uiso   1.00
O2488  O     0.45491   0.70491   0.87291   0.00000  Uiso   1.00
O2489  O     0.29508   0.95491   0.87291   0.00000  Uiso   1.00
O2490  O     0.20491   0.54509   0.79375   0.00000  Uiso   1.00
O2491  O     0.20491   0.54509   0.87291   0.00000  Uiso   1.00
O2492  O     0.29508   0.95491   0.79375   0.00000  Uiso   1.00
O2493  O     0.20491   0.95491   0.79375   0.00000  Uiso   1.00
O2494  O     0.29508   0.54509   0.87291   0.00000  Uiso   1.00
O2495  O     0.29508   0.54509   0.79375   0.00000  Uiso   1.00
O2496  O     0.20491   0.95491   0.87291   0.00000  Uiso   1.00
C2497  C     0.05854   0.68988   0.83359   0.00000  Uiso   1.00
C2498  C     0.44160   0.81054   0.83338   0.00000  Uiso   1.00
C2499  C     0.44175   0.68955   0.83344   0.00000  Uiso   1.00
C2500  C     0.05964   0.80903   0.83302   0.00000  Uiso   1.00
C2501  C     0.30945   0.94075   0.83366   0.00000  Uiso   1.00
C2502  C     0.18879   0.55778   0.83306   0.00000  Uiso   1.00
C2503  C     0.19025   0.94078   0.83323   0.00000  Uiso   1.00
C2504  C     0.31094   0.55799   0.83336   0.00000  Uiso   1.00
H2505  H     0.45927   0.69535   0.70939   0.00000  Uiso   1.00
H2506  H     0.04173   0.80376   0.95721   0.00000  Uiso   1.00
H2507  H     0.04052   0.80474   0.70871   0.00000  Uiso   1.00
H2508  H     0.45644   0.69791   0.95810   0.00000  Uiso   1.00
H2509  H     0.30119   0.95486   0.70986   0.00000  Uiso   1.00
H2510  H     0.20173   0.54766   0.95713   0.00000  Uiso   1.00
H2511  H     0.19836   0.54374   0.70838   0.00000  Uiso   1.00
H2512  H     0.29843   0.95219   0.95865   0.00000  Uiso   1.00
N2513  N    -0.00000   0.75000   0.95069   0.00000  Uiso   1.00
N2514  N     0.00000   0.75000   0.71598   0.00000  Uiso   1.00
N2515  N     0.25000   0.50000   0.95069   0.00000  Uiso   1.00
N2516  N     0.25000   0.50000   0.71598   0.00000  Uiso   1.00
Cu2517 Cu    0.00000   0.75000   0.88022   0.00000  Uiso   1.00
Cu2518 Cu    0.00000   0.75000   0.78645   0.00000  Uiso   1.00
Cu2519 Cu    0.25000   0.50000   0.88022   0.00000  Uiso   1.00
Cu2520 Cu    0.25000   0.50000   0.78645   0.00000  Uiso   1.00
C2521  C     0.47737   0.71997   0.69145   0.00000  Uiso   1.00
C2522  C     0.02288   0.77985   0.97519   0.00000  Uiso   1.00
C2523  C     0.02232   0.78028   0.69103   0.00000  Uiso   1.00
C2524  C     0.47623   0.72094   0.97568   0.00000  Uiso   1.00
C2525  C     0.27812   0.97496   0.69173   0.00000  Uiso   1.00
C2526  C     0.22281   0.52579   0.97507   0.00000  Uiso   1.00
C2527  C     0.22186   0.52474   0.69080   0.00000  Uiso   1.00
C2528  C     0.27724   0.97405   0.97594   0.00000  Uiso   1.00
C2529  C     0.38787   0.64388   0.79306   0.00000  Uiso   1.00
C2530  C     0.10003   0.86748   0.87113   0.00000  Uiso   1.00
C2531  C     0.11755   0.85109   0.79216   0.00000  Uiso   1.00
C2532  C     0.40493   0.62760   0.87375   0.00000  Uiso   1.00
C2533  C     0.11223   0.64216   0.87402   0.00000  Uiso   1.00
C2534  C     0.39327   0.86326   0.79266   0.00000  Uiso   1.00
C2535  C     0.39577   0.86448   0.87641   0.00000  Uiso   1.00
C2536  C     0.09438   0.62835   0.79411   0.00000  Uiso   1.00
C2537  C     0.14249   0.88855   0.79023   0.00000  Uiso   1.00
C2538  C     0.36889   0.60048   0.87531   0.00000  Uiso   1.00
C2539  C     0.36156   0.60759   0.79134   0.00000  Uiso   1.00
C2540  C     0.13587   0.89408   0.87374   0.00000  Uiso   1.00
C2541  C     0.36891   0.90066   0.87511   0.00000  Uiso   1.00
C2542  C     0.13229   0.60339   0.79105   0.00000  Uiso   1.00
C2543  C     0.13462   0.60318   0.87495   0.00000  Uiso   1.00
C2544  C     0.35499   0.88671   0.79415   0.00000  Uiso   1.00
C2545  C     0.09298   0.84255   0.83202   0.00000  Uiso   1.00
C2546  C     0.41170   0.65291   0.83342   0.00000  Uiso   1.00
C2547  C     0.41005   0.84634   0.83421   0.00000  Uiso   1.00
C2548  C     0.08879   0.65342   0.83395   0.00000  Uiso   1.00
C2549  C     0.34772   0.58853   0.83341   0.00000  Uiso   1.00
C2550  C     0.15608   0.90759   0.83246   0.00000  Uiso   1.00
C2551  C     0.15139   0.58772   0.83279   0.00000  Uiso   1.00
C2552  C     0.34486   0.90931   0.83445   0.00000  Uiso   1.00
O2553  O     0.38736   0.67247   0.75605   0.00000  Uiso   1.00
C2554  C     0.34863   0.69642   0.75840   0.00000  Uiso   1.00
H2555  H     0.34464   0.71173   0.79290   0.00000  Uiso   1.00
H2556  H     0.32038   0.67536   0.75224   0.00000  Uiso   1.00
C2557  C     0.34801   0.73113   0.72091   0.00000  Uiso   1.00
H2558  H     0.35824   0.71696   0.68770   0.00000  Uiso   1.00
H2559  H     0.31477   0.74401   0.71740   0.00000  Uiso   1.00
C2560  C     0.37781   0.76792   0.73275   0.00000  Uiso   1.00
H2561  H     0.36955   0.78084   0.76713   0.00000  Uiso   1.00
H2562  H     0.37463   0.79381   0.70635   0.00000  Uiso   1.00
H2563  H     0.41144   0.75661   0.73327   0.00000  Uiso   1.00
O2564  O     0.07182   0.86626   0.90742   0.00000  Uiso   1.00
C2565  C     0.03638   0.89303   0.89582   0.00000  Uiso   1.00
H2566  H     0.00719   0.87286   0.89094   0.00000  Uiso   1.00
H2567  H     0.03989   0.91264   0.86329   0.00000  Uiso   1.00
C2568  C     0.03025   0.92410   0.93494   0.00000  Uiso   1.00
H2569  H     0.06195   0.93751   0.94477   0.00000  Uiso   1.00
H2570  H     0.01026   0.95132   0.92316   0.00000  Uiso   1.00
C2571  C     0.00953   0.90154   0.97593   0.00000  Uiso   1.00
H2572  H     0.47913   0.88592   0.96488   0.00000  Uiso   1.00
H2573  H     0.00232   0.92566   0.66914   0.00000  Uiso   1.00
H2574  H     0.03155   0.87674   0.99068   0.00000  Uiso   1.00
O2575  O     0.11990   0.82221   0.75621   0.00000  Uiso   1.00
C2576  C     0.14443   0.78619   0.77199   0.00000  Uiso   1.00
H2577  H     0.12445   0.76426   0.79363   0.00000  Uiso   1.00
H2578  H     0.17302   0.79602   0.79301   0.00000  Uiso   1.00
C2579  C     0.16150   0.76085   0.73128   0.00000  Uiso   1.00
H2580  H     0.18326   0.78177   0.71090   0.00000  Uiso   1.00
H2581  H     0.18066   0.73317   0.74483   0.00000  Uiso   1.00
C2582  C     0.12540   0.74423   0.70036   0.00000  Uiso   1.00
H2583  H     0.09988   0.72845   0.72125   0.00000  Uiso   1.00
H2584  H     0.13862   0.72011   0.67641   0.00000  Uiso   1.00
H2585  H     0.11146   0.77120   0.67964   0.00000  Uiso   1.00
O2586  O     0.42773   0.63420   0.91457   0.00000  Uiso   1.00
C2587  C     0.47055   0.61842   0.91125   0.00000  Uiso   1.00
H2588  H     0.49164   0.64243   0.89438   0.00000  Uiso   1.00
H2589  H     0.47284   0.58937   0.88962   0.00000  Uiso   1.00
C2590  C     0.48817   0.60797   0.96005   0.00000  Uiso   1.00
H2591  H     0.46727   0.62226   0.98690   0.00000  Uiso   1.00
H2592  H     0.48841   0.57266   0.96548   0.00000  Uiso   1.00
C2593  C     0.03404   0.62414   0.96757   0.00000  Uiso   1.00
H2594  H     0.05591   0.60973   0.94223   0.00000  Uiso   1.00
H2595  H     0.04548   0.61463   0.66925   0.00000  Uiso   1.00
H2596  H     0.03574   0.65966   0.96408   0.00000  Uiso   1.00
O2597  O     0.11309   0.66787   0.91277   0.00000  Uiso   1.00
C2598  C     0.14026   0.70381   0.90401   0.00000  Uiso   1.00
H2599  H     0.13481   0.72736   0.93183   0.00000  Uiso   1.00
H2600  H     0.13118   0.72171   0.87175   0.00000  Uiso   1.00
C2601  C     0.18835   0.69125   0.90420   0.00000  Uiso   1.00
H2602  H     0.20659   0.71347   0.92667   0.00000  Uiso   1.00
H2603  H     0.19287   0.65830   0.91891   0.00000  Uiso   1.00
C2604  C     0.20782   0.69354   0.85575   0.00000  Uiso   1.00
H2605  H     0.18961   0.67295   0.83142   0.00000  Uiso   1.00
H2606  H     0.24171   0.68217   0.85704   0.00000  Uiso   1.00
H2607  H     0.20731   0.72731   0.84252   0.00000  Uiso   1.00
O2608  O     0.41277   0.85453   0.75099   0.00000  Uiso   1.00
C2609  C     0.42530   0.89353   0.72897   0.00000  Uiso   1.00
H2610  H     0.39722   0.91487   0.72154   0.00000  Uiso   1.00
H2611  H     0.43808   0.88504   0.69476   0.00000  Uiso   1.00
C2612  C     0.46007   0.91866   0.75604   0.00000  Uiso   1.00
H2613  H     0.47059   0.94634   0.73452   0.00000  Uiso   1.00
H2614  H     0.44633   0.93207   0.78825   0.00000  Uiso   1.00
C2615  C     0.49983   0.89179   0.76806   0.00000  Uiso   1.00
H2616  H     0.49358   0.87100   0.79856   0.00000  Uiso   1.00
H2617  H     0.02694   0.91346   0.77708   0.00000  Uiso   1.00
H2618  H     0.00950   0.87156   0.73857   0.00000  Uiso   1.00
O2619  O     0.40852   0.84875   0.91935   0.00000  Uiso   1.00
C2620  C     0.38480   0.81089   0.92967   0.00000  Uiso   1.00
H2621  H     0.40295   0.79242   0.95660   0.00000  Uiso   1.00
H2622  H     0.38167   0.78908   0.89943   0.00000  Uiso   1.00
C2623  C     0.33974   0.82051   0.94817   0.00000  Uiso   1.00
H2624  H     0.34231   0.83457   0.98320   0.00000  Uiso   1.00
H2625  H     0.32247   0.84410   0.92564   0.00000  Uiso   1.00
C2626  C     0.31362   0.77891   0.94949   0.00000  Uiso   1.00
H2627  H     0.29608   0.77483   0.91623   0.00000  Uiso   1.00
H2628  H     0.29046   0.77902   0.97824   0.00000  Uiso   1.00
H2629  H     0.33494   0.75063   0.95473   0.00000  Uiso   1.00
O2630  O     0.06701   0.63181   0.75606   0.00000  Uiso   1.00
C2631  C     0.02587   0.61496   0.76750   0.00000  Uiso   1.00
H2632  H     0.00173   0.62978   0.74367   0.00000  Uiso   1.00
H2633  H     0.01519   0.62363   0.80292   0.00000  Uiso   1.00
C2634  C     0.02454   0.56601   0.76145   0.00000  Uiso   1.00
H2635  H     0.01720   0.55851   0.72476   0.00000  Uiso   1.00
H2636  H     0.05632   0.55178   0.77045   0.00000  Uiso   1.00
C2637  C     0.49082   0.54528   0.79268   0.00000  Uiso   1.00
H2638  H     0.00002   0.54984   0.82933   0.00000  Uiso   1.00
H2639  H     0.48901   0.51020   0.78607   0.00000  Uiso   1.00
H2640  H     0.45872   0.56006   0.78690   0.00000  Uiso   1.00
O2641  O     0.15403   0.90466   0.74713   0.00000  Uiso   1.00
C2642  C     0.13376   0.94520   0.73906   0.00000  Uiso   1.00
H2643  H     0.15827   0.96807   0.72571   0.00000  Uiso   1.00
H2644  H     0.11989   0.96013   0.77067   0.00000  Uiso   1.00
C2645  C     0.09891   0.94188   0.70216   0.00000  Uiso   1.00
H2646  H     0.11443   0.93744   0.66804   0.00000  Uiso   1.00
H2647  H     0.07824   0.91358   0.70974   0.00000  Uiso   1.00
C2648  C     0.07147   0.98284   0.70139   0.00000  Uiso   1.00
H2649  H     0.05052   0.98289   0.73232   0.00000  Uiso   1.00
H2650  H     0.05065   0.98461   0.67026   0.00000  Uiso   1.00
H2651  H     0.09215   0.51202   0.70152   0.00000  Uiso   1.00
O2652  O     0.35545   0.58589   0.91838   0.00000  Uiso   1.00
C2653  C     0.31772   0.60846   0.93134   0.00000  Uiso   1.00
H2654  H     0.29761   0.58606   0.95231   0.00000  Uiso   1.00
H2655  H     0.29733   0.61886   0.90120   0.00000  Uiso   1.00
C2656  C     0.32752   0.64771   0.96085   0.00000  Uiso   1.00
H2657  H     0.33727   0.63705   0.99621   0.00000  Uiso   1.00
H2658  H     0.35399   0.66708   0.94555   0.00000  Uiso   1.00
C2659  C     0.28717   0.67561   0.96332   0.00000  Uiso   1.00
H2660  H     0.28359   0.69469   0.93082   0.00000  Uiso   1.00
H2661  H     0.28853   0.69750   0.99312   0.00000  Uiso   1.00
H2662  H     0.25831   0.65512   0.96710   0.00000  Uiso   1.00
O2663  O     0.34417   0.59674   0.74871   0.00000  Uiso   1.00
C2664  C     0.36211   0.55737   0.73373   0.00000  Uiso   1.00
H2665  H     0.33752   0.54104   0.71215   0.00000  Uiso   1.00
H2666  H     0.36986   0.53464   0.76292   0.00000  Uiso   1.00
C2667  C     0.40191   0.56452   0.70385   0.00000  Uiso   1.00
H2668  H     0.39255   0.57940   0.67015   0.00000  Uiso   1.00
H2669  H     0.42478   0.58651   0.72131   0.00000  Uiso   1.00
C2670  C     0.42368   0.52126   0.69567   0.00000  Uiso   1.00
H2671  H     0.43119   0.50569   0.72936   0.00000  Uiso   1.00
H2672  H     0.45411   0.52536   0.67656   0.00000  Uiso   1.00
H2673  H     0.40187   0.99980   0.67609   0.00000  Uiso   1.00
O2674  O     0.14909   0.90774   0.91686   0.00000  Uiso   1.00
C2675  C     0.18366   0.88111   0.93180   0.00000  Uiso   1.00
H2676  H     0.20090   0.89828   0.95974   0.00000  Uiso   1.00
H2677  H     0.20799   0.87645   0.90401   0.00000  Uiso   1.00
C2678  C     0.16813   0.83722   0.95081   0.00000  Uiso   1.00
H2679  H     0.15435   0.84127   0.98587   0.00000  Uiso   1.00
H2680  H     0.14288   0.82282   0.92883   0.00000  Uiso   1.00
C2681  C     0.20508   0.80514   0.95235   0.00000  Uiso   1.00
H2682  H     0.21673   0.79882   0.91680   0.00000  Uiso   1.00
H2683  H     0.19416   0.77432   0.96783   0.00000  Uiso   1.00
H2684  H     0.23168   0.81823   0.97332   0.00000  Uiso   1.00
O2685  O     0.36285   0.92311   0.91568   0.00000  Uiso   1.00
C2686  C     0.37871   0.96568   0.91046   0.00000  Uiso   1.00
H2687  H     0.36464   0.98563   0.93816   0.00000  Uiso   1.00
H2688  H     0.36912   0.98145   0.87720   0.00000  Uiso   1.00
C2689  C     0.42742   0.96707   0.91484   0.00000  Uiso   1.00
H2690  H     0.43708   0.95679   0.95034   0.00000  Uiso   1.00
H2691  H     0.44220   0.94510   0.88934   0.00000  Uiso   1.00
C2692  C     0.44302   0.51257   0.90501   0.00000  Uiso   1.00
H2693  H     0.43447   0.52229   0.86900   0.00000  Uiso   1.00
H2694  H     0.47835   0.51448   0.90919   0.00000  Uiso   1.00
H2695  H     0.42771   0.53533   0.92920   0.00000  Uiso   1.00
O2696  O     0.15051   0.59454   0.74838   0.00000  Uiso   1.00
C2697  C     0.15321   0.63272   0.72061   0.00000  Uiso   1.00
H2698  H     0.14815   0.66308   0.74006   0.00000  Uiso   1.00
H2699  H     0.12841   0.63123   0.69279   0.00000  Uiso   1.00
C2700  C     0.19719   0.63708   0.69800   0.00000  Uiso   1.00
H2701  H     0.20264   0.61015   0.67407   0.00000  Uiso   1.00
H2702  H     0.19724   0.66722   0.67687   0.00000  Uiso   1.00
C2703  C     0.23367   0.63958   0.73355   0.00000  Uiso   1.00
H2704  H     0.23198   0.67038   0.75259   0.00000  Uiso   1.00
H2705  H     0.26500   0.63766   0.71567   0.00000  Uiso   1.00
H2706  H     0.23237   0.61247   0.75864   0.00000  Uiso   1.00
O2707  O     0.14125   0.58355   0.91762   0.00000  Uiso   1.00
C2708  C     0.12159   0.54201   0.92134   0.00000  Uiso   1.00
H2709  H     0.11655   0.53603   0.95886   0.00000  Uiso   1.00
H2710  H     0.14459   0.51643   0.91162   0.00000  Uiso   1.00
C2711  C     0.07739   0.53515   0.89694   0.00000  Uiso   1.00
H2712  H     0.05402   0.52325   0.92305   0.00000  Uiso   1.00
H2713  H     0.06345   0.56506   0.88183   0.00000  Uiso   1.00
C2714  C     0.08054   0.50148   0.85901   0.00000  Uiso   1.00
H2715  H     0.10040   0.51371   0.82996   0.00000  Uiso   1.00
H2716  H     0.04806   0.99332   0.84582   0.00000  Uiso   1.00
H2717  H     0.09521   0.97154   0.87302   0.00000  Uiso   1.00
O2718  O     0.32527   0.88137   0.75901   0.00000  Uiso   1.00
C2719  C     0.29442   0.85120   0.77536   0.00000  Uiso   1.00
H2720  H     0.27377   0.86570   0.80244   0.00000  Uiso   1.00
H2721  H     0.30987   0.82173   0.79050   0.00000  Uiso   1.00
C2722  C     0.26545   0.83668   0.73612   0.00000  Uiso   1.00
H2723  H     0.28475   0.81876   0.71065   0.00000  Uiso   1.00
H2724  H     0.24102   0.81439   0.75073   0.00000  Uiso   1.00
C2725  C     0.24306   0.87464   0.71233   0.00000  Uiso   1.00
H2726  H     0.23787   0.90151   0.73653   0.00000  Uiso   1.00
H2727  H     0.21122   0.86428   0.69952   0.00000  Uiso   1.00
H2728  H     0.26267   0.88619   0.68272   0.00000  Uiso   1.00
O2729  O     0.54508   0.70491   0.87291   0.00000  Uiso   1.00
O2730  O     0.95491   0.79509   0.79375   0.00000  Uiso   1.00
O2731  O     0.95491   0.79509   0.87291   0.00000  Uiso   1.00
O2732  O     0.54508   0.70491   0.79375   0.00000  Uiso   1.00
O2733  O     0.95491   0.70491   0.79375   0.00000  Uiso   1.00
O2734  O     0.54508   0.79509   0.87291   0.00000  Uiso   1.00
O2735  O     0.54508   0.79509   0.79375   0.00000  Uiso   1.00
O2736  O     0.95491   0.70491   0.87291   0.00000  Uiso   1.00
O2737  O     0.79508   0.95491   0.87291   0.00000  Uiso   1.00
O2738  O     0.70491   0.54509   0.79375   0.00000  Uiso   1.00
O2739  O     0.70491   0.54509   0.87291   0.00000  Uiso   1.00
O2740  O     0.79508   0.95491   0.79375   0.00000  Uiso   1.00
O2741  O     0.70491   0.95491   0.79375   0.00000  Uiso   1.00
O2742  O     0.79508   0.54509   0.87291   0.00000  Uiso   1.00
O2743  O     0.79508   0.54509   0.79375   0.00000  Uiso   1.00
O2744  O     0.70491   0.95491   0.87291   0.00000  Uiso   1.00
C2745  C     0.55854   0.68988   0.83359   0.00000  Uiso   1.00
C2746  C     0.94160   0.81054   0.83338   0.00000  Uiso   1.00
C2747  C     0.94175   0.68955   0.83344   0.00000  Uiso   1.00
C2748  C     0.55964   0.80903   0.83302   0.00000  Uiso   1.00
C2749  C     0.80945   0.94075   0.83366   0.00000  Uiso   1.00
C2750  C     0.68879   0.55778   0.83306   0.00000  Uiso   1.00
C2751  C     0.69025   0.94078   0.83323   0.00000  Uiso   1.00
C2752  C     0.81094   0.55799   0.83336   0.00000  Uiso   1.00
H2753  H     0.95927   0.69535   0.70939   0.00000  Uiso   1.00
H2754  H     0.54173   0.80376   0.95721   0.00000  Uiso   1.00
H2755  H     0.54052   0.80474   0.70871   0.00000  Uiso   1.00
H2756  H     0.95644   0.69791   0.95810   0.00000  Uiso   1.00
H2757  H     0.80119   0.95486   0.70986   0.00000  Uiso   1.00
H2758  H     0.70173   0.54766   0.95713   0.00000  Uiso   1.00
H2759  H     0.69836   0.54374   0.70838   0.00000  Uiso   1.00
H2760  H     0.79843   0.95219   0.95865   0.00000  Uiso   1.00
N2761  N     0.50000   0.75000   0.95069   0.00000  Uiso   1.00
N2762  N     0.50000   0.75000   0.71598   0.00000  Uiso   1.00
N2763  N     0.75000   0.50000   0.95069   0.00000  Uiso   1.00
N2764  N     0.75000   0.50000   0.71598   0.00000  Uiso   1.00
Cu2765 Cu    0.50000   0.75000   0.88022   0.00000  Uiso   1.00
Cu2766 Cu    0.50000   0.75000   0.78645   0.00000  Uiso   1.00
Cu2767 Cu    0.75000   0.50000   0.88022   0.00000  Uiso   1.00
Cu2768 Cu    0.75000   0.50000   0.78645   0.00000  Uiso   1.00
C2769  C     0.97737   0.71997   0.69145   0.00000  Uiso   1.00
C2770  C     0.52288   0.77985   0.97519   0.00000  Uiso   1.00
C2771  C     0.52232   0.78028   0.69103   0.00000  Uiso   1.00
C2772  C     0.97623   0.72094   0.97568   0.00000  Uiso   1.00
C2773  C     0.77812   0.97496   0.69173   0.00000  Uiso   1.00
C2774  C     0.72281   0.52579   0.97507   0.00000  Uiso   1.00
C2775  C     0.72186   0.52474   0.69080   0.00000  Uiso   1.00
C2776  C     0.77724   0.97405   0.97594   0.00000  Uiso   1.00
C2777  C     0.88787   0.64388   0.79306   0.00000  Uiso   1.00
C2778  C     0.60003   0.86748   0.87113   0.00000  Uiso   1.00
C2779  C     0.61755   0.85109   0.79216   0.00000  Uiso   1.00
C2780  C     0.90493   0.62760   0.87375   0.00000  Uiso   1.00
C2781  C     0.61223   0.64216   0.87402   0.00000  Uiso   1.00
C2782  C     0.89327   0.86326   0.79266   0.00000  Uiso   1.00
C2783  C     0.89577   0.86448   0.87641   0.00000  Uiso   1.00
C2784  C     0.59438   0.62835   0.79411   0.00000  Uiso   1.00
C2785  C     0.64249   0.88855   0.79023   0.00000  Uiso   1.00
C2786  C     0.86889   0.60048   0.87531   0.00000  Uiso   1.00
C2787  C     0.86156   0.60759   0.79134   0.00000  Uiso   1.00
C2788  C     0.63587   0.89408   0.87374   0.00000  Uiso   1.00
C2789  C     0.86891   0.90066   0.87511   0.00000  Uiso   1.00
C2790  C     0.63229   0.60339   0.79105   0.00000  Uiso   1.00
C2791  C     0.63462   0.60318   0.87495   0.00000  Uiso   1.00
C2792  C     0.85499   0.88671   0.79415   0.00000  Uiso   1.00
C2793  C     0.59298   0.84255   0.83202   0.00000  Uiso   1.00
C2794  C     0.91170   0.65291   0.83342   0.00000  Uiso   1.00
C2795  C     0.91005   0.84634   0.83421   0.00000  Uiso   1.00
C2796  C     0.58879   0.65342   0.83395   0.00000  Uiso   1.00
C2797  C     0.84772   0.58853   0.83341   0.00000  Uiso   1.00
C2798  C     0.65608   0.90759   0.83246   0.00000  Uiso   1.00
C2799  C     0.65139   0.58772   0.83279   0.00000  Uiso   1.00
C2800  C     0.84486   0.90931   0.83445   0.00000  Uiso   1.00
O2801  O     0.88736   0.67247   0.75605   0.00000  Uiso   1.00
C2802  C     0.84863   0.69642   0.75840   0.00000  Uiso   1.00
H2803  H     0.84464   0.71173   0.79290   0.00000  Uiso   1.00
H2804  H     0.82038   0.67536   0.75224   0.00000  Uiso   1.00
C2805  C     0.84801   0.73113   0.72091   0.00000  Uiso   1.00
H2806  H     0.85824   0.71696   0.68770   0.00000  Uiso   1.00
H2807  H     0.81477   0.74401   0.71740   0.00000  Uiso   1.00
C2808  C     0.87781   0.76792   0.73275   0.00000  Uiso   1.00
H2809  H     0.86955   0.78084   0.76713   0.00000  Uiso   1.00
H2810  H     0.87463   0.79381   0.70635   0.00000  Uiso   1.00
H2811  H     0.91144   0.75661   0.73327   0.00000  Uiso   1.00
O2812  O     0.57182   0.86626   0.90742   0.00000  Uiso   1.00
C2813  C     0.53638   0.89303   0.89582   0.00000  Uiso   1.00
H2814  H     0.50719   0.87286   0.89094   0.00000  Uiso   1.00
H2815  H     0.53989   0.91264   0.86329   0.00000  Uiso   1.00
C2816  C     0.53025   0.92410   0.93494   0.00000  Uiso   1.00
H2817  H     0.56195   0.93751   0.94477   0.00000  Uiso   1.00
H2818  H     0.51026   0.95132   0.92316   0.00000  Uiso   1.00
C2819  C     0.50953   0.90154   0.97593   0.00000  Uiso   1.00
H2820  H     0.97913   0.88592   0.96488   0.00000  Uiso   1.00
H2821  H     0.50232   0.92566   0.66914   0.00000  Uiso   1.00
H2822  H     0.53155   0.87674   0.99068   0.00000  Uiso   1.00
O2823  O     0.61990   0.82221   0.75621   0.00000  Uiso   1.00
C2824  C     0.64443   0.78619   0.77199   0.00000  Uiso   1.00
H2825  H     0.62445   0.76426   0.79363   0.00000  Uiso   1.00
H2826  H     0.67302   0.79602   0.79301   0.00000  Uiso   1.00
C2827  C     0.66150   0.76085   0.73128   0.00000  Uiso   1.00
H2828  H     0.68326   0.78177   0.71090   0.00000  Uiso   1.00
H2829  H     0.68066   0.73317   0.74483   0.00000  Uiso   1.00
C2830  C     0.62540   0.74423   0.70036   0.00000  Uiso   1.00
H2831  H     0.59988   0.72845   0.72125   0.00000  Uiso   1.00
H2832  H     0.63862   0.72011   0.67641   0.00000  Uiso   1.00
H2833  H     0.61146   0.77120   0.67964   0.00000  Uiso   1.00
O2834  O     0.92773   0.63420   0.91457   0.00000  Uiso   1.00
C2835  C     0.97055   0.61842   0.91125   0.00000  Uiso   1.00
H2836  H     0.99164   0.64243   0.89438   0.00000  Uiso   1.00
H2837  H     0.97284   0.58937   0.88962   0.00000  Uiso   1.00
C2838  C     0.98817   0.60797   0.96005   0.00000  Uiso   1.00
H2839  H     0.96727   0.62226   0.98690   0.00000  Uiso   1.00
H2840  H     0.98841   0.57266   0.96548   0.00000  Uiso   1.00
C2841  C     0.53404   0.62414   0.96757   0.00000  Uiso   1.00
H2842  H     0.55591   0.60973   0.94223   0.00000  Uiso   1.00
H2843  H     0.54548   0.61463   0.66925   0.00000  Uiso   1.00
H2844  H     0.53574   0.65966   0.96408   0.00000  Uiso   1.00
O2845  O     0.61309   0.66787   0.91277   0.00000  Uiso   1.00
C2846  C     0.64026   0.70381   0.90401   0.00000  Uiso   1.00
H2847  H     0.63481   0.72736   0.93183   0.00000  Uiso   1.00
H2848  H     0.63118   0.72171   0.87175   0.00000  Uiso   1.00
C2849  C     0.68835   0.69125   0.90420   0.00000  Uiso   1.00
H2850  H     0.70659   0.71347   0.92667   0.00000  Uiso   1.00
H2851  H     0.69287   0.65830   0.91891   0.00000  Uiso   1.00
C2852  C     0.70782   0.69354   0.85575   0.00000  Uiso   1.00
H2853  H     0.68961   0.67295   0.83142   0.00000  Uiso   1.00
H2854  H     0.74171   0.68217   0.85704   0.00000  Uiso   1.00
H2855  H     0.70731   0.72731   0.84252   0.00000  Uiso   1.00
O2856  O     0.91277   0.85453   0.75099   0.00000  Uiso   1.00
C2857  C     0.92530   0.89353   0.72897   0.00000  Uiso   1.00
H2858  H     0.89722   0.91487   0.72154   0.00000  Uiso   1.00
H2859  H     0.93808   0.88504   0.69476   0.00000  Uiso   1.00
C2860  C     0.96007   0.91866   0.75604   0.00000  Uiso   1.00
H2861  H     0.97059   0.94634   0.73452   0.00000  Uiso   1.00
H2862  H     0.94633   0.93207   0.78825   0.00000  Uiso   1.00
C2863  C     0.99983   0.89179   0.76806   0.00000  Uiso   1.00
H2864  H     0.99358   0.87100   0.79856   0.00000  Uiso   1.00
H2865  H     0.52694   0.91346   0.77708   0.00000  Uiso   1.00
H2866  H     0.50950   0.87156   0.73857   0.00000  Uiso   1.00
O2867  O     0.90852   0.84875   0.91935   0.00000  Uiso   1.00
C2868  C     0.88480   0.81089   0.92967   0.00000  Uiso   1.00
H2869  H     0.90295   0.79242   0.95660   0.00000  Uiso   1.00
H2870  H     0.88167   0.78908   0.89943   0.00000  Uiso   1.00
C2871  C     0.83974   0.82051   0.94817   0.00000  Uiso   1.00
H2872  H     0.84231   0.83457   0.98320   0.00000  Uiso   1.00
H2873  H     0.82247   0.84410   0.92564   0.00000  Uiso   1.00
C2874  C     0.81362   0.77891   0.94949   0.00000  Uiso   1.00
H2875  H     0.79608   0.77483   0.91623   0.00000  Uiso   1.00
H2876  H     0.79046   0.77902   0.97824   0.00000  Uiso   1.00
H2877  H     0.83494   0.75063   0.95473   0.00000  Uiso   1.00
O2878  O     0.56701   0.63181   0.75606   0.00000  Uiso   1.00
C2879  C     0.52587   0.61496   0.76750   0.00000  Uiso   1.00
H2880  H     0.50173   0.62978   0.74367   0.00000  Uiso   1.00
H2881  H     0.51519   0.62363   0.80292   0.00000  Uiso   1.00
C2882  C     0.52454   0.56601   0.76145   0.00000  Uiso   1.00
H2883  H     0.51720   0.55851   0.72476   0.00000  Uiso   1.00
H2884  H     0.55632   0.55178   0.77045   0.00000  Uiso   1.00
C2885  C     0.99082   0.54528   0.79268   0.00000  Uiso   1.00
H2886  H     0.50002   0.54984   0.82933   0.00000  Uiso   1.00
H2887  H     0.98901   0.51020   0.78607   0.00000  Uiso   1.00
H2888  H     0.95872   0.56006   0.78690   0.00000  Uiso   1.00
O2889  O     0.65403   0.90466   0.74713   0.00000  Uiso   1.00
C2890  C     0.63376   0.94520   0.73906   0.00000  Uiso   1.00
H2891  H     0.65827   0.96807   0.72571   0.00000  Uiso   1.00
H2892  H     0.61989   0.96013   0.77067   0.00000  Uiso   1.00
C2893  C     0.59891   0.94188   0.70216   0.00000  Uiso   1.00
H2894  H     0.61443   0.93744   0.66804   0.00000  Uiso   1.00
H2895  H     0.57824   0.91358   0.70974   0.00000  Uiso   1.00
C2896  C     0.57147   0.98284   0.70139   0.00000  Uiso   1.00
H2897  H     0.55052   0.98289   0.73232   0.00000  Uiso   1.00
H2898  H     0.55065   0.98461   0.67026   0.00000  Uiso   1.00
H2899  H     0.59215   0.51202   0.70152   0.00000  Uiso   1.00
O2900  O     0.85545   0.58589   0.91838   0.00000  Uiso   1.00
C2901  C     0.81772   0.60846   0.93134   0.00000  Uiso   1.00
H2902  H     0.79761   0.58606   0.95231   0.00000  Uiso   1.00
H2903  H     0.79733   0.61886   0.90120   0.00000  Uiso   1.00
C2904  C     0.82752   0.64771   0.96085   0.00000  Uiso   1.00
H2905  H     0.83727   0.63705   0.99621   0.00000  Uiso   1.00
H2906  H     0.85399   0.66708   0.94555   0.00000  Uiso   1.00
C2907  C     0.78717   0.67561   0.96332   0.00000  Uiso   1.00
H2908  H     0.78359   0.69469   0.93082   0.00000  Uiso   1.00
H2909  H     0.78853   0.69750   0.99312   0.00000  Uiso   1.00
H2910  H     0.75831   0.65512   0.96710   0.00000  Uiso   1.00
O2911  O     0.84417   0.59674   0.74871   0.00000  Uiso   1.00
C2912  C     0.86211   0.55737   0.73373   0.00000  Uiso   1.00
H2913  H     0.83752   0.54104   0.71215   0.00000  Uiso   1.00
H2914  H     0.86986   0.53464   0.76292   0.00000  Uiso   1.00
C2915  C     0.90191   0.56452   0.70385   0.00000  Uiso   1.00
H2916  H     0.89255   0.57940   0.67015   0.00000  Uiso   1.00
H2917  H     0.92478   0.58651   0.72131   0.00000  Uiso   1.00
C2918  C     0.92368   0.52126   0.69567   0.00000  Uiso   1.00
H2919  H     0.93119   0.50569   0.72936   0.00000  Uiso   1.00
H2920  H     0.95411   0.52536   0.67656   0.00000  Uiso   1.00
H2921  H     0.90187   0.99980   0.67609   0.00000  Uiso   1.00
O2922  O     0.64909   0.90774   0.91686   0.00000  Uiso   1.00
C2923  C     0.68366   0.88111   0.93180   0.00000  Uiso   1.00
H2924  H     0.70090   0.89828   0.95974   0.00000  Uiso   1.00
H2925  H     0.70799   0.87645   0.90401   0.00000  Uiso   1.00
C2926  C     0.66813   0.83722   0.95081   0.00000  Uiso   1.00
H2927  H     0.65435   0.84127   0.98587   0.00000  Uiso   1.00
H2928  H     0.64288   0.82282   0.92883   0.00000  Uiso   1.00
C2929  C     0.70508   0.80514   0.95235   0.00000  Uiso   1.00
H2930  H     0.71673   0.79882   0.91680   0.00000  Uiso   1.00
H2931  H     0.69416   0.77432   0.96783   0.00000  Uiso   1.00
H2932  H     0.73168   0.81823   0.97332   0.00000  Uiso   1.00
O2933  O     0.86285   0.92311   0.91568   0.00000  Uiso   1.00
C2934  C     0.87871   0.96568   0.91046   0.00000  Uiso   1.00
H2935  H     0.86464   0.98563   0.93816   0.00000  Uiso   1.00
H2936  H     0.86912   0.98145   0.87720   0.00000  Uiso   1.00
C2937  C     0.92742   0.96707   0.91484   0.00000  Uiso   1.00
H2938  H     0.93708   0.95679   0.95034   0.00000  Uiso   1.00
H2939  H     0.94220   0.94510   0.88934   0.00000  Uiso   1.00
C2940  C     0.94302   0.51257   0.90501   0.00000  Uiso   1.00
H2941  H     0.93447   0.52229   0.86900   0.00000  Uiso   1.00
H2942  H     0.97835   0.51448   0.90919   0.00000  Uiso   1.00
H2943  H     0.92771   0.53533   0.92920   0.00000  Uiso   1.00
O2944  O     0.65051   0.59454   0.74838   0.00000  Uiso   1.00
C2945  C     0.65321   0.63272   0.72061   0.00000  Uiso   1.00
H2946  H     0.64815   0.66308   0.74006   0.00000  Uiso   1.00
H2947  H     0.62841   0.63123   0.69279   0.00000  Uiso   1.00
C2948  C     0.69719   0.63708   0.69800   0.00000  Uiso   1.00
H2949  H     0.70264   0.61015   0.67407   0.00000  Uiso   1.00
H2950  H     0.69724   0.66722   0.67687   0.00000  Uiso   1.00
C2951  C     0.73367   0.63958   0.73355   0.00000  Uiso   1.00
H2952  H     0.73198   0.67038   0.75259   0.00000  Uiso   1.00
H2953  H     0.76500   0.63766   0.71567   0.00000  Uiso   1.00
H2954  H     0.73237   0.61247   0.75864   0.00000  Uiso   1.00
O2955  O     0.64125   0.58355   0.91762   0.00000  Uiso   1.00
C2956  C     0.62159   0.54201   0.92134   0.00000  Uiso   1.00
H2957  H     0.61655   0.53603   0.95886   0.00000  Uiso   1.00
H2958  H     0.64459   0.51643   0.91162   0.00000  Uiso   1.00
C2959  C     0.57739   0.53515   0.89694   0.00000  Uiso   1.00
H2960  H     0.55402   0.52325   0.92305   0.00000  Uiso   1.00
H2961  H     0.56345   0.56506   0.88183   0.00000  Uiso   1.00
C2962  C     0.58054   0.50148   0.85901   0.00000  Uiso   1.00
H2963  H     0.60040   0.51371   0.82996   0.00000  Uiso   1.00
H2964  H     0.54806   0.99332   0.84582   0.00000  Uiso   1.00
H2965  H     0.59521   0.97154   0.87302   0.00000  Uiso   1.00
O2966  O     0.82527   0.88137   0.75901   0.00000  Uiso   1.00
C2967  C     0.79442   0.85120   0.77536   0.00000  Uiso   1.00
H2968  H     0.77377   0.86570   0.80244   0.00000  Uiso   1.00
H2969  H     0.80987   0.82173   0.79050   0.00000  Uiso   1.00
C2970  C     0.76545   0.83668   0.73612   0.00000  Uiso   1.00
H2971  H     0.78475   0.81876   0.71065   0.00000  Uiso   1.00
H2972  H     0.74102   0.81439   0.75073   0.00000  Uiso   1.00
C2973  C     0.74306   0.87464   0.71233   0.00000  Uiso   1.00
H2974  H     0.73787   0.90151   0.73653   0.00000  Uiso   1.00
H2975  H     0.71122   0.86428   0.69952   0.00000  Uiso   1.00
H2976  H     0.76267   0.88619   0.68272   0.00000  Uiso   1.00
loop_
_geom_bond_atom_site_label_1
_geom_bond_atom_site_label_2
_geom_bond_distance
_geom_bond_site_symmetry_2
_ccdc_geom_bond_type
O1     Cu37    1.993   .     S
O1     C17     1.305   .     A
O2     C18     1.316   .     A
O2     Cu286   1.993   .     S
O3     C18     1.298   .     A
O3     Cu285   1.987   .     S
O4     C17     1.303   .     A
O4     Cu38    1.987   .     S
O5     C19     1.305   .     A
O5     Cu286   1.991   .     S
O6     Cu37    1.991   .     S
O6     C20     1.309   .     A
O7     Cu38    1.993   .     S
O7     C20     1.298   .     A
O8     C19     1.305   .     A
O8     Cu285   1.993   .     S
O9     Cu535   1.993   .     S
O9     C21     1.303   .     A
O10    C22     1.309   .     A
O10    Cu40    1.993   .     S
O11    C22     1.309   .     A
O11    Cu39    1.987   .     S
O12    C21     1.305   .     A
O12    Cu536   1.987   .     S
O13    C23     1.302   .     A
O13    Cu536   1.991   .     S
O14    C24     1.306   .     A
O14    Cu39    1.991   .     S
O15    C24     1.311   .     A
O15    Cu40    1.993   .     S
O16    C23     1.312   .     A
O16    Cu535   1.993   .     S
C17    C68     1.470   .     S
C18    C67     1.481   .     S
C19    C66     1.472   .     S
C20    C65     1.469   .     S
C21    C72     1.469   .     S
C22    C71     1.487   .     S
C23    C70     1.480   .     S
C24    C69     1.486   .     S
H25    C41     1.079   .     S
H26    C42     1.076   .     S
H27    C43     1.079   .     S
H28    C44     1.074   .     S
H29    C45     1.079   .     S
H30    C46     1.069   .     S
H31    C47     1.072   .     S
H32    C48     1.075   .     S
N33    C292    1.368   1_455 A
N33    Cu37    2.036   .     S
N33    C42     1.370   .     S
N34    Cu38    2.036   .     S
N34    C43     1.369   .     A
N34    C289    1.370   1_455 S
N35    Cu39    2.036   .     S
N35    C544    1.369   1_545 A
N35    C46     1.368   .     S
N36    C47     1.364   .     A
N36    Cu40    2.036   .     S
N36    C541    1.370   1_545 S
Cu37   Cu38    2.710   .     S
Cu37   O256    1.993   1_455 S
Cu37   O251    1.987   1_455 S
Cu38   O253    1.991   1_455 S
Cu38   O250    1.993   1_455 S
Cu39   O505    1.993   1_545 S
Cu39   Cu40    2.710   .     S
Cu39   O512    1.993   1_545 S
Cu40   O509    1.991   1_545 S
Cu40   O508    1.987   1_545 S
C41    N282    1.370   .     S
C41    C2028   1.419   1_554 S
C42    C1035   1.421   .     S
C43    C2026   1.421   1_554 S
C44    N281    1.368   .     A
C44    C1033   1.419   .     S
C45    N532    1.370   .     S
C45    C2032   1.420   1_554 S
C46    C1039   1.418   .     S
C47    C2030   1.418   1_554 S
C48    N531    1.369   .     A
C48    C1037   1.420   .     S
C49    O73     1.381   .     S
C49    C66     1.409   .     A
C49    C59     1.393   .     A
C50    O84     1.371   .     S
C50    C60     1.389   .     A
C50    C65     1.394   .     A
C51    C65     1.408   .     A
C51    C57     1.398   .     A
C51    O95     1.383   .     S
C52    O106    1.390   .     S
C52    C58     1.402   .     A
C52    C66     1.414   .     A
C53    C63     1.394   .     A
C53    O117    1.383   .     S
C53    C68     1.404   .     A
C54    C67     1.402   .     A
C54    O128    1.381   .     S
C54    C64     1.395   .     A
C55    O139    1.383   .     S
C55    C67     1.423   .     A
C55    C61     1.398   .     A
C56    C62     1.413   .     A
C56    O150    1.389   .     S
C56    C68     1.409   .     A
C57    C70     1.424   .     A
C57    O161    1.386   .     S
C58    C69     1.428   .     A
C58    O172    1.386   .     S
C59    C69     1.415   .     A
C59    O183    1.387   .     S
C60    O194    1.381   .     S
C60    C70     1.411   .     A
C61    C72     1.411   .     A
C61    O205    1.385   .     S
C62    O216    1.390   .     S
C62    C71     1.421   .     A
C63    O227    1.383   .     S
C63    C71     1.417   .     A
C64    O238    1.380   .     S
C64    C72     1.404   .     A
O73    C74     1.416   .     S
C74    H76     1.110   .     S
C74    C77     1.518   .     S
C74    H75     1.117   .     S
C77    H79     1.110   .     S
C77    H78     1.109   .     S
C77    C80     1.512   .     S
C80    H83     1.102   .     S
C80    H82     1.105   .     S
C80    H81     1.107   .     S
O84    C85     1.415   .     S
C85    H86     1.112   .     S
C85    C88     1.508   .     S
C85    H87     1.119   .     S
C88    C91     1.516   .     S
C88    H90     1.097   .     S
C88    H89     1.106   .     S
C91    H94     1.109   .     S
C91    H340    1.109   1_455 S
C91    H1085   1.102   .     S
H92    C339    1.109   .     S
H93    C2075   1.102   1_554 S
O95    C96     1.421   .     S
C96    C99     1.521   .     S
C96    H98     1.118   .     S
C96    H97     1.111   .     S
C99    H100    1.106   .     S
C99    H101    1.110   .     S
C99    C102    1.524   .     S
C102   H105    1.109   .     S
C102   H104    1.106   .     S
C102   H103    1.110   .     S
O106   C107    1.421   .     S
C107   H109    1.106   .     S
C107   H108    1.104   .     S
C107   C110    1.540   .     S
C110   H112    1.105   .     S
C110   H111    1.111   .     S
C110   C361    1.527   .     S
C113   H114    1.101   .     S
C113   H116    1.107   .     S
C113   C358    1.527   1_455 S
C113   H1107   1.107   .     S
H115   C2097   1.107   1_554 S
O117   C118    1.421   .     S
C118   H119    1.107   .     S
C118   H120    1.114   .     S
C118   C121    1.544   .     S
C121   H122    1.107   .     S
C121   H123    1.111   .     S
C121   C124    1.529   .     S
C124   H127    1.111   .     S
C124   H126    1.110   .     S
C124   H125    1.109   .     S
O128   C129    1.416   .     S
C129   H131    1.102   .     S
C129   C132    1.547   .     S
C129   H130    1.113   .     S
C132   H133    1.105   .     S
C132   H134    1.112   .     S
C132   C135    1.526   .     S
C135   H136    1.104   .     S
C135   H385    1.110   .     S
C135   H386    1.108   .     S
H137   C383    1.110   1_455 S
H138   C383    1.108   1_455 S
O139   C140    1.417   .     S
C140   C143    1.532   .     S
C140   H142    1.116   .     S
C140   H141    1.111   .     S
C143   C146    1.526   .     S
C143   H144    1.110   .     S
C143   H145    1.109   .     S
C146   H148    1.102   .     S
C146   H147    1.111   .     S
C146   H149    1.107   .     S
O150   C151    1.421   .     S
C151   C154    1.532   .     S
C151   H152    1.111   .     S
C151   H153    1.114   .     S
C154   H156    1.109   .     S
C154   H155    1.111   .     S
C154   C405    1.525   1_455 S
C157   H160    1.108   .     S
C157   H159    1.109   .     S
C157   C402    1.525   .     S
C157   H406    1.106   .     S
H158   C405    1.106   1_455 S
O161   C162    1.422   .     S
C162   H163    1.109   .     S
C162   C165    1.520   .     S
C162   H164    1.118   .     S
C165   H166    1.110   .     S
C165   C168    1.530   .     S
C165   H167    1.109   .     S
C168   H170    1.105   .     S
C168   H169    1.109   .     S
C168   H667    1.111   .     S
H171   C664    1.111   1_545 S
O172   C173    1.419   .     S
C173   H175    1.118   .     S
C173   C176    1.525   .     S
C173   H174    1.112   .     S
C176   C179    1.525   .     S
C176   H177    1.110   .     S
C176   H178    1.110   .     S
C179   H182    1.105   .     S
C179   H180    1.109   .     S
C179   H181    1.104   .     S
O183   C184    1.416   .     S
C184   H185    1.110   .     S
C184   C187    1.528   .     S
C184   H186    1.118   .     S
C187   C190    1.524   .     S
C187   H189    1.109   .     S
C187   H188    1.110   .     S
C190   H191    1.105   .     S
C190   H192    1.104   .     S
C190   H689    1.108   1_545 S
H193   C686    1.108   .     S
O194   C195    1.417   .     S
C195   H197    1.117   .     S
C195   H196    1.108   .     S
C195   C198    1.541   .     S
C198   H199    1.111   .     S
C198   C201    1.518   .     S
C198   H200    1.105   .     S
C201   H204    1.103   .     S
C201   H203    1.105   .     S
C201   H202    1.111   .     S
O205   C206    1.417   .     S
C206   H207    1.110   .     S
C206   C209    1.519   .     S
C206   H208    1.112   .     S
C209   H210    1.110   .     S
C209   H211    1.111   .     S
C209   C708    1.517   .     S
C212   H215    1.109   .     S
C212   H214    1.105   .     S
C212   H213    1.110   .     S
C212   C705    1.517   1_545 S
O216   C217    1.425   .     S
C217   C220    1.524   .     S
C217   H218    1.115   .     S
C217   H219    1.112   .     S
C220   H222    1.110   .     S
C220   H221    1.105   .     S
C220   C223    1.528   .     S
C223   H226    1.104   .     S
C223   H224    1.110   .     S
C223   H225    1.107   .     S
O227   C228    1.430   .     S
C228   H230    1.107   .     S
C228   H229    1.110   .     S
C228   C231    1.556   .     S
C231   C234    1.527   .     S
C231   H233    1.107   .     S
C231   H232    1.111   .     S
C234   H235    1.108   .     S
C234   H732    1.107   1_545 S
C234   H733    1.106   1_545 S
H236   C730    1.107   .     S
H237   C730    1.106   .     S
O238   C239    1.420   .     S
C239   H240    1.114   .     S
C239   H241    1.116   .     S
C239   C242    1.517   .     S
C242   H244    1.109   .     S
C242   C245    1.522   .     S
C242   H243    1.107   .     S
C245   H246    1.107   .     S
C245   H247    1.104   .     S
C245   H248    1.110   .     S
O249   Cu285   1.993   .     S
O249   C265    1.305   .     A
O250   C266    1.316   .     A
O250   Cu38    1.993   1_655 S
O251   C266    1.298   .     A
O251   Cu37    1.987   1_655 S
O252   C265    1.303   .     A
O252   Cu286   1.987   .     S
O253   C267    1.305   .     A
O253   Cu38    1.991   1_655 S
O254   Cu285   1.991   .     S
O254   C268    1.309   .     A
O255   Cu286   1.993   .     S
O255   C268    1.298   .     A
O256   C267    1.305   .     A
O256   Cu37    1.993   1_655 S
O257   Cu783   1.993   .     S
O257   C269    1.303   .     A
O258   C270    1.309   .     A
O258   Cu288   1.993   .     S
O259   C270    1.309   .     A
O259   Cu287   1.987   .     S
O260   C269    1.305   .     A
O260   Cu784   1.987   .     S
O261   C271    1.302   .     A
O261   Cu784   1.991   .     S
O262   C272    1.306   .     A
O262   Cu287   1.991   .     S
O263   C272    1.311   .     A
O263   Cu288   1.993   .     S
O264   C271    1.312   .     A
O264   Cu783   1.993   .     S
C265   C316    1.470   .     S
C266   C315    1.481   .     S
C267   C314    1.472   .     S
C268   C313    1.469   .     S
C269   C320    1.469   .     S
C270   C319    1.487   .     S
C271   C318    1.480   .     S
C272   C317    1.486   .     S
H273   C289    1.079   .     S
H274   C290    1.076   .     S
H275   C291    1.079   .     S
H276   C292    1.074   .     S
H277   C293    1.079   .     S
H278   C294    1.069   .     S
H279   C295    1.072   .     S
H280   C296    1.075   .     S
N281   Cu285   2.036   .     S
N281   C290    1.370   .     S
N282   Cu286   2.036   .     S
N282   C291    1.369   .     A
N283   Cu287   2.036   .     S
N283   C792    1.369   1_545 A
N283   C294    1.368   .     S
N284   C295    1.364   .     A
N284   Cu288   2.036   .     S
N284   C789    1.370   1_545 S
Cu285  Cu286   2.710   .     S
Cu287  O753    1.993   1_545 S
Cu287  Cu288   2.710   .     S
Cu287  O760    1.993   1_545 S
Cu288  O757    1.991   1_545 S
Cu288  O756    1.987   1_545 S
C289   N34     1.370   1_655 S
C289   C2276   1.419   1_554 S
C290   C1283   1.421   .     S
C291   C2274   1.421   1_554 S
C292   N33     1.368   1_655 A
C292   C1281   1.419   .     S
C293   N780    1.370   .     S
C293   C2280   1.420   1_554 S
C294   C1287   1.418   .     S
C295   C2278   1.418   1_554 S
C296   N779    1.369   .     A
C296   C1285   1.420   .     S
C297   O321    1.381   .     S
C297   C314    1.409   .     A
C297   C307    1.393   .     A
C298   O332    1.371   .     S
C298   C308    1.389   .     A
C298   C313    1.394   .     A
C299   C313    1.408   .     A
C299   C305    1.398   .     A
C299   O343    1.383   .     S
C300   O354    1.390   .     S
C300   C306    1.402   .     A
C300   C314    1.414   .     A
C301   C311    1.394   .     A
C301   O365    1.383   .     S
C301   C316    1.404   .     A
C302   C315    1.402   .     A
C302   O376    1.381   .     S
C302   C312    1.395   .     A
C303   O387    1.383   .     S
C303   C315    1.423   .     A
C303   C309    1.398   .     A
C304   C310    1.413   .     A
C304   O398    1.389   .     S
C304   C316    1.409   .     A
C305   C318    1.424   .     A
C305   O409    1.386   .     S
C306   C317    1.428   .     A
C306   O420    1.386   .     S
C307   C317    1.415   .     A
C307   O431    1.387   .     S
C308   O442    1.381   .     S
C308   C318    1.411   .     A
C309   C320    1.411   .     A
C309   O453    1.385   .     S
C310   O464    1.390   .     S
C310   C319    1.421   .     A
C311   O475    1.383   .     S
C311   C319    1.417   .     A
C312   O486    1.380   .     S
C312   C320    1.404   .     A
O321   C322    1.416   .     S
C322   H324    1.110   .     S
C322   C325    1.518   .     S
C322   H323    1.117   .     S
C325   H327    1.110   .     S
C325   H326    1.109   .     S
C325   C328    1.512   .     S
C328   H331    1.102   .     S
C328   H330    1.105   .     S
C328   H329    1.107   .     S
O332   C333    1.415   .     S
C333   H334    1.112   .     S
C333   C336    1.508   .     S
C333   H335    1.119   .     S
C336   C339    1.516   .     S
C336   H338    1.097   .     S
C336   H337    1.106   .     S
C339   H342    1.109   .     S
C339   H1333   1.102   .     S
H340   C91     1.109   1_655 S
H341   C2323   1.102   1_554 S
O343   C344    1.421   .     S
C344   C347    1.521   .     S
C344   H346    1.118   .     S
C344   H345    1.111   .     S
C347   H348    1.106   .     S
C347   H349    1.110   .     S
C347   C350    1.524   .     S
C350   H353    1.109   .     S
C350   H352    1.106   .     S
C350   H351    1.110   .     S
O354   C355    1.421   .     S
C355   H357    1.106   .     S
C355   H356    1.104   .     S
C355   C358    1.540   .     S
C358   H360    1.105   .     S
C358   H359    1.111   .     S
C358   C113    1.527   1_655 S
C361   H362    1.101   .     S
C361   H364    1.107   .     S
C361   H1355   1.107   .     S
H363   C2345   1.107   1_554 S
O365   C366    1.421   .     S
C366   H367    1.107   .     S
C366   H368    1.114   .     S
C366   C369    1.544   .     S
C369   H370    1.107   .     S
C369   H371    1.111   .     S
C369   C372    1.529   .     S
C372   H375    1.111   .     S
C372   H374    1.110   .     S
C372   H373    1.109   .     S
O376   C377    1.416   .     S
C377   H379    1.102   .     S
C377   C380    1.547   .     S
C377   H378    1.113   .     S
C380   H381    1.105   .     S
C380   H382    1.112   .     S
C380   C383    1.526   .     S
C383   H384    1.104   .     S
C383   H137    1.110   1_655 S
C383   H138    1.108   1_655 S
O387   C388    1.417   .     S
C388   C391    1.532   .     S
C388   H390    1.116   .     S
C388   H389    1.111   .     S
C391   C394    1.526   .     S
C391   H392    1.110   .     S
C391   H393    1.109   .     S
C394   H396    1.102   .     S
C394   H395    1.111   .     S
C394   H397    1.107   .     S
O398   C399    1.421   .     S
C399   C402    1.532   .     S
C399   H400    1.111   .     S
C399   H401    1.114   .     S
C402   H404    1.109   .     S
C402   H403    1.111   .     S
C405   H408    1.108   .     S
C405   H407    1.109   .     S
C405   C154    1.525   1_655 S
C405   H158    1.106   1_655 S
O409   C410    1.422   .     S
C410   H411    1.109   .     S
C410   C413    1.520   .     S
C410   H412    1.118   .     S
C413   H414    1.110   .     S
C413   C416    1.530   .     S
C413   H415    1.109   .     S
C416   H418    1.105   .     S
C416   H417    1.109   .     S
C416   H915    1.111   .     S
H419   C912    1.111   1_545 S
O420   C421    1.419   .     S
C421   H423    1.118   .     S
C421   C424    1.525   .     S
C421   H422    1.112   .     S
C424   C427    1.525   .     S
C424   H425    1.110   .     S
C424   H426    1.110   .     S
C427   H430    1.105   .     S
C427   H428    1.109   .     S
C427   H429    1.104   .     S
O431   C432    1.416   .     S
C432   H433    1.110   .     S
C432   C435    1.528   .     S
C432   H434    1.118   .     S
C435   C438    1.524   .     S
C435   H437    1.109   .     S
C435   H436    1.110   .     S
C438   H439    1.105   .     S
C438   H440    1.104   .     S
C438   H937    1.108   1_545 S
H441   C934    1.108   .     S
O442   C443    1.417   .     S
C443   H445    1.117   .     S
C443   H444    1.108   .     S
C443   C446    1.541   .     S
C446   H447    1.111   .     S
C446   C449    1.518   .     S
C446   H448    1.105   .     S
C449   H452    1.103   .     S
C449   H451    1.105   .     S
C449   H450    1.111   .     S
O453   C454    1.417   .     S
C454   H455    1.110   .     S
C454   C457    1.519   .     S
C454   H456    1.112   .     S
C457   H458    1.110   .     S
C457   H459    1.111   .     S
C457   C956    1.517   .     S
C460   H463    1.109   .     S
C460   H462    1.105   .     S
C460   H461    1.110   .     S
C460   C953    1.517   1_545 S
O464   C465    1.425   .     S
C465   C468    1.524   .     S
C465   H466    1.115   .     S
C465   H467    1.112   .     S
C468   H470    1.110   .     S
C468   H469    1.105   .     S
C468   C471    1.528   .     S
C471   H474    1.104   .     S
C471   H472    1.110   .     S
C471   H473    1.107   .     S
O475   C476    1.430   .     S
C476   H478    1.107   .     S
C476   H477    1.110   .     S
C476   C479    1.556   .     S
C479   C482    1.527   .     S
C479   H481    1.107   .     S
C479   H480    1.111   .     S
C482   H483    1.108   .     S
C482   H980    1.107   1_545 S
C482   H981    1.106   1_545 S
H484   C978    1.107   .     S
H485   C978    1.106   .     S
O486   C487    1.420   .     S
C487   H488    1.114   .     S
C487   H489    1.116   .     S
C487   C490    1.517   .     S
C490   H492    1.109   .     S
C490   C493    1.522   .     S
C490   H491    1.107   .     S
C493   H494    1.107   .     S
C493   H495    1.104   .     S
C493   H496    1.110   .     S
O497   Cu533   1.993   .     S
O497   C513    1.305   .     A
O498   C514    1.316   .     A
O498   Cu782   1.993   .     S
O499   C514    1.298   .     A
O499   Cu781   1.987   .     S
O500   C513    1.303   .     A
O500   Cu534   1.987   .     S
O501   C515    1.305   .     A
O501   Cu782   1.991   .     S
O502   Cu533   1.991   .     S
O502   C516    1.309   .     A
O503   Cu534   1.993   .     S
O503   C516    1.298   .     A
O504   C515    1.305   .     A
O504   Cu781   1.993   .     S
O505   Cu39    1.993   1_565 S
O505   C517    1.303   .     A
O506   C518    1.309   .     A
O506   Cu536   1.993   .     S
O507   C518    1.309   .     A
O507   Cu535   1.987   .     S
O508   C517    1.305   .     A
O508   Cu40    1.987   1_565 S
O509   C519    1.302   .     A
O509   Cu40    1.991   1_565 S
O510   C520    1.306   .     A
O510   Cu535   1.991   .     S
O511   C520    1.311   .     A
O511   Cu536   1.993   .     S
O512   C519    1.312   .     A
O512   Cu39    1.993   1_565 S
C513   C564    1.470   .     S
C514   C563    1.481   .     S
C515   C562    1.472   .     S
C516   C561    1.469   .     S
C517   C568    1.469   .     S
C518   C567    1.487   .     S
C519   C566    1.480   .     S
C520   C565    1.486   .     S
H521   C537    1.079   .     S
H522   C538    1.076   .     S
H523   C539    1.079   .     S
H524   C540    1.074   .     S
H525   C541    1.079   .     S
H526   C542    1.069   .     S
H527   C543    1.072   .     S
H528   C544    1.075   .     S
N529   C788    1.368   1_455 A
N529   Cu533   2.036   .     S
N529   C538    1.370   .     S
N530   Cu534   2.036   .     S
N530   C539    1.369   .     A
N530   C785    1.370   1_455 S
N531   Cu535   2.036   .     S
N531   C542    1.368   .     S
N532   C543    1.364   .     A
N532   Cu536   2.036   .     S
Cu533  Cu534   2.710   .     S
Cu533  O752    1.993   1_455 S
Cu533  O747    1.987   1_455 S
Cu534  O749    1.991   1_455 S
Cu534  O746    1.993   1_455 S
Cu535  Cu536   2.710   .     S
C537   N778    1.370   .     S
C537   C2524   1.419   1_554 S
C538   C1531   1.421   .     S
C539   C2522   1.421   1_554 S
C540   N777    1.368   .     A
C540   C1529   1.419   .     S
C541   N36     1.370   1_565 S
C541   C2528   1.420   1_554 S
C542   C1535   1.418   .     S
C543   C2526   1.418   1_554 S
C544   N35     1.369   1_565 A
C544   C1533   1.420   .     S
C545   O569    1.381   .     S
C545   C562    1.409   .     A
C545   C555    1.393   .     A
C546   O580    1.371   .     S
C546   C556    1.389   .     A
C546   C561    1.394   .     A
C547   C561    1.408   .     A
C547   C553    1.398   .     A
C547   O591    1.383   .     S
C548   O602    1.390   .     S
C548   C554    1.402   .     A
C548   C562    1.414   .     A
C549   C559    1.394   .     A
C549   O613    1.383   .     S
C549   C564    1.404   .     A
C550   C563    1.402   .     A
C550   O624    1.381   .     S
C550   C560    1.395   .     A
C551   O635    1.383   .     S
C551   C563    1.423   .     A
C551   C557    1.398   .     A
C552   C558    1.413   .     A
C552   O646    1.389   .     S
C552   C564    1.409   .     A
C553   C566    1.424   .     A
C553   O657    1.386   .     S
C554   C565    1.428   .     A
C554   O668    1.386   .     S
C555   C565    1.415   .     A
C555   O679    1.387   .     S
C556   O690    1.381   .     S
C556   C566    1.411   .     A
C557   C568    1.411   .     A
C557   O701    1.385   .     S
C558   O712    1.390   .     S
C558   C567    1.421   .     A
C559   O723    1.383   .     S
C559   C567    1.417   .     A
C560   O734    1.380   .     S
C560   C568    1.404   .     A
O569   C570    1.416   .     S
C570   H572    1.110   .     S
C570   C573    1.518   .     S
C570   H571    1.117   .     S
C573   H575    1.110   .     S
C573   H574    1.109   .     S
C573   C576    1.512   .     S
C576   H579    1.102   .     S
C576   H578    1.105   .     S
C576   H577    1.107   .     S
O580   C581    1.415   .     S
C581   H582    1.112   .     S
C581   C584    1.508   .     S
C581   H583    1.119   .     S
C584   C587    1.516   .     S
C584   H586    1.097   .     S
C584   H585    1.106   .     S
C587   H590    1.109   .     S
C587   H836    1.109   1_455 S
C587   H1581   1.102   .     S
H588   C835    1.109   .     S
H589   C2571   1.102   1_554 S
O591   C592    1.421   .     S
C592   C595    1.521   .     S
C592   H594    1.118   .     S
C592   H593    1.111   .     S
C595   H596    1.106   .     S
C595   H597    1.110   .     S
C595   C598    1.524   .     S
C598   H601    1.109   .     S
C598   H600    1.106   .     S
C598   H599    1.110   .     S
O602   C603    1.421   .     S
C603   H605    1.106   .     S
C603   H604    1.104   .     S
C603   C606    1.540   .     S
C606   H608    1.105   .     S
C606   H607    1.111   .     S
C606   C857    1.527   .     S
C609   H610    1.101   .     S
C609   H612    1.107   .     S
C609   C854    1.527   1_455 S
C609   H1603   1.107   .     S
H611   C2593   1.107   1_554 S
O613   C614    1.421   .     S
C614   H615    1.107   .     S
C614   H616    1.114   .     S
C614   C617    1.544   .     S
C617   H618    1.107   .     S
C617   H619    1.111   .     S
C617   C620    1.529   .     S
C620   H623    1.111   .     S
C620   H622    1.110   .     S
C620   H621    1.109   .     S
O624   C625    1.416   .     S
C625   H627    1.102   .     S
C625   C628    1.547   .     S
C625   H626    1.113   .     S
C628   H629    1.105   .     S
C628   H630    1.112   .     S
C628   C631    1.526   .     S
C631   H632    1.104   .     S
C631   H881    1.110   .     S
C631   H882    1.108   .     S
H633   C879    1.110   1_455 S
H634   C879    1.108   1_455 S
O635   C636    1.417   .     S
C636   C639    1.532   .     S
C636   H638    1.116   .     S
C636   H637    1.111   .     S
C639   C642    1.526   .     S
C639   H640    1.110   .     S
C639   H641    1.109   .     S
C642   H644    1.102   .     S
C642   H643    1.111   .     S
C642   H645    1.107   .     S
O646   C647    1.421   .     S
C647   C650    1.532   .     S
C647   H648    1.111   .     S
C647   H649    1.114   .     S
C650   H652    1.109   .     S
C650   H651    1.111   .     S
C650   C901    1.525   1_455 S
C653   H656    1.108   .     S
C653   H655    1.109   .     S
C653   C898    1.525   .     S
C653   H902    1.106   .     S
H654   C901    1.106   1_455 S
O657   C658    1.422   .     S
C658   H659    1.109   .     S
C658   C661    1.520   .     S
C658   H660    1.118   .     S
C661   H662    1.110   .     S
C661   C664    1.530   .     S
C661   H663    1.109   .     S
C664   H666    1.105   .     S
C664   H665    1.109   .     S
C664   H171    1.111   1_565 S
O668   C669    1.419   .     S
C669   H671    1.118   .     S
C669   C672    1.525   .     S
C669   H670    1.112   .     S
C672   C675    1.525   .     S
C672   H673    1.110   .     S
C672   H674    1.110   .     S
C675   H678    1.105   .     S
C675   H676    1.109   .     S
C675   H677    1.104   .     S
O679   C680    1.416   .     S
C680   H681    1.110   .     S
C680   C683    1.528   .     S
C680   H682    1.118   .     S
C683   C686    1.524   .     S
C683   H685    1.109   .     S
C683   H684    1.110   .     S
C686   H687    1.105   .     S
C686   H688    1.104   .     S
H689   C190    1.108   1_565 S
O690   C691    1.417   .     S
C691   H693    1.117   .     S
C691   H692    1.108   .     S
C691   C694    1.541   .     S
C694   H695    1.111   .     S
C694   C697    1.518   .     S
C694   H696    1.105   .     S
C697   H700    1.103   .     S
C697   H699    1.105   .     S
C697   H698    1.111   .     S
O701   C702    1.417   .     S
C702   H703    1.110   .     S
C702   C705    1.519   .     S
C702   H704    1.112   .     S
C705   H706    1.110   .     S
C705   H707    1.111   .     S
C705   C212    1.517   1_565 S
C708   H711    1.109   .     S
C708   H710    1.105   .     S
C708   H709    1.110   .     S
O712   C713    1.425   .     S
C713   C716    1.524   .     S
C713   H714    1.115   .     S
C713   H715    1.112   .     S
C716   H718    1.110   .     S
C716   H717    1.105   .     S
C716   C719    1.528   .     S
C719   H722    1.104   .     S
C719   H720    1.110   .     S
C719   H721    1.107   .     S
O723   C724    1.430   .     S
C724   H726    1.107   .     S
C724   H725    1.110   .     S
C724   C727    1.556   .     S
C727   C730    1.527   .     S
C727   H729    1.107   .     S
C727   H728    1.111   .     S
C730   H731    1.108   .     S
H732   C234    1.107   1_565 S
H733   C234    1.106   1_565 S
O734   C735    1.420   .     S
C735   H736    1.114   .     S
C735   H737    1.116   .     S
C735   C738    1.517   .     S
C738   H740    1.109   .     S
C738   C741    1.522   .     S
C738   H739    1.107   .     S
C741   H742    1.107   .     S
C741   H743    1.104   .     S
C741   H744    1.110   .     S
O745   Cu781   1.993   .     S
O745   C761    1.305   .     A
O746   C762    1.316   .     A
O746   Cu534   1.993   1_655 S
O747   C762    1.298   .     A
O747   Cu533   1.987   1_655 S
O748   C761    1.303   .     A
O748   Cu782   1.987   .     S
O749   C763    1.305   .     A
O749   Cu534   1.991   1_655 S
O750   Cu781   1.991   .     S
O750   C764    1.309   .     A
O751   Cu782   1.993   .     S
O751   C764    1.298   .     A
O752   C763    1.305   .     A
O752   Cu533   1.993   1_655 S
O753   Cu287   1.993   1_565 S
O753   C765    1.303   .     A
O754   C766    1.309   .     A
O754   Cu784   1.993   .     S
O755   C766    1.309   .     A
O755   Cu783   1.987   .     S
O756   C765    1.305   .     A
O756   Cu288   1.987   1_565 S
O757   C767    1.302   .     A
O757   Cu288   1.991   1_565 S
O758   C768    1.306   .     A
O758   Cu783   1.991   .     S
O759   C768    1.311   .     A
O759   Cu784   1.993   .     S
O760   C767    1.312   .     A
O760   Cu287   1.993   1_565 S
C761   C812    1.470   .     S
C762   C811    1.481   .     S
C763   C810    1.472   .     S
C764   C809    1.469   .     S
C765   C816    1.469   .     S
C766   C815    1.487   .     S
C767   C814    1.480   .     S
C768   C813    1.486   .     S
H769   C785    1.079   .     S
H770   C786    1.076   .     S
H771   C787    1.079   .     S
H772   C788    1.074   .     S
H773   C789    1.079   .     S
H774   C790    1.069   .     S
H775   C791    1.072   .     S
H776   C792    1.075   .     S
N777   Cu781   2.036   .     S
N777   C786    1.370   .     S
N778   Cu782   2.036   .     S
N778   C787    1.369   .     A
N779   Cu783   2.036   .     S
N779   C790    1.368   .     S
N780   C791    1.364   .     A
N780   Cu784   2.036   .     S
Cu781  Cu782   2.710   .     S
Cu783  Cu784   2.710   .     S
C785   N530    1.370   1_655 S
C785   C2772   1.419   1_554 S
C786   C1779   1.421   .     S
C787   C2770   1.421   1_554 S
C788   N529    1.368   1_655 A
C788   C1777   1.419   .     S
C789   N284    1.370   1_565 S
C789   C2776   1.420   1_554 S
C790   C1783   1.418   .     S
C791   C2774   1.418   1_554 S
C792   N283    1.369   1_565 A
C792   C1781   1.420   .     S
C793   O817    1.381   .     S
C793   C810    1.409   .     A
C793   C803    1.393   .     A
C794   O828    1.371   .     S
C794   C804    1.389   .     A
C794   C809    1.394   .     A
C795   C809    1.408   .     A
C795   C801    1.398   .     A
C795   O839    1.383   .     S
C796   O850    1.390   .     S
C796   C802    1.402   .     A
C796   C810    1.414   .     A
C797   C807    1.394   .     A
C797   O861    1.383   .     S
C797   C812    1.404   .     A
C798   C811    1.402   .     A
C798   O872    1.381   .     S
C798   C808    1.395   .     A
C799   O883    1.383   .     S
C799   C811    1.423   .     A
C799   C805    1.398   .     A
C800   C806    1.413   .     A
C800   O894    1.389   .     S
C800   C812    1.409   .     A
C801   C814    1.424   .     A
C801   O905    1.386   .     S
C802   C813    1.428   .     A
C802   O916    1.386   .     S
C803   C813    1.415   .     A
C803   O927    1.387   .     S
C804   O938    1.381   .     S
C804   C814    1.411   .     A
C805   C816    1.411   .     A
C805   O949    1.385   .     S
C806   O960    1.390   .     S
C806   C815    1.421   .     A
C807   O971    1.383   .     S
C807   C815    1.417   .     A
C808   O982    1.380   .     S
C808   C816    1.404   .     A
O817   C818    1.416   .     S
C818   H820    1.110   .     S
C818   C821    1.518   .     S
C818   H819    1.117   .     S
C821   H823    1.110   .     S
C821   H822    1.109   .     S
C821   C824    1.512   .     S
C824   H827    1.102   .     S
C824   H826    1.105   .     S
C824   H825    1.107   .     S
O828   C829    1.415   .     S
C829   H830    1.112   .     S
C829   C832    1.508   .     S
C829   H831    1.119   .     S
C832   C835    1.516   .     S
C832   H834    1.097   .     S
C832   H833    1.106   .     S
C835   H838    1.109   .     S
C835   H1829   1.102   .     S
H836   C587    1.109   1_655 S
H837   C2819   1.102   1_554 S
O839   C840    1.421   .     S
C840   C843    1.521   .     S
C840   H842    1.118   .     S
C840   H841    1.111   .     S
C843   H844    1.106   .     S
C843   H845    1.110   .     S
C843   C846    1.524   .     S
C846   H849    1.109   .     S
C846   H848    1.106   .     S
C846   H847    1.110   .     S
O850   C851    1.421   .     S
C851   H853    1.106   .     S
C851   H852    1.104   .     S
C851   C854    1.540   .     S
C854   H856    1.105   .     S
C854   H855    1.111   .     S
C854   C609    1.527   1_655 S
C857   H858    1.101   .     S
C857   H860    1.107   .     S
C857   H1851   1.107   .     S
H859   C2841   1.107   1_554 S
O861   C862    1.421   .     S
C862   H863    1.107   .     S
C862   H864    1.114   .     S
C862   C865    1.544   .     S
C865   H866    1.107   .     S
C865   H867    1.111   .     S
C865   C868    1.529   .     S
C868   H871    1.111   .     S
C868   H870    1.110   .     S
C868   H869    1.109   .     S
O872   C873    1.416   .     S
C873   H875    1.102   .     S
C873   C876    1.547   .     S
C873   H874    1.113   .     S
C876   H877    1.105   .     S
C876   H878    1.112   .     S
C876   C879    1.526   .     S
C879   H880    1.104   .     S
C879   H633    1.110   1_655 S
C879   H634    1.108   1_655 S
O883   C884    1.417   .     S
C884   C887    1.532   .     S
C884   H886    1.116   .     S
C884   H885    1.111   .     S
C887   C890    1.526   .     S
C887   H888    1.110   .     S
C887   H889    1.109   .     S
C890   H892    1.102   .     S
C890   H891    1.111   .     S
C890   H893    1.107   .     S
O894   C895    1.421   .     S
C895   C898    1.532   .     S
C895   H896    1.111   .     S
C895   H897    1.114   .     S
C898   H900    1.109   .     S
C898   H899    1.111   .     S
C901   H904    1.108   .     S
C901   H903    1.109   .     S
C901   C650    1.525   1_655 S
C901   H654    1.106   1_655 S
O905   C906    1.422   .     S
C906   H907    1.109   .     S
C906   C909    1.520   .     S
C906   H908    1.118   .     S
C909   H910    1.110   .     S
C909   C912    1.530   .     S
C909   H911    1.109   .     S
C912   H914    1.105   .     S
C912   H913    1.109   .     S
C912   H419    1.111   1_565 S
O916   C917    1.419   .     S
C917   H919    1.118   .     S
C917   C920    1.525   .     S
C917   H918    1.112   .     S
C920   C923    1.525   .     S
C920   H921    1.110   .     S
C920   H922    1.110   .     S
C923   H926    1.105   .     S
C923   H924    1.109   .     S
C923   H925    1.104   .     S
O927   C928    1.416   .     S
C928   H929    1.110   .     S
C928   C931    1.528   .     S
C928   H930    1.118   .     S
C931   C934    1.524   .     S
C931   H933    1.109   .     S
C931   H932    1.110   .     S
C934   H935    1.105   .     S
C934   H936    1.104   .     S
H937   C438    1.108   1_565 S
O938   C939    1.417   .     S
C939   H941    1.117   .     S
C939   H940    1.108   .     S
C939   C942    1.541   .     S
C942   H943    1.111   .     S
C942   C945    1.518   .     S
C942   H944    1.105   .     S
C945   H948    1.103   .     S
C945   H947    1.105   .     S
C945   H946    1.111   .     S
O949   C950    1.417   .     S
C950   H951    1.110   .     S
C950   C953    1.519   .     S
C950   H952    1.112   .     S
C953   H954    1.110   .     S
C953   H955    1.111   .     S
C953   C460    1.517   1_565 S
C956   H959    1.109   .     S
C956   H958    1.105   .     S
C956   H957    1.110   .     S
O960   C961    1.425   .     S
C961   C964    1.524   .     S
C961   H962    1.115   .     S
C961   H963    1.112   .     S
C964   H966    1.110   .     S
C964   H965    1.105   .     S
C964   C967    1.528   .     S
C967   H970    1.104   .     S
C967   H968    1.110   .     S
C967   H969    1.107   .     S
O971   C972    1.430   .     S
C972   H974    1.107   .     S
C972   H973    1.110   .     S
C972   C975    1.556   .     S
C975   C978    1.527   .     S
C975   H977    1.107   .     S
C975   H976    1.111   .     S
C978   H979    1.108   .     S
H980   C482    1.107   1_565 S
H981   C482    1.106   1_565 S
O982   C983    1.420   .     S
C983   H984    1.114   .     S
C983   H985    1.116   .     S
C983   C986    1.517   .     S
C986   H988    1.109   .     S
C986   C989    1.522   .     S
C986   H987    1.107   .     S
C989   H990    1.107   .     S
C989   H991    1.104   .     S
C989   H992    1.110   .     S
O993   Cu1029  1.993   .     S
O993   C1009   1.305   .     A
O994   C1010   1.316   .     A
O994   Cu1278  1.993   .     S
O995   C1010   1.298   .     A
O995   Cu1277  1.987   .     S
O996   C1009   1.303   .     A
O996   Cu1030  1.987   .     S
O997   C1011   1.305   .     A
O997   Cu1278  1.991   .     S
O998   Cu1029  1.991   .     S
O998   C1012   1.309   .     A
O999   Cu1030  1.993   .     S
O999   C1012   1.298   .     A
O1000  C1011   1.305   .     A
O1000  Cu1277  1.993   .     S
O1001  Cu1527  1.993   .     S
O1001  C1013   1.303   .     A
O1002  C1014   1.309   .     A
O1002  Cu1032  1.993   .     S
O1003  C1014   1.309   .     A
O1003  Cu1031  1.987   .     S
O1004  C1013   1.305   .     A
O1004  Cu1528  1.987   .     S
O1005  C1015   1.302   .     A
O1005  Cu1528  1.991   .     S
O1006  C1016   1.306   .     A
O1006  Cu1031  1.991   .     S
O1007  C1016   1.311   .     A
O1007  Cu1032  1.993   .     S
O1008  C1015   1.312   .     A
O1008  Cu1527  1.993   .     S
C1009  C1060   1.470   .     S
C1010  C1059   1.481   .     S
C1011  C1058   1.472   .     S
C1012  C1057   1.469   .     S
C1013  C1064   1.469   .     S
C1014  C1063   1.487   .     S
C1015  C1062   1.480   .     S
C1016  C1061   1.486   .     S
H1017  C1033   1.079   .     S
H1018  C1034   1.076   .     S
H1019  C1035   1.079   .     S
H1020  C1036   1.074   .     S
H1021  C1037   1.079   .     S
H1022  C1038   1.069   .     S
H1023  C1039   1.072   .     S
H1024  C1040   1.075   .     S
N1025  C1284   1.368   1_455 A
N1025  Cu1029  2.036   .     S
N1025  C1034   1.370   .     S
N1026  Cu1030  2.036   .     S
N1026  C1035   1.369   .     A
N1026  C1281   1.370   1_455 S
N1027  Cu1031  2.036   .     S
N1027  C1536   1.369   1_545 A
N1027  C1038   1.368   .     S
N1028  C1039   1.364   .     A
N1028  Cu1032  2.036   .     S
N1028  C1533   1.370   1_545 S
Cu1029 Cu1030  2.710   .     S
Cu1029 O1248   1.993   1_455 S
Cu1029 O1243   1.987   1_455 S
Cu1030 O1245   1.991   1_455 S
Cu1030 O1242   1.993   1_455 S
Cu1031 O1497   1.993   1_545 S
Cu1031 Cu1032  2.710   .     S
Cu1031 O1504   1.993   1_545 S
Cu1032 O1501   1.991   1_545 S
Cu1032 O1500   1.987   1_545 S
C1033  N1274   1.370   .     S
C1034  C2027   1.421   .     S
C1036  N1273   1.368   .     A
C1036  C2025   1.419   .     S
C1037  N1524   1.370   .     S
C1038  C2031   1.418   .     S
C1040  N1523   1.369   .     A
C1040  C2029   1.420   .     S
C1041  O1065   1.381   .     S
C1041  C1058   1.409   .     A
C1041  C1051   1.393   .     A
C1042  O1076   1.371   .     S
C1042  C1052   1.389   .     A
C1042  C1057   1.394   .     A
C1043  C1057   1.408   .     A
C1043  C1049   1.398   .     A
C1043  O1087   1.383   .     S
C1044  O1098   1.390   .     S
C1044  C1050   1.402   .     A
C1044  C1058   1.414   .     A
C1045  C1055   1.394   .     A
C1045  O1109   1.383   .     S
C1045  C1060   1.404   .     A
C1046  C1059   1.402   .     A
C1046  O1120   1.381   .     S
C1046  C1056   1.395   .     A
C1047  O1131   1.383   .     S
C1047  C1059   1.423   .     A
C1047  C1053   1.398   .     A
C1048  C1054   1.413   .     A
C1048  O1142   1.389   .     S
C1048  C1060   1.409   .     A
C1049  C1062   1.424   .     A
C1049  O1153   1.386   .     S
C1050  C1061   1.428   .     A
C1050  O1164   1.386   .     S
C1051  C1061   1.415   .     A
C1051  O1175   1.387   .     S
C1052  O1186   1.381   .     S
C1052  C1062   1.411   .     A
C1053  C1064   1.411   .     A
C1053  O1197   1.385   .     S
C1054  O1208   1.390   .     S
C1054  C1063   1.421   .     A
C1055  O1219   1.383   .     S
C1055  C1063   1.417   .     A
C1056  O1230   1.380   .     S
C1056  C1064   1.404   .     A
O1065  C1066   1.416   .     S
C1066  H1068   1.110   .     S
C1066  C1069   1.518   .     S
C1066  H1067   1.117   .     S
C1069  H1071   1.110   .     S
C1069  H1070   1.109   .     S
C1069  C1072   1.512   .     S
C1072  H1075   1.102   .     S
C1072  H1074   1.105   .     S
C1072  H1073   1.107   .     S
O1076  C1077   1.415   .     S
C1077  H1078   1.112   .     S
C1077  C1080   1.508   .     S
C1077  H1079   1.119   .     S
C1080  C1083   1.516   .     S
C1080  H1082   1.097   .     S
C1080  H1081   1.106   .     S
C1083  H1086   1.109   .     S
C1083  H1332   1.109   1_455 S
C1083  H2077   1.102   .     S
H1084  C1331   1.109   .     S
O1087  C1088   1.421   .     S
C1088  C1091   1.521   .     S
C1088  H1090   1.118   .     S
C1088  H1089   1.111   .     S
C1091  H1092   1.106   .     S
C1091  H1093   1.110   .     S
C1091  C1094   1.524   .     S
C1094  H1097   1.109   .     S
C1094  H1096   1.106   .     S
C1094  H1095   1.110   .     S
O1098  C1099   1.421   .     S
C1099  H1101   1.106   .     S
C1099  H1100   1.104   .     S
C1099  C1102   1.540   .     S
C1102  H1104   1.105   .     S
C1102  H1103   1.111   .     S
C1102  C1353   1.527   .     S
C1105  H1106   1.101   .     S
C1105  H1108   1.107   .     S
C1105  C1350   1.527   1_455 S
C1105  H2099   1.107   .     S
O1109  C1110   1.421   .     S
C1110  H1111   1.107   .     S
C1110  H1112   1.114   .     S
C1110  C1113   1.544   .     S
C1113  H1114   1.107   .     S
C1113  H1115   1.111   .     S
C1113  C1116   1.529   .     S
C1116  H1119   1.111   .     S
C1116  H1118   1.110   .     S
C1116  H1117   1.109   .     S
O1120  C1121   1.416   .     S
C1121  H1123   1.102   .     S
C1121  C1124   1.547   .     S
C1121  H1122   1.113   .     S
C1124  H1125   1.105   .     S
C1124  H1126   1.112   .     S
C1124  C1127   1.526   .     S
C1127  H1128   1.104   .     S
C1127  H1377   1.110   .     S
C1127  H1378   1.108   .     S
H1129  C1375   1.110   1_455 S
H1130  C1375   1.108   1_455 S
O1131  C1132   1.417   .     S
C1132  C1135   1.532   .     S
C1132  H1134   1.116   .     S
C1132  H1133   1.111   .     S
C1135  C1138   1.526   .     S
C1135  H1136   1.110   .     S
C1135  H1137   1.109   .     S
C1138  H1140   1.102   .     S
C1138  H1139   1.111   .     S
C1138  H1141   1.107   .     S
O1142  C1143   1.421   .     S
C1143  C1146   1.532   .     S
C1143  H1144   1.111   .     S
C1143  H1145   1.114   .     S
C1146  H1148   1.109   .     S
C1146  H1147   1.111   .     S
C1146  C1397   1.525   1_455 S
C1149  H1152   1.108   .     S
C1149  H1151   1.109   .     S
C1149  C1394   1.525   .     S
C1149  H1398   1.106   .     S
H1150  C1397   1.106   1_455 S
O1153  C1154   1.422   .     S
C1154  H1155   1.109   .     S
C1154  C1157   1.520   .     S
C1154  H1156   1.118   .     S
C1157  H1158   1.110   .     S
C1157  C1160   1.530   .     S
C1157  H1159   1.109   .     S
C1160  H1162   1.105   .     S
C1160  H1161   1.109   .     S
C1160  H1659   1.111   .     S
H1163  C1656   1.111   1_545 S
O1164  C1165   1.419   .     S
C1165  H1167   1.118   .     S
C1165  C1168   1.525   .     S
C1165  H1166   1.112   .     S
C1168  C1171   1.525   .     S
C1168  H1169   1.110   .     S
C1168  H1170   1.110   .     S
C1171  H1174   1.105   .     S
C1171  H1172   1.109   .     S
C1171  H1173   1.104   .     S
O1175  C1176   1.416   .     S
C1176  H1177   1.110   .     S
C1176  C1179   1.528   .     S
C1176  H1178   1.118   .     S
C1179  C1182   1.524   .     S
C1179  H1181   1.109   .     S
C1179  H1180   1.110   .     S
C1182  H1183   1.105   .     S
C1182  H1184   1.104   .     S
C1182  H1681   1.108   1_545 S
H1185  C1678   1.108   .     S
O1186  C1187   1.417   .     S
C1187  H1189   1.117   .     S
C1187  H1188   1.108   .     S
C1187  C1190   1.541   .     S
C1190  H1191   1.111   .     S
C1190  C1193   1.518   .     S
C1190  H1192   1.105   .     S
C1193  H1196   1.103   .     S
C1193  H1195   1.105   .     S
C1193  H1194   1.111   .     S
O1197  C1198   1.417   .     S
C1198  H1199   1.110   .     S
C1198  C1201   1.519   .     S
C1198  H1200   1.112   .     S
C1201  H1202   1.110   .     S
C1201  H1203   1.111   .     S
C1201  C1700   1.517   .     S
C1204  H1207   1.109   .     S
C1204  H1206   1.105   .     S
C1204  H1205   1.110   .     S
C1204  C1697   1.517   1_545 S
O1208  C1209   1.425   .     S
C1209  C1212   1.524   .     S
C1209  H1210   1.115   .     S
C1209  H1211   1.112   .     S
C1212  H1214   1.110   .     S
C1212  H1213   1.105   .     S
C1212  C1215   1.528   .     S
C1215  H1218   1.104   .     S
C1215  H1216   1.110   .     S
C1215  H1217   1.107   .     S
O1219  C1220   1.430   .     S
C1220  H1222   1.107   .     S
C1220  H1221   1.110   .     S
C1220  C1223   1.556   .     S
C1223  C1226   1.527   .     S
C1223  H1225   1.107   .     S
C1223  H1224   1.111   .     S
C1226  H1227   1.108   .     S
C1226  H1724   1.107   1_545 S
C1226  H1725   1.106   1_545 S
H1228  C1722   1.107   .     S
H1229  C1722   1.106   .     S
O1230  C1231   1.420   .     S
C1231  H1232   1.114   .     S
C1231  H1233   1.116   .     S
C1231  C1234   1.517   .     S
C1234  H1236   1.109   .     S
C1234  C1237   1.522   .     S
C1234  H1235   1.107   .     S
C1237  H1238   1.107   .     S
C1237  H1239   1.104   .     S
C1237  H1240   1.110   .     S
O1241  Cu1277  1.993   .     S
O1241  C1257   1.305   .     A
O1242  C1258   1.316   .     A
O1242  Cu1030  1.993   1_655 S
O1243  C1258   1.298   .     A
O1243  Cu1029  1.987   1_655 S
O1244  C1257   1.303   .     A
O1244  Cu1278  1.987   .     S
O1245  C1259   1.305   .     A
O1245  Cu1030  1.991   1_655 S
O1246  Cu1277  1.991   .     S
O1246  C1260   1.309   .     A
O1247  Cu1278  1.993   .     S
O1247  C1260   1.298   .     A
O1248  C1259   1.305   .     A
O1248  Cu1029  1.993   1_655 S
O1249  Cu1775  1.993   .     S
O1249  C1261   1.303   .     A
O1250  C1262   1.309   .     A
O1250  Cu1280  1.993   .     S
O1251  C1262   1.309   .     A
O1251  Cu1279  1.987   .     S
O1252  C1261   1.305   .     A
O1252  Cu1776  1.987   .     S
O1253  C1263   1.302   .     A
O1253  Cu1776  1.991   .     S
O1254  C1264   1.306   .     A
O1254  Cu1279  1.991   .     S
O1255  C1264   1.311   .     A
O1255  Cu1280  1.993   .     S
O1256  C1263   1.312   .     A
O1256  Cu1775  1.993   .     S
C1257  C1308   1.470   .     S
C1258  C1307   1.481   .     S
C1259  C1306   1.472   .     S
C1260  C1305   1.469   .     S
C1261  C1312   1.469   .     S
C1262  C1311   1.487   .     S
C1263  C1310   1.480   .     S
C1264  C1309   1.486   .     S
H1265  C1281   1.079   .     S
H1266  C1282   1.076   .     S
H1267  C1283   1.079   .     S
H1268  C1284   1.074   .     S
H1269  C1285   1.079   .     S
H1270  C1286   1.069   .     S
H1271  C1287   1.072   .     S
H1272  C1288   1.075   .     S
N1273  Cu1277  2.036   .     S
N1273  C1282   1.370   .     S
N1274  Cu1278  2.036   .     S
N1274  C1283   1.369   .     A
N1275  Cu1279  2.036   .     S
N1275  C1784   1.369   1_545 A
N1275  C1286   1.368   .     S
N1276  C1287   1.364   .     A
N1276  Cu1280  2.036   .     S
N1276  C1781   1.370   1_545 S
Cu1277 Cu1278  2.710   .     S
Cu1279 O1745   1.993   1_545 S
Cu1279 Cu1280  2.710   .     S
Cu1279 O1752   1.993   1_545 S
Cu1280 O1749   1.991   1_545 S
Cu1280 O1748   1.987   1_545 S
C1281  N1026   1.370   1_655 S
C1282  C2275   1.421   .     S
C1284  N1025   1.368   1_655 A
C1284  C2273   1.419   .     S
C1285  N1772   1.370   .     S
C1286  C2279   1.418   .     S
C1288  N1771   1.369   .     A
C1288  C2277   1.420   .     S
C1289  O1313   1.381   .     S
C1289  C1306   1.409   .     A
C1289  C1299   1.393   .     A
C1290  O1324   1.371   .     S
C1290  C1300   1.389   .     A
C1290  C1305   1.394   .     A
C1291  C1305   1.408   .     A
C1291  C1297   1.398   .     A
C1291  O1335   1.383   .     S
C1292  O1346   1.390   .     S
C1292  C1298   1.402   .     A
C1292  C1306   1.414   .     A
C1293  C1303   1.394   .     A
C1293  O1357   1.383   .     S
C1293  C1308   1.404   .     A
C1294  C1307   1.402   .     A
C1294  O1368   1.381   .     S
C1294  C1304   1.395   .     A
C1295  O1379   1.383   .     S
C1295  C1307   1.423   .     A
C1295  C1301   1.398   .     A
C1296  C1302   1.413   .     A
C1296  O1390   1.389   .     S
C1296  C1308   1.409   .     A
C1297  C1310   1.424   .     A
C1297  O1401   1.386   .     S
C1298  C1309   1.428   .     A
C1298  O1412   1.386   .     S
C1299  C1309   1.415   .     A
C1299  O1423   1.387   .     S
C1300  O1434   1.381   .     S
C1300  C1310   1.411   .     A
C1301  C1312   1.411   .     A
C1301  O1445   1.385   .     S
C1302  O1456   1.390   .     S
C1302  C1311   1.421   .     A
C1303  O1467   1.383   .     S
C1303  C1311   1.417   .     A
C1304  O1478   1.380   .     S
C1304  C1312   1.404   .     A
O1313  C1314   1.416   .     S
C1314  H1316   1.110   .     S
C1314  C1317   1.518   .     S
C1314  H1315   1.117   .     S
C1317  H1319   1.110   .     S
C1317  H1318   1.109   .     S
C1317  C1320   1.512   .     S
C1320  H1323   1.102   .     S
C1320  H1322   1.105   .     S
C1320  H1321   1.107   .     S
O1324  C1325   1.415   .     S
C1325  H1326   1.112   .     S
C1325  C1328   1.508   .     S
C1325  H1327   1.119   .     S
C1328  C1331   1.516   .     S
C1328  H1330   1.097   .     S
C1328  H1329   1.106   .     S
C1331  H1334   1.109   .     S
C1331  H2325   1.102   .     S
H1332  C1083   1.109   1_655 S
O1335  C1336   1.421   .     S
C1336  C1339   1.521   .     S
C1336  H1338   1.118   .     S
C1336  H1337   1.111   .     S
C1339  H1340   1.106   .     S
C1339  H1341   1.110   .     S
C1339  C1342   1.524   .     S
C1342  H1345   1.109   .     S
C1342  H1344   1.106   .     S
C1342  H1343   1.110   .     S
O1346  C1347   1.421   .     S
C1347  H1349   1.106   .     S
C1347  H1348   1.104   .     S
C1347  C1350   1.540   .     S
C1350  H1352   1.105   .     S
C1350  H1351   1.111   .     S
C1350  C1105   1.527   1_655 S
C1353  H1354   1.101   .     S
C1353  H1356   1.107   .     S
C1353  H2347   1.107   .     S
O1357  C1358   1.421   .     S
C1358  H1359   1.107   .     S
C1358  H1360   1.114   .     S
C1358  C1361   1.544   .     S
C1361  H1362   1.107   .     S
C1361  H1363   1.111   .     S
C1361  C1364   1.529   .     S
C1364  H1367   1.111   .     S
C1364  H1366   1.110   .     S
C1364  H1365   1.109   .     S
O1368  C1369   1.416   .     S
C1369  H1371   1.102   .     S
C1369  C1372   1.547   .     S
C1369  H1370   1.113   .     S
C1372  H1373   1.105   .     S
C1372  H1374   1.112   .     S
C1372  C1375   1.526   .     S
C1375  H1376   1.104   .     S
C1375  H1129   1.110   1_655 S
C1375  H1130   1.108   1_655 S
O1379  C1380   1.417   .     S
C1380  C1383   1.532   .     S
C1380  H1382   1.116   .     S
C1380  H1381   1.111   .     S
C1383  C1386   1.526   .     S
C1383  H1384   1.110   .     S
C1383  H1385   1.109   .     S
C1386  H1388   1.102   .     S
C1386  H1387   1.111   .     S
C1386  H1389   1.107   .     S
O1390  C1391   1.421   .     S
C1391  C1394   1.532   .     S
C1391  H1392   1.111   .     S
C1391  H1393   1.114   .     S
C1394  H1396   1.109   .     S
C1394  H1395   1.111   .     S
C1397  H1400   1.108   .     S
C1397  H1399   1.109   .     S
C1397  C1146   1.525   1_655 S
C1397  H1150   1.106   1_655 S
O1401  C1402   1.422   .     S
C1402  H1403   1.109   .     S
C1402  C1405   1.520   .     S
C1402  H1404   1.118   .     S
C1405  H1406   1.110   .     S
C1405  C1408   1.530   .     S
C1405  H1407   1.109   .     S
C1408  H1410   1.105   .     S
C1408  H1409   1.109   .     S
C1408  H1907   1.111   .     S
H1411  C1904   1.111   1_545 S
O1412  C1413   1.419   .     S
C1413  H1415   1.118   .     S
C1413  C1416   1.525   .     S
C1413  H1414   1.112   .     S
C1416  C1419   1.525   .     S
C1416  H1417   1.110   .     S
C1416  H1418   1.110   .     S
C1419  H1422   1.105   .     S
C1419  H1420   1.109   .     S
C1419  H1421   1.104   .     S
O1423  C1424   1.416   .     S
C1424  H1425   1.110   .     S
C1424  C1427   1.528   .     S
C1424  H1426   1.118   .     S
C1427  C1430   1.524   .     S
C1427  H1429   1.109   .     S
C1427  H1428   1.110   .     S
C1430  H1431   1.105   .     S
C1430  H1432   1.104   .     S
C1430  H1929   1.108   1_545 S
H1433  C1926   1.108   .     S
O1434  C1435   1.417   .     S
C1435  H1437   1.117   .     S
C1435  H1436   1.108   .     S
C1435  C1438   1.541   .     S
C1438  H1439   1.111   .     S
C1438  C1441   1.518   .     S
C1438  H1440   1.105   .     S
C1441  H1444   1.103   .     S
C1441  H1443   1.105   .     S
C1441  H1442   1.111   .     S
O1445  C1446   1.417   .     S
C1446  H1447   1.110   .     S
C1446  C1449   1.519   .     S
C1446  H1448   1.112   .     S
C1449  H1450   1.110   .     S
C1449  H1451   1.111   .     S
C1449  C1948   1.517   .     S
C1452  H1455   1.109   .     S
C1452  H1454   1.105   .     S
C1452  H1453   1.110   .     S
C1452  C1945   1.517   1_545 S
O1456  C1457   1.425   .     S
C1457  C1460   1.524   .     S
C1457  H1458   1.115   .     S
C1457  H1459   1.112   .     S
C1460  H1462   1.110   .     S
C1460  H1461   1.105   .     S
C1460  C1463   1.528   .     S
C1463  H1466   1.104   .     S
C1463  H1464   1.110   .     S
C1463  H1465   1.107   .     S
O1467  C1468   1.430   .     S
C1468  H1470   1.107   .     S
C1468  H1469   1.110   .     S
C1468  C1471   1.556   .     S
C1471  C1474   1.527   .     S
C1471  H1473   1.107   .     S
C1471  H1472   1.111   .     S
C1474  H1475   1.108   .     S
C1474  H1972   1.107   1_545 S
C1474  H1973   1.106   1_545 S
H1476  C1970   1.107   .     S
H1477  C1970   1.106   .     S
O1478  C1479   1.420   .     S
C1479  H1480   1.114   .     S
C1479  H1481   1.116   .     S
C1479  C1482   1.517   .     S
C1482  H1484   1.109   .     S
C1482  C1485   1.522   .     S
C1482  H1483   1.107   .     S
C1485  H1486   1.107   .     S
C1485  H1487   1.104   .     S
C1485  H1488   1.110   .     S
O1489  Cu1525  1.993   .     S
O1489  C1505   1.305   .     A
O1490  C1506   1.316   .     A
O1490  Cu1774  1.993   .     S
O1491  C1506   1.298   .     A
O1491  Cu1773  1.987   .     S
O1492  C1505   1.303   .     A
O1492  Cu1526  1.987   .     S
O1493  C1507   1.305   .     A
O1493  Cu1774  1.991   .     S
O1494  Cu1525  1.991   .     S
O1494  C1508   1.309   .     A
O1495  Cu1526  1.993   .     S
O1495  C1508   1.298   .     A
O1496  C1507   1.305   .     A
O1496  Cu1773  1.993   .     S
O1497  Cu1031  1.993   1_565 S
O1497  C1509   1.303   .     A
O1498  C1510   1.309   .     A
O1498  Cu1528  1.993   .     S
O1499  C1510   1.309   .     A
O1499  Cu1527  1.987   .     S
O1500  C1509   1.305   .     A
O1500  Cu1032  1.987   1_565 S
O1501  C1511   1.302   .     A
O1501  Cu1032  1.991   1_565 S
O1502  C1512   1.306   .     A
O1502  Cu1527  1.991   .     S
O1503  C1512   1.311   .     A
O1503  Cu1528  1.993   .     S
O1504  C1511   1.312   .     A
O1504  Cu1031  1.993   1_565 S
C1505  C1556   1.470   .     S
C1506  C1555   1.481   .     S
C1507  C1554   1.472   .     S
C1508  C1553   1.469   .     S
C1509  C1560   1.469   .     S
C1510  C1559   1.487   .     S
C1511  C1558   1.480   .     S
C1512  C1557   1.486   .     S
H1513  C1529   1.079   .     S
H1514  C1530   1.076   .     S
H1515  C1531   1.079   .     S
H1516  C1532   1.074   .     S
H1517  C1533   1.079   .     S
H1518  C1534   1.069   .     S
H1519  C1535   1.072   .     S
H1520  C1536   1.075   .     S
N1521  C1780   1.368   1_455 A
N1521  Cu1525  2.036   .     S
N1521  C1530   1.370   .     S
N1522  Cu1526  2.036   .     S
N1522  C1531   1.369   .     A
N1522  C1777   1.370   1_455 S
N1523  Cu1527  2.036   .     S
N1523  C1534   1.368   .     S
N1524  C1535   1.364   .     A
N1524  Cu1528  2.036   .     S
Cu1525 Cu1526  2.710   .     S
Cu1525 O1744   1.993   1_455 S
Cu1525 O1739   1.987   1_455 S
Cu1526 O1741   1.991   1_455 S
Cu1526 O1738   1.993   1_455 S
Cu1527 Cu1528  2.710   .     S
C1529  N1770   1.370   .     S
C1530  C2523   1.421   .     S
C1532  N1769   1.368   .     A
C1532  C2521   1.419   .     S
C1533  N1028   1.370   1_565 S
C1534  C2527   1.418   .     S
C1536  N1027   1.369   1_565 A
C1536  C2525   1.420   .     S
C1537  O1561   1.381   .     S
C1537  C1554   1.409   .     A
C1537  C1547   1.393   .     A
C1538  O1572   1.371   .     S
C1538  C1548   1.389   .     A
C1538  C1553   1.394   .     A
C1539  C1553   1.408   .     A
C1539  C1545   1.398   .     A
C1539  O1583   1.383   .     S
C1540  O1594   1.390   .     S
C1540  C1546   1.402   .     A
C1540  C1554   1.414   .     A
C1541  C1551   1.394   .     A
C1541  O1605   1.383   .     S
C1541  C1556   1.404   .     A
C1542  C1555   1.402   .     A
C1542  O1616   1.381   .     S
C1542  C1552   1.395   .     A
C1543  O1627   1.383   .     S
C1543  C1555   1.423   .     A
C1543  C1549   1.398   .     A
C1544  C1550   1.413   .     A
C1544  O1638   1.389   .     S
C1544  C1556   1.409   .     A
C1545  C1558   1.424   .     A
C1545  O1649   1.386   .     S
C1546  C1557   1.428   .     A
C1546  O1660   1.386   .     S
C1547  C1557   1.415   .     A
C1547  O1671   1.387   .     S
C1548  O1682   1.381   .     S
C1548  C1558   1.411   .     A
C1549  C1560   1.411   .     A
C1549  O1693   1.385   .     S
C1550  O1704   1.390   .     S
C1550  C1559   1.421   .     A
C1551  O1715   1.383   .     S
C1551  C1559   1.417   .     A
C1552  O1726   1.380   .     S
C1552  C1560   1.404   .     A
O1561  C1562   1.416   .     S
C1562  H1564   1.110   .     S
C1562  C1565   1.518   .     S
C1562  H1563   1.117   .     S
C1565  H1567   1.110   .     S
C1565  H1566   1.109   .     S
C1565  C1568   1.512   .     S
C1568  H1571   1.102   .     S
C1568  H1570   1.105   .     S
C1568  H1569   1.107   .     S
O1572  C1573   1.415   .     S
C1573  H1574   1.112   .     S
C1573  C1576   1.508   .     S
C1573  H1575   1.119   .     S
C1576  C1579   1.516   .     S
C1576  H1578   1.097   .     S
C1576  H1577   1.106   .     S
C1579  H1582   1.109   .     S
C1579  H1828   1.109   1_455 S
C1579  H2573   1.102   .     S
H1580  C1827   1.109   .     S
O1583  C1584   1.421   .     S
C1584  C1587   1.521   .     S
C1584  H1586   1.118   .     S
C1584  H1585   1.111   .     S
C1587  H1588   1.106   .     S
C1587  H1589   1.110   .     S
C1587  C1590   1.524   .     S
C1590  H1593   1.109   .     S
C1590  H1592   1.106   .     S
C1590  H1591   1.110   .     S
O1594  C1595   1.421   .     S
C1595  H1597   1.106   .     S
C1595  H1596   1.104   .     S
C1595  C1598   1.540   .     S
C1598  H1600   1.105   .     S
C1598  H1599   1.111   .     S
C1598  C1849   1.527   .     S
C1601  H1602   1.101   .     S
C1601  H1604   1.107   .     S
C1601  C1846   1.527   1_455 S
C1601  H2595   1.107   .     S
O1605  C1606   1.421   .     S
C1606  H1607   1.107   .     S
C1606  H1608   1.114   .     S
C1606  C1609   1.544   .     S
C1609  H1610   1.107   .     S
C1609  H1611   1.111   .     S
C1609  C1612   1.529   .     S
C1612  H1615   1.111   .     S
C1612  H1614   1.110   .     S
C1612  H1613   1.109   .     S
O1616  C1617   1.416   .     S
C1617  H1619   1.102   .     S
C1617  C1620   1.547   .     S
C1617  H1618   1.113   .     S
C1620  H1621   1.105   .     S
C1620  H1622   1.112   .     S
C1620  C1623   1.526   .     S
C1623  H1624   1.104   .     S
C1623  H1873   1.110   .     S
C1623  H1874   1.108   .     S
H1625  C1871   1.110   1_455 S
H1626  C1871   1.108   1_455 S
O1627  C1628   1.417   .     S
C1628  C1631   1.532   .     S
C1628  H1630   1.116   .     S
C1628  H1629   1.111   .     S
C1631  C1634   1.526   .     S
C1631  H1632   1.110   .     S
C1631  H1633   1.109   .     S
C1634  H1636   1.102   .     S
C1634  H1635   1.111   .     S
C1634  H1637   1.107   .     S
O1638  C1639   1.421   .     S
C1639  C1642   1.532   .     S
C1639  H1640   1.111   .     S
C1639  H1641   1.114   .     S
C1642  H1644   1.109   .     S
C1642  H1643   1.111   .     S
C1642  C1893   1.525   1_455 S
C1645  H1648   1.108   .     S
C1645  H1647   1.109   .     S
C1645  C1890   1.525   .     S
C1645  H1894   1.106   .     S
H1646  C1893   1.106   1_455 S
O1649  C1650   1.422   .     S
C1650  H1651   1.109   .     S
C1650  C1653   1.520   .     S
C1650  H1652   1.118   .     S
C1653  H1654   1.110   .     S
C1653  C1656   1.530   .     S
C1653  H1655   1.109   .     S
C1656  H1658   1.105   .     S
C1656  H1657   1.109   .     S
C1656  H1163   1.111   1_565 S
O1660  C1661   1.419   .     S
C1661  H1663   1.118   .     S
C1661  C1664   1.525   .     S
C1661  H1662   1.112   .     S
C1664  C1667   1.525   .     S
C1664  H1665   1.110   .     S
C1664  H1666   1.110   .     S
C1667  H1670   1.105   .     S
C1667  H1668   1.109   .     S
C1667  H1669   1.104   .     S
O1671  C1672   1.416   .     S
C1672  H1673   1.110   .     S
C1672  C1675   1.528   .     S
C1672  H1674   1.118   .     S
C1675  C1678   1.524   .     S
C1675  H1677   1.109   .     S
C1675  H1676   1.110   .     S
C1678  H1679   1.105   .     S
C1678  H1680   1.104   .     S
H1681  C1182   1.108   1_565 S
O1682  C1683   1.417   .     S
C1683  H1685   1.117   .     S
C1683  H1684   1.108   .     S
C1683  C1686   1.541   .     S
C1686  H1687   1.111   .     S
C1686  C1689   1.518   .     S
C1686  H1688   1.105   .     S
C1689  H1692   1.103   .     S
C1689  H1691   1.105   .     S
C1689  H1690   1.111   .     S
O1693  C1694   1.417   .     S
C1694  H1695   1.110   .     S
C1694  C1697   1.519   .     S
C1694  H1696   1.112   .     S
C1697  H1698   1.110   .     S
C1697  H1699   1.111   .     S
C1697  C1204   1.517   1_565 S
C1700  H1703   1.109   .     S
C1700  H1702   1.105   .     S
C1700  H1701   1.110   .     S
O1704  C1705   1.425   .     S
C1705  C1708   1.524   .     S
C1705  H1706   1.115   .     S
C1705  H1707   1.112   .     S
C1708  H1710   1.110   .     S
C1708  H1709   1.105   .     S
C1708  C1711   1.528   .     S
C1711  H1714   1.104   .     S
C1711  H1712   1.110   .     S
C1711  H1713   1.107   .     S
O1715  C1716   1.430   .     S
C1716  H1718   1.107   .     S
C1716  H1717   1.110   .     S
C1716  C1719   1.556   .     S
C1719  C1722   1.527   .     S
C1719  H1721   1.107   .     S
C1719  H1720   1.111   .     S
C1722  H1723   1.108   .     S
H1724  C1226   1.107   1_565 S
H1725  C1226   1.106   1_565 S
O1726  C1727   1.420   .     S
C1727  H1728   1.114   .     S
C1727  H1729   1.116   .     S
C1727  C1730   1.517   .     S
C1730  H1732   1.109   .     S
C1730  C1733   1.522   .     S
C1730  H1731   1.107   .     S
C1733  H1734   1.107   .     S
C1733  H1735   1.104   .     S
C1733  H1736   1.110   .     S
O1737  Cu1773  1.993   .     S
O1737  C1753   1.305   .     A
O1738  C1754   1.316   .     A
O1738  Cu1526  1.993   1_655 S
O1739  C1754   1.298   .     A
O1739  Cu1525  1.987   1_655 S
O1740  C1753   1.303   .     A
O1740  Cu1774  1.987   .     S
O1741  C1755   1.305   .     A
O1741  Cu1526  1.991   1_655 S
O1742  Cu1773  1.991   .     S
O1742  C1756   1.309   .     A
O1743  Cu1774  1.993   .     S
O1743  C1756   1.298   .     A
O1744  C1755   1.305   .     A
O1744  Cu1525  1.993   1_655 S
O1745  Cu1279  1.993   1_565 S
O1745  C1757   1.303   .     A
O1746  C1758   1.309   .     A
O1746  Cu1776  1.993   .     S
O1747  C1758   1.309   .     A
O1747  Cu1775  1.987   .     S
O1748  C1757   1.305   .     A
O1748  Cu1280  1.987   1_565 S
O1749  C1759   1.302   .     A
O1749  Cu1280  1.991   1_565 S
O1750  C1760   1.306   .     A
O1750  Cu1775  1.991   .     S
O1751  C1760   1.311   .     A
O1751  Cu1776  1.993   .     S
O1752  C1759   1.312   .     A
O1752  Cu1279  1.993   1_565 S
C1753  C1804   1.470   .     S
C1754  C1803   1.481   .     S
C1755  C1802   1.472   .     S
C1756  C1801   1.469   .     S
C1757  C1808   1.469   .     S
C1758  C1807   1.487   .     S
C1759  C1806   1.480   .     S
C1760  C1805   1.486   .     S
H1761  C1777   1.079   .     S
H1762  C1778   1.076   .     S
H1763  C1779   1.079   .     S
H1764  C1780   1.074   .     S
H1765  C1781   1.079   .     S
H1766  C1782   1.069   .     S
H1767  C1783   1.072   .     S
H1768  C1784   1.075   .     S
N1769  Cu1773  2.036   .     S
N1769  C1778   1.370   .     S
N1770  Cu1774  2.036   .     S
N1770  C1779   1.369   .     A
N1771  Cu1775  2.036   .     S
N1771  C1782   1.368   .     S
N1772  C1783   1.364   .     A
N1772  Cu1776  2.036   .     S
Cu1773 Cu1774  2.710   .     S
Cu1775 Cu1776  2.710   .     S
C1777  N1522   1.370   1_655 S
C1778  C2771   1.421   .     S
C1780  N1521   1.368   1_655 A
C1780  C2769   1.419   .     S
C1781  N1276   1.370   1_565 S
C1782  C2775   1.418   .     S
C1784  N1275   1.369   1_565 A
C1784  C2773   1.420   .     S
C1785  O1809   1.381   .     S
C1785  C1802   1.409   .     A
C1785  C1795   1.393   .     A
C1786  O1820   1.371   .     S
C1786  C1796   1.389   .     A
C1786  C1801   1.394   .     A
C1787  C1801   1.408   .     A
C1787  C1793   1.398   .     A
C1787  O1831   1.383   .     S
C1788  O1842   1.390   .     S
C1788  C1794   1.402   .     A
C1788  C1802   1.414   .     A
C1789  C1799   1.394   .     A
C1789  O1853   1.383   .     S
C1789  C1804   1.404   .     A
C1790  C1803   1.402   .     A
C1790  O1864   1.381   .     S
C1790  C1800   1.395   .     A
C1791  O1875   1.383   .     S
C1791  C1803   1.423   .     A
C1791  C1797   1.398   .     A
C1792  C1798   1.413   .     A
C1792  O1886   1.389   .     S
C1792  C1804   1.409   .     A
C1793  C1806   1.424   .     A
C1793  O1897   1.386   .     S
C1794  C1805   1.428   .     A
C1794  O1908   1.386   .     S
C1795  C1805   1.415   .     A
C1795  O1919   1.387   .     S
C1796  O1930   1.381   .     S
C1796  C1806   1.411   .     A
C1797  C1808   1.411   .     A
C1797  O1941   1.385   .     S
C1798  O1952   1.390   .     S
C1798  C1807   1.421   .     A
C1799  O1963   1.383   .     S
C1799  C1807   1.417   .     A
C1800  O1974   1.380   .     S
C1800  C1808   1.404   .     A
O1809  C1810   1.416   .     S
C1810  H1812   1.110   .     S
C1810  C1813   1.518   .     S
C1810  H1811   1.117   .     S
C1813  H1815   1.110   .     S
C1813  H1814   1.109   .     S
C1813  C1816   1.512   .     S
C1816  H1819   1.102   .     S
C1816  H1818   1.105   .     S
C1816  H1817   1.107   .     S
O1820  C1821   1.415   .     S
C1821  H1822   1.112   .     S
C1821  C1824   1.508   .     S
C1821  H1823   1.119   .     S
C1824  C1827   1.516   .     S
C1824  H1826   1.097   .     S
C1824  H1825   1.106   .     S
C1827  H1830   1.109   .     S
C1827  H2821   1.102   .     S
H1828  C1579   1.109   1_655 S
O1831  C1832   1.421   .     S
C1832  C1835   1.521   .     S
C1832  H1834   1.118   .     S
C1832  H1833   1.111   .     S
C1835  H1836   1.106   .     S
C1835  H1837   1.110   .     S
C1835  C1838   1.524   .     S
C1838  H1841   1.109   .     S
C1838  H1840   1.106   .     S
C1838  H1839   1.110   .     S
O1842  C1843   1.421   .     S
C1843  H1845   1.106   .     S
C1843  H1844   1.104   .     S
C1843  C1846   1.540   .     S
C1846  H1848   1.105   .     S
C1846  H1847   1.111   .     S
C1846  C1601   1.527   1_655 S
C1849  H1850   1.101   .     S
C1849  H1852   1.107   .     S
C1849  H2843   1.107   .     S
O1853  C1854   1.421   .     S
C1854  H1855   1.107   .     S
C1854  H1856   1.114   .     S
C1854  C1857   1.544   .     S
C1857  H1858   1.107   .     S
C1857  H1859   1.111   .     S
C1857  C1860   1.529   .     S
C1860  H1863   1.111   .     S
C1860  H1862   1.110   .     S
C1860  H1861   1.109   .     S
O1864  C1865   1.416   .     S
C1865  H1867   1.102   .     S
C1865  C1868   1.547   .     S
C1865  H1866   1.113   .     S
C1868  H1869   1.105   .     S
C1868  H1870   1.112   .     S
C1868  C1871   1.526   .     S
C1871  H1872   1.104   .     S
C1871  H1625   1.110   1_655 S
C1871  H1626   1.108   1_655 S
O1875  C1876   1.417   .     S
C1876  C1879   1.532   .     S
C1876  H1878   1.116   .     S
C1876  H1877   1.111   .     S
C1879  C1882   1.526   .     S
C1879  H1880   1.110   .     S
C1879  H1881   1.109   .     S
C1882  H1884   1.102   .     S
C1882  H1883   1.111   .     S
C1882  H1885   1.107   .     S
O1886  C1887   1.421   .     S
C1887  C1890   1.532   .     S
C1887  H1888   1.111   .     S
C1887  H1889   1.114   .     S
C1890  H1892   1.109   .     S
C1890  H1891   1.111   .     S
C1893  H1896   1.108   .     S
C1893  H1895   1.109   .     S
C1893  C1642   1.525   1_655 S
C1893  H1646   1.106   1_655 S
O1897  C1898   1.422   .     S
C1898  H1899   1.109   .     S
C1898  C1901   1.520   .     S
C1898  H1900   1.118   .     S
C1901  H1902   1.110   .     S
C1901  C1904   1.530   .     S
C1901  H1903   1.109   .     S
C1904  H1906   1.105   .     S
C1904  H1905   1.109   .     S
C1904  H1411   1.111   1_565 S
O1908  C1909   1.419   .     S
C1909  H1911   1.118   .     S
C1909  C1912   1.525   .     S
C1909  H1910   1.112   .     S
C1912  C1915   1.525   .     S
C1912  H1913   1.110   .     S
C1912  H1914   1.110   .     S
C1915  H1918   1.105   .     S
C1915  H1916   1.109   .     S
C1915  H1917   1.104   .     S
O1919  C1920   1.416   .     S
C1920  H1921   1.110   .     S
C1920  C1923   1.528   .     S
C1920  H1922   1.118   .     S
C1923  C1926   1.524   .     S
C1923  H1925   1.109   .     S
C1923  H1924   1.110   .     S
C1926  H1927   1.105   .     S
C1926  H1928   1.104   .     S
H1929  C1430   1.108   1_565 S
O1930  C1931   1.417   .     S
C1931  H1933   1.117   .     S
C1931  H1932   1.108   .     S
C1931  C1934   1.541   .     S
C1934  H1935   1.111   .     S
C1934  C1937   1.518   .     S
C1934  H1936   1.105   .     S
C1937  H1940   1.103   .     S
C1937  H1939   1.105   .     S
C1937  H1938   1.111   .     S
O1941  C1942   1.417   .     S
C1942  H1943   1.110   .     S
C1942  C1945   1.519   .     S
C1942  H1944   1.112   .     S
C1945  H1946   1.110   .     S
C1945  H1947   1.111   .     S
C1945  C1452   1.517   1_565 S
C1948  H1951   1.109   .     S
C1948  H1950   1.105   .     S
C1948  H1949   1.110   .     S
O1952  C1953   1.425   .     S
C1953  C1956   1.524   .     S
C1953  H1954   1.115   .     S
C1953  H1955   1.112   .     S
C1956  H1958   1.110   .     S
C1956  H1957   1.105   .     S
C1956  C1959   1.528   .     S
C1959  H1962   1.104   .     S
C1959  H1960   1.110   .     S
C1959  H1961   1.107   .     S
O1963  C1964   1.430   .     S
C1964  H1966   1.107   .     S
C1964  H1965   1.110   .     S
C1964  C1967   1.556   .     S
C1967  C1970   1.527   .     S
C1967  H1969   1.107   .     S
C1967  H1968   1.111   .     S
C1970  H1971   1.108   .     S
H1972  C1474   1.107   1_565 S
H1973  C1474   1.106   1_565 S
O1974  C1975   1.420   .     S
C1975  H1976   1.114   .     S
C1975  H1977   1.116   .     S
C1975  C1978   1.517   .     S
C1978  H1980   1.109   .     S
C1978  C1981   1.522   .     S
C1978  H1979   1.107   .     S
C1981  H1982   1.107   .     S
C1981  H1983   1.104   .     S
C1981  H1984   1.110   .     S
O1985  Cu2021  1.993   .     S
O1985  C2001   1.305   .     A
O1986  C2002   1.316   .     A
O1986  Cu2270  1.993   .     S
O1987  C2002   1.298   .     A
O1987  Cu2269  1.987   .     S
O1988  C2001   1.303   .     A
O1988  Cu2022  1.987   .     S
O1989  C2003   1.305   .     A
O1989  Cu2270  1.991   .     S
O1990  Cu2021  1.991   .     S
O1990  C2004   1.309   .     A
O1991  Cu2022  1.993   .     S
O1991  C2004   1.298   .     A
O1992  C2003   1.305   .     A
O1992  Cu2269  1.993   .     S
O1993  Cu2519  1.993   .     S
O1993  C2005   1.303   .     A
O1994  C2006   1.309   .     A
O1994  Cu2024  1.993   .     S
O1995  C2006   1.309   .     A
O1995  Cu2023  1.987   .     S
O1996  C2005   1.305   .     A
O1996  Cu2520  1.987   .     S
O1997  C2007   1.302   .     A
O1997  Cu2520  1.991   .     S
O1998  C2008   1.306   .     A
O1998  Cu2023  1.991   .     S
O1999  C2008   1.311   .     A
O1999  Cu2024  1.993   .     S
O2000  C2007   1.312   .     A
O2000  Cu2519  1.993   .     S
C2001  C2052   1.470   .     S
C2002  C2051   1.481   .     S
C2003  C2050   1.472   .     S
C2004  C2049   1.469   .     S
C2005  C2056   1.469   .     S
C2006  C2055   1.487   .     S
C2007  C2054   1.480   .     S
C2008  C2053   1.486   .     S
H2009  C2025   1.079   .     S
H2010  C2026   1.076   .     S
H2011  C2027   1.079   .     S
H2012  C2028   1.074   .     S
H2013  C2029   1.079   .     S
H2014  C2030   1.069   .     S
H2015  C2031   1.072   .     S
H2016  C2032   1.075   .     S
N2017  C2276   1.368   1_455 A
N2017  Cu2021  2.036   .     S
N2017  C2026   1.370   .     S
N2018  Cu2022  2.036   .     S
N2018  C2027   1.369   .     A
N2018  C2273   1.370   1_455 S
N2019  Cu2023  2.036   .     S
N2019  C2528   1.369   1_545 A
N2019  C2030   1.368   .     S
N2020  C2031   1.364   .     A
N2020  Cu2024  2.036   .     S
N2020  C2525   1.370   1_545 S
Cu2021 Cu2022  2.710   .     S
Cu2021 O2240   1.993   1_455 S
Cu2021 O2235   1.987   1_455 S
Cu2022 O2237   1.991   1_455 S
Cu2022 O2234   1.993   1_455 S
Cu2023 O2489   1.993   1_545 S
Cu2023 Cu2024  2.710   .     S
Cu2023 O2496   1.993   1_545 S
Cu2024 O2493   1.991   1_545 S
Cu2024 O2492   1.987   1_545 S
C2025  N2266   1.370   .     S
C2026  C43     1.421   1_556 S
C2028  N2265   1.368   .     A
C2028  C41     1.419   1_556 S
C2029  N2516   1.370   .     S
C2030  C47     1.418   1_556 S
C2032  N2515   1.369   .     A
C2032  C45     1.420   1_556 S
C2033  O2057   1.381   .     S
C2033  C2050   1.409   .     A
C2033  C2043   1.393   .     A
C2034  O2068   1.371   .     S
C2034  C2044   1.389   .     A
C2034  C2049   1.394   .     A
C2035  C2049   1.408   .     A
C2035  C2041   1.398   .     A
C2035  O2079   1.383   .     S
C2036  O2090   1.390   .     S
C2036  C2042   1.402   .     A
C2036  C2050   1.414   .     A
C2037  C2047   1.394   .     A
C2037  O2101   1.383   .     S
C2037  C2052   1.404   .     A
C2038  C2051   1.402   .     A
C2038  O2112   1.381   .     S
C2038  C2048   1.395   .     A
C2039  O2123   1.383   .     S
C2039  C2051   1.423   .     A
C2039  C2045   1.398   .     A
C2040  C2046   1.413   .     A
C2040  O2134   1.389   .     S
C2040  C2052   1.409   .     A
C2041  C2054   1.424   .     A
C2041  O2145   1.386   .     S
C2042  C2053   1.428   .     A
C2042  O2156   1.386   .     S
C2043  C2053   1.415   .     A
C2043  O2167   1.387   .     S
C2044  O2178   1.381   .     S
C2044  C2054   1.411   .     A
C2045  C2056   1.411   .     A
C2045  O2189   1.385   .     S
C2046  O2200   1.390   .     S
C2046  C2055   1.421   .     A
C2047  O2211   1.383   .     S
C2047  C2055   1.417   .     A
C2048  O2222   1.380   .     S
C2048  C2056   1.404   .     A
O2057  C2058   1.416   .     S
C2058  H2060   1.110   .     S
C2058  C2061   1.518   .     S
C2058  H2059   1.117   .     S
C2061  H2063   1.110   .     S
C2061  H2062   1.109   .     S
C2061  C2064   1.512   .     S
C2064  H2067   1.102   .     S
C2064  H2066   1.105   .     S
C2064  H2065   1.107   .     S
O2068  C2069   1.415   .     S
C2069  H2070   1.112   .     S
C2069  C2072   1.508   .     S
C2069  H2071   1.119   .     S
C2072  C2075   1.516   .     S
C2072  H2074   1.097   .     S
C2072  H2073   1.106   .     S
C2075  H2078   1.109   .     S
C2075  H2324   1.109   1_455 S
C2075  H93     1.102   1_556 S
H2076  C2323   1.109   .     S
O2079  C2080   1.421   .     S
C2080  C2083   1.521   .     S
C2080  H2082   1.118   .     S
C2080  H2081   1.111   .     S
C2083  H2084   1.106   .     S
C2083  H2085   1.110   .     S
C2083  C2086   1.524   .     S
C2086  H2089   1.109   .     S
C2086  H2088   1.106   .     S
C2086  H2087   1.110   .     S
O2090  C2091   1.421   .     S
C2091  H2093   1.106   .     S
C2091  H2092   1.104   .     S
C2091  C2094   1.540   .     S
C2094  H2096   1.105   .     S
C2094  H2095   1.111   .     S
C2094  C2345   1.527   .     S
C2097  H2098   1.101   .     S
C2097  H2100   1.107   .     S
C2097  C2342   1.527   1_455 S
C2097  H115    1.107   1_556 S
O2101  C2102   1.421   .     S
C2102  H2103   1.107   .     S
C2102  H2104   1.114   .     S
C2102  C2105   1.544   .     S
C2105  H2106   1.107   .     S
C2105  H2107   1.111   .     S
C2105  C2108   1.529   .     S
C2108  H2111   1.111   .     S
C2108  H2110   1.110   .     S
C2108  H2109   1.109   .     S
O2112  C2113   1.416   .     S
C2113  H2115   1.102   .     S
C2113  C2116   1.547   .     S
C2113  H2114   1.113   .     S
C2116  H2117   1.105   .     S
C2116  H2118   1.112   .     S
C2116  C2119   1.526   .     S
C2119  H2120   1.104   .     S
C2119  H2369   1.110   .     S
C2119  H2370   1.108   .     S
H2121  C2367   1.110   1_455 S
H2122  C2367   1.108   1_455 S
O2123  C2124   1.417   .     S
C2124  C2127   1.532   .     S
C2124  H2126   1.116   .     S
C2124  H2125   1.111   .     S
C2127  C2130   1.526   .     S
C2127  H2128   1.110   .     S
C2127  H2129   1.109   .     S
C2130  H2132   1.102   .     S
C2130  H2131   1.111   .     S
C2130  H2133   1.107   .     S
O2134  C2135   1.421   .     S
C2135  C2138   1.532   .     S
C2135  H2136   1.111   .     S
C2135  H2137   1.114   .     S
C2138  H2140   1.109   .     S
C2138  H2139   1.111   .     S
C2138  C2389   1.525   1_455 S
C2141  H2144   1.108   .     S
C2141  H2143   1.109   .     S
C2141  C2386   1.525   .     S
C2141  H2390   1.106   .     S
H2142  C2389   1.106   1_455 S
O2145  C2146   1.422   .     S
C2146  H2147   1.109   .     S
C2146  C2149   1.520   .     S
C2146  H2148   1.118   .     S
C2149  H2150   1.110   .     S
C2149  C2152   1.530   .     S
C2149  H2151   1.109   .     S
C2152  H2154   1.105   .     S
C2152  H2153   1.109   .     S
C2152  H2651   1.111   .     S
H2155  C2648   1.111   1_545 S
O2156  C2157   1.419   .     S
C2157  H2159   1.118   .     S
C2157  C2160   1.525   .     S
C2157  H2158   1.112   .     S
C2160  C2163   1.525   .     S
C2160  H2161   1.110   .     S
C2160  H2162   1.110   .     S
C2163  H2166   1.105   .     S
C2163  H2164   1.109   .     S
C2163  H2165   1.104   .     S
O2167  C2168   1.416   .     S
C2168  H2169   1.110   .     S
C2168  C2171   1.528   .     S
C2168  H2170   1.118   .     S
C2171  C2174   1.524   .     S
C2171  H2173   1.109   .     S
C2171  H2172   1.110   .     S
C2174  H2175   1.105   .     S
C2174  H2176   1.104   .     S
C2174  H2673   1.108   1_545 S
H2177  C2670   1.108   .     S
O2178  C2179   1.417   .     S
C2179  H2181   1.117   .     S
C2179  H2180   1.108   .     S
C2179  C2182   1.541   .     S
C2182  H2183   1.111   .     S
C2182  C2185   1.518   .     S
C2182  H2184   1.105   .     S
C2185  H2188   1.103   .     S
C2185  H2187   1.105   .     S
C2185  H2186   1.111   .     S
O2189  C2190   1.417   .     S
C2190  H2191   1.110   .     S
C2190  C2193   1.519   .     S
C2190  H2192   1.112   .     S
C2193  H2194   1.110   .     S
C2193  H2195   1.111   .     S
C2193  C2692   1.517   .     S
C2196  H2199   1.109   .     S
C2196  H2198   1.105   .     S
C2196  H2197   1.110   .     S
C2196  C2689   1.517   1_545 S
O2200  C2201   1.425   .     S
C2201  C2204   1.524   .     S
C2201  H2202   1.115   .     S
C2201  H2203   1.112   .     S
C2204  H2206   1.110   .     S
C2204  H2205   1.105   .     S
C2204  C2207   1.528   .     S
C2207  H2210   1.104   .     S
C2207  H2208   1.110   .     S
C2207  H2209   1.107   .     S
O2211  C2212   1.430   .     S
C2212  H2214   1.107   .     S
C2212  H2213   1.110   .     S
C2212  C2215   1.556   .     S
C2215  C2218   1.527   .     S
C2215  H2217   1.107   .     S
C2215  H2216   1.111   .     S
C2218  H2219   1.108   .     S
C2218  H2716   1.107   1_545 S
C2218  H2717   1.106   1_545 S
H2220  C2714   1.107   .     S
H2221  C2714   1.106   .     S
O2222  C2223   1.420   .     S
C2223  H2224   1.114   .     S
C2223  H2225   1.116   .     S
C2223  C2226   1.517   .     S
C2226  H2228   1.109   .     S
C2226  C2229   1.522   .     S
C2226  H2227   1.107   .     S
C2229  H2230   1.107   .     S
C2229  H2231   1.104   .     S
C2229  H2232   1.110   .     S
O2233  Cu2269  1.993   .     S
O2233  C2249   1.305   .     A
O2234  C2250   1.316   .     A
O2234  Cu2022  1.993   1_655 S
O2235  C2250   1.298   .     A
O2235  Cu2021  1.987   1_655 S
O2236  C2249   1.303   .     A
O2236  Cu2270  1.987   .     S
O2237  C2251   1.305   .     A
O2237  Cu2022  1.991   1_655 S
O2238  Cu2269  1.991   .     S
O2238  C2252   1.309   .     A
O2239  Cu2270  1.993   .     S
O2239  C2252   1.298   .     A
O2240  C2251   1.305   .     A
O2240  Cu2021  1.993   1_655 S
O2241  Cu2767  1.993   .     S
O2241  C2253   1.303   .     A
O2242  C2254   1.309   .     A
O2242  Cu2272  1.993   .     S
O2243  C2254   1.309   .     A
O2243  Cu2271  1.987   .     S
O2244  C2253   1.305   .     A
O2244  Cu2768  1.987   .     S
O2245  C2255   1.302   .     A
O2245  Cu2768  1.991   .     S
O2246  C2256   1.306   .     A
O2246  Cu2271  1.991   .     S
O2247  C2256   1.311   .     A
O2247  Cu2272  1.993   .     S
O2248  C2255   1.312   .     A
O2248  Cu2767  1.993   .     S
C2249  C2300   1.470   .     S
C2250  C2299   1.481   .     S
C2251  C2298   1.472   .     S
C2252  C2297   1.469   .     S
C2253  C2304   1.469   .     S
C2254  C2303   1.487   .     S
C2255  C2302   1.480   .     S
C2256  C2301   1.486   .     S
H2257  C2273   1.079   .     S
H2258  C2274   1.076   .     S
H2259  C2275   1.079   .     S
H2260  C2276   1.074   .     S
H2261  C2277   1.079   .     S
H2262  C2278   1.069   .     S
H2263  C2279   1.072   .     S
H2264  C2280   1.075   .     S
N2265  Cu2269  2.036   .     S
N2265  C2274   1.370   .     S
N2266  Cu2270  2.036   .     S
N2266  C2275   1.369   .     A
N2267  Cu2271  2.036   .     S
N2267  C2776   1.369   1_545 A
N2267  C2278   1.368   .     S
N2268  C2279   1.364   .     A
N2268  Cu2272  2.036   .     S
N2268  C2773   1.370   1_545 S
Cu2269 Cu2270  2.710   .     S
Cu2271 O2737   1.993   1_545 S
Cu2271 Cu2272  2.710   .     S
Cu2271 O2744   1.993   1_545 S
Cu2272 O2741   1.991   1_545 S
Cu2272 O2740   1.987   1_545 S
C2273  N2018   1.370   1_655 S
C2274  C291    1.421   1_556 S
C2276  N2017   1.368   1_655 A
C2276  C289    1.419   1_556 S
C2277  N2764   1.370   .     S
C2278  C295    1.418   1_556 S
C2280  N2763   1.369   .     A
C2280  C293    1.420   1_556 S
C2281  O2305   1.381   .     S
C2281  C2298   1.409   .     A
C2281  C2291   1.393   .     A
C2282  O2316   1.371   .     S
C2282  C2292   1.389   .     A
C2282  C2297   1.394   .     A
C2283  C2297   1.408   .     A
C2283  C2289   1.398   .     A
C2283  O2327   1.383   .     S
C2284  O2338   1.390   .     S
C2284  C2290   1.402   .     A
C2284  C2298   1.414   .     A
C2285  C2295   1.394   .     A
C2285  O2349   1.383   .     S
C2285  C2300   1.404   .     A
C2286  C2299   1.402   .     A
C2286  O2360   1.381   .     S
C2286  C2296   1.395   .     A
C2287  O2371   1.383   .     S
C2287  C2299   1.423   .     A
C2287  C2293   1.398   .     A
C2288  C2294   1.413   .     A
C2288  O2382   1.389   .     S
C2288  C2300   1.409   .     A
C2289  C2302   1.424   .     A
C2289  O2393   1.386   .     S
C2290  C2301   1.428   .     A
C2290  O2404   1.386   .     S
C2291  C2301   1.415   .     A
C2291  O2415   1.387   .     S
C2292  O2426   1.381   .     S
C2292  C2302   1.411   .     A
C2293  C2304   1.411   .     A
C2293  O2437   1.385   .     S
C2294  O2448   1.390   .     S
C2294  C2303   1.421   .     A
C2295  O2459   1.383   .     S
C2295  C2303   1.417   .     A
C2296  O2470   1.380   .     S
C2296  C2304   1.404   .     A
O2305  C2306   1.416   .     S
C2306  H2308   1.110   .     S
C2306  C2309   1.518   .     S
C2306  H2307   1.117   .     S
C2309  H2311   1.110   .     S
C2309  H2310   1.109   .     S
C2309  C2312   1.512   .     S
C2312  H2315   1.102   .     S
C2312  H2314   1.105   .     S
C2312  H2313   1.107   .     S
O2316  C2317   1.415   .     S
C2317  H2318   1.112   .     S
C2317  C2320   1.508   .     S
C2317  H2319   1.119   .     S
C2320  C2323   1.516   .     S
C2320  H2322   1.097   .     S
C2320  H2321   1.106   .     S
C2323  H2326   1.109   .     S
C2323  H341    1.102   1_556 S
H2324  C2075   1.109   1_655 S
O2327  C2328   1.421   .     S
C2328  C2331   1.521   .     S
C2328  H2330   1.118   .     S
C2328  H2329   1.111   .     S
C2331  H2332   1.106   .     S
C2331  H2333   1.110   .     S
C2331  C2334   1.524   .     S
C2334  H2337   1.109   .     S
C2334  H2336   1.106   .     S
C2334  H2335   1.110   .     S
O2338  C2339   1.421   .     S
C2339  H2341   1.106   .     S
C2339  H2340   1.104   .     S
C2339  C2342   1.540   .     S
C2342  H2344   1.105   .     S
C2342  H2343   1.111   .     S
C2342  C2097   1.527   1_655 S
C2345  H2346   1.101   .     S
C2345  H2348   1.107   .     S
C2345  H363    1.107   1_556 S
O2349  C2350   1.421   .     S
C2350  H2351   1.107   .     S
C2350  H2352   1.114   .     S
C2350  C2353   1.544   .     S
C2353  H2354   1.107   .     S
C2353  H2355   1.111   .     S
C2353  C2356   1.529   .     S
C2356  H2359   1.111   .     S
C2356  H2358   1.110   .     S
C2356  H2357   1.109   .     S
O2360  C2361   1.416   .     S
C2361  H2363   1.102   .     S
C2361  C2364   1.547   .     S
C2361  H2362   1.113   .     S
C2364  H2365   1.105   .     S
C2364  H2366   1.112   .     S
C2364  C2367   1.526   .     S
C2367  H2368   1.104   .     S
C2367  H2121   1.110   1_655 S
C2367  H2122   1.108   1_655 S
O2371  C2372   1.417   .     S
C2372  C2375   1.532   .     S
C2372  H2374   1.116   .     S
C2372  H2373   1.111   .     S
C2375  C2378   1.526   .     S
C2375  H2376   1.110   .     S
C2375  H2377   1.109   .     S
C2378  H2380   1.102   .     S
C2378  H2379   1.111   .     S
C2378  H2381   1.107   .     S
O2382  C2383   1.421   .     S
C2383  C2386   1.532   .     S
C2383  H2384   1.111   .     S
C2383  H2385   1.114   .     S
C2386  H2388   1.109   .     S
C2386  H2387   1.111   .     S
C2389  H2392   1.108   .     S
C2389  H2391   1.109   .     S
C2389  C2138   1.525   1_655 S
C2389  H2142   1.106   1_655 S
O2393  C2394   1.422   .     S
C2394  H2395   1.109   .     S
C2394  C2397   1.520   .     S
C2394  H2396   1.118   .     S
C2397  H2398   1.110   .     S
C2397  C2400   1.530   .     S
C2397  H2399   1.109   .     S
C2400  H2402   1.105   .     S
C2400  H2401   1.109   .     S
C2400  H2899   1.111   .     S
H2403  C2896   1.111   1_545 S
O2404  C2405   1.419   .     S
C2405  H2407   1.118   .     S
C2405  C2408   1.525   .     S
C2405  H2406   1.112   .     S
C2408  C2411   1.525   .     S
C2408  H2409   1.110   .     S
C2408  H2410   1.110   .     S
C2411  H2414   1.105   .     S
C2411  H2412   1.109   .     S
C2411  H2413   1.104   .     S
O2415  C2416   1.416   .     S
C2416  H2417   1.110   .     S
C2416  C2419   1.528   .     S
C2416  H2418   1.118   .     S
C2419  C2422   1.524   .     S
C2419  H2421   1.109   .     S
C2419  H2420   1.110   .     S
C2422  H2423   1.105   .     S
C2422  H2424   1.104   .     S
C2422  H2921   1.108   1_545 S
H2425  C2918   1.108   .     S
O2426  C2427   1.417   .     S
C2427  H2429   1.117   .     S
C2427  H2428   1.108   .     S
C2427  C2430   1.541   .     S
C2430  H2431   1.111   .     S
C2430  C2433   1.518   .     S
C2430  H2432   1.105   .     S
C2433  H2436   1.103   .     S
C2433  H2435   1.105   .     S
C2433  H2434   1.111   .     S
O2437  C2438   1.417   .     S
C2438  H2439   1.110   .     S
C2438  C2441   1.519   .     S
C2438  H2440   1.112   .     S
C2441  H2442   1.110   .     S
C2441  H2443   1.111   .     S
C2441  C2940   1.517   .     S
C2444  H2447   1.109   .     S
C2444  H2446   1.105   .     S
C2444  H2445   1.110   .     S
C2444  C2937   1.517   1_545 S
O2448  C2449   1.425   .     S
C2449  C2452   1.524   .     S
C2449  H2450   1.115   .     S
C2449  H2451   1.112   .     S
C2452  H2454   1.110   .     S
C2452  H2453   1.105   .     S
C2452  C2455   1.528   .     S
C2455  H2458   1.104   .     S
C2455  H2456   1.110   .     S
C2455  H2457   1.107   .     S
O2459  C2460   1.430   .     S
C2460  H2462   1.107   .     S
C2460  H2461   1.110   .     S
C2460  C2463   1.556   .     S
C2463  C2466   1.527   .     S
C2463  H2465   1.107   .     S
C2463  H2464   1.111   .     S
C2466  H2467   1.108   .     S
C2466  H2964   1.107   1_545 S
C2466  H2965   1.106   1_545 S
H2468  C2962   1.107   .     S
H2469  C2962   1.106   .     S
O2470  C2471   1.420   .     S
C2471  H2472   1.114   .     S
C2471  H2473   1.116   .     S
C2471  C2474   1.517   .     S
C2474  H2476   1.109   .     S
C2474  C2477   1.522   .     S
C2474  H2475   1.107   .     S
C2477  H2478   1.107   .     S
C2477  H2479   1.104   .     S
C2477  H2480   1.110   .     S
O2481  Cu2517  1.993   .     S
O2481  C2497   1.305   .     A
O2482  C2498   1.316   .     A
O2482  Cu2766  1.993   .     S
O2483  C2498   1.298   .     A
O2483  Cu2765  1.987   .     S
O2484  C2497   1.303   .     A
O2484  Cu2518  1.987   .     S
O2485  C2499   1.305   .     A
O2485  Cu2766  1.991   .     S
O2486  Cu2517  1.991   .     S
O2486  C2500   1.309   .     A
O2487  Cu2518  1.993   .     S
O2487  C2500   1.298   .     A
O2488  C2499   1.305   .     A
O2488  Cu2765  1.993   .     S
O2489  Cu2023  1.993   1_565 S
O2489  C2501   1.303   .     A
O2490  C2502   1.309   .     A
O2490  Cu2520  1.993   .     S
O2491  C2502   1.309   .     A
O2491  Cu2519  1.987   .     S
O2492  C2501   1.305   .     A
O2492  Cu2024  1.987   1_565 S
O2493  C2503   1.302   .     A
O2493  Cu2024  1.991   1_565 S
O2494  C2504   1.306   .     A
O2494  Cu2519  1.991   .     S
O2495  C2504   1.311   .     A
O2495  Cu2520  1.993   .     S
O2496  C2503   1.312   .     A
O2496  Cu2023  1.993   1_565 S
C2497  C2548   1.470   .     S
C2498  C2547   1.481   .     S
C2499  C2546   1.472   .     S
C2500  C2545   1.469   .     S
C2501  C2552   1.469   .     S
C2502  C2551   1.487   .     S
C2503  C2550   1.480   .     S
C2504  C2549   1.486   .     S
H2505  C2521   1.079   .     S
H2506  C2522   1.076   .     S
H2507  C2523   1.079   .     S
H2508  C2524   1.074   .     S
H2509  C2525   1.079   .     S
H2510  C2526   1.069   .     S
H2511  C2527   1.072   .     S
H2512  C2528   1.075   .     S
N2513  C2772   1.368   1_455 A
N2513  Cu2517  2.036   .     S
N2513  C2522   1.370   .     S
N2514  Cu2518  2.036   .     S
N2514  C2523   1.369   .     A
N2514  C2769   1.370   1_455 S
N2515  Cu2519  2.036   .     S
N2515  C2526   1.368   .     S
N2516  C2527   1.364   .     A
N2516  Cu2520  2.036   .     S
Cu2517 Cu2518  2.710   .     S
Cu2517 O2736   1.993   1_455 S
Cu2517 O2731   1.987   1_455 S
Cu2518 O2733   1.991   1_455 S
Cu2518 O2730   1.993   1_455 S
Cu2519 Cu2520  2.710   .     S
C2521  N2762   1.370   .     S
C2522  C539    1.421   1_556 S
C2524  N2761   1.368   .     A
C2524  C537    1.419   1_556 S
C2525  N2020   1.370   1_565 S
C2526  C543    1.418   1_556 S
C2528  N2019   1.369   1_565 A
C2528  C541    1.420   1_556 S
C2529  O2553   1.381   .     S
C2529  C2546   1.409   .     A
C2529  C2539   1.393   .     A
C2530  O2564   1.371   .     S
C2530  C2540   1.389   .     A
C2530  C2545   1.394   .     A
C2531  C2545   1.408   .     A
C2531  C2537   1.398   .     A
C2531  O2575   1.383   .     S
C2532  O2586   1.390   .     S
C2532  C2538   1.402   .     A
C2532  C2546   1.414   .     A
C2533  C2543   1.394   .     A
C2533  O2597   1.383   .     S
C2533  C2548   1.404   .     A
C2534  C2547   1.402   .     A
C2534  O2608   1.381   .     S
C2534  C2544   1.395   .     A
C2535  O2619   1.383   .     S
C2535  C2547   1.423   .     A
C2535  C2541   1.398   .     A
C2536  C2542   1.413   .     A
C2536  O2630   1.389   .     S
C2536  C2548   1.409   .     A
C2537  C2550   1.424   .     A
C2537  O2641   1.386   .     S
C2538  C2549   1.428   .     A
C2538  O2652   1.386   .     S
C2539  C2549   1.415   .     A
C2539  O2663   1.387   .     S
C2540  O2674   1.381   .     S
C2540  C2550   1.411   .     A
C2541  C2552   1.411   .     A
C2541  O2685   1.385   .     S
C2542  O2696   1.390   .     S
C2542  C2551   1.421   .     A
C2543  O2707   1.383   .     S
C2543  C2551   1.417   .     A
C2544  O2718   1.380   .     S
C2544  C2552   1.404   .     A
O2553  C2554   1.416   .     S
C2554  H2556   1.110   .     S
C2554  C2557   1.518   .     S
C2554  H2555   1.117   .     S
C2557  H2559   1.110   .     S
C2557  H2558   1.109   .     S
C2557  C2560   1.512   .     S
C2560  H2563   1.102   .     S
C2560  H2562   1.105   .     S
C2560  H2561   1.107   .     S
O2564  C2565   1.415   .     S
C2565  H2566   1.112   .     S
C2565  C2568   1.508   .     S
C2565  H2567   1.119   .     S
C2568  C2571   1.516   .     S
C2568  H2570   1.097   .     S
C2568  H2569   1.106   .     S
C2571  H2574   1.109   .     S
C2571  H2820   1.109   1_455 S
C2571  H589    1.102   1_556 S
H2572  C2819   1.109   .     S
O2575  C2576   1.421   .     S
C2576  C2579   1.521   .     S
C2576  H2578   1.118   .     S
C2576  H2577   1.111   .     S
C2579  H2580   1.106   .     S
C2579  H2581   1.110   .     S
C2579  C2582   1.524   .     S
C2582  H2585   1.109   .     S
C2582  H2584   1.106   .     S
C2582  H2583   1.110   .     S
O2586  C2587   1.421   .     S
C2587  H2589   1.106   .     S
C2587  H2588   1.104   .     S
C2587  C2590   1.540   .     S
C2590  H2592   1.105   .     S
C2590  H2591   1.111   .     S
C2590  C2841   1.527   .     S
C2593  H2594   1.101   .     S
C2593  H2596   1.107   .     S
C2593  C2838   1.527   1_455 S
C2593  H611    1.107   1_556 S
O2597  C2598   1.421   .     S
C2598  H2599   1.107   .     S
C2598  H2600   1.114   .     S
C2598  C2601   1.544   .     S
C2601  H2602   1.107   .     S
C2601  H2603   1.111   .     S
C2601  C2604   1.529   .     S
C2604  H2607   1.111   .     S
C2604  H2606   1.110   .     S
C2604  H2605   1.109   .     S
O2608  C2609   1.416   .     S
C2609  H2611   1.102   .     S
C2609  C2612   1.547   .     S
C2609  H2610   1.113   .     S
C2612  H2613   1.105   .     S
C2612  H2614   1.112   .     S
C2612  C2615   1.526   .     S
C2615  H2616   1.104   .     S
C2615  H2865   1.110   .     S
C2615  H2866   1.108   .     S
H2617  C2863   1.110   1_455 S
H2618  C2863   1.108   1_455 S
O2619  C2620   1.417   .     S
C2620  C2623   1.532   .     S
C2620  H2622   1.116   .     S
C2620  H2621   1.111   .     S
C2623  C2626   1.526   .     S
C2623  H2624   1.110   .     S
C2623  H2625   1.109   .     S
C2626  H2628   1.102   .     S
C2626  H2627   1.111   .     S
C2626  H2629   1.107   .     S
O2630  C2631   1.421   .     S
C2631  C2634   1.532   .     S
C2631  H2632   1.111   .     S
C2631  H2633   1.114   .     S
C2634  H2636   1.109   .     S
C2634  H2635   1.111   .     S
C2634  C2885   1.525   1_455 S
C2637  H2640   1.108   .     S
C2637  H2639   1.109   .     S
C2637  C2882   1.525   .     S
C2637  H2886   1.106   .     S
H2638  C2885   1.106   1_455 S
O2641  C2642   1.422   .     S
C2642  H2643   1.109   .     S
C2642  C2645   1.520   .     S
C2642  H2644   1.118   .     S
C2645  H2646   1.110   .     S
C2645  C2648   1.530   .     S
C2645  H2647   1.109   .     S
C2648  H2650   1.105   .     S
C2648  H2649   1.109   .     S
C2648  H2155   1.111   1_565 S
O2652  C2653   1.419   .     S
C2653  H2655   1.118   .     S
C2653  C2656   1.525   .     S
C2653  H2654   1.112   .     S
C2656  C2659   1.525   .     S
C2656  H2657   1.110   .     S
C2656  H2658   1.110   .     S
C2659  H2662   1.105   .     S
C2659  H2660   1.109   .     S
C2659  H2661   1.104   .     S
O2663  C2664   1.416   .     S
C2664  H2665   1.110   .     S
C2664  C2667   1.528   .     S
C2664  H2666   1.118   .     S
C2667  C2670   1.524   .     S
C2667  H2669   1.109   .     S
C2667  H2668   1.110   .     S
C2670  H2671   1.105   .     S
C2670  H2672   1.104   .     S
H2673  C2174   1.108   1_565 S
O2674  C2675   1.417   .     S
C2675  H2677   1.117   .     S
C2675  H2676   1.108   .     S
C2675  C2678   1.541   .     S
C2678  H2679   1.111   .     S
C2678  C2681   1.518   .     S
C2678  H2680   1.105   .     S
C2681  H2684   1.103   .     S
C2681  H2683   1.105   .     S
C2681  H2682   1.111   .     S
O2685  C2686   1.417   .     S
C2686  H2687   1.110   .     S
C2686  C2689   1.519   .     S
C2686  H2688   1.112   .     S
C2689  H2690   1.110   .     S
C2689  H2691   1.111   .     S
C2689  C2196   1.517   1_565 S
C2692  H2695   1.109   .     S
C2692  H2694   1.105   .     S
C2692  H2693   1.110   .     S
O2696  C2697   1.425   .     S
C2697  C2700   1.524   .     S
C2697  H2698   1.115   .     S
C2697  H2699   1.112   .     S
C2700  H2702   1.110   .     S
C2700  H2701   1.105   .     S
C2700  C2703   1.528   .     S
C2703  H2706   1.104   .     S
C2703  H2704   1.110   .     S
C2703  H2705   1.107   .     S
O2707  C2708   1.430   .     S
C2708  H2710   1.107   .     S
C2708  H2709   1.110   .     S
C2708  C2711   1.556   .     S
C2711  C2714   1.527   .     S
C2711  H2713   1.107   .     S
C2711  H2712   1.111   .     S
C2714  H2715   1.108   .     S
H2716  C2218   1.107   1_565 S
H2717  C2218   1.106   1_565 S
O2718  C2719   1.420   .     S
C2719  H2720   1.114   .     S
C2719  H2721   1.116   .     S
C2719  C2722   1.517   .     S
C2722  H2724   1.109   .     S
C2722  C2725   1.522   .     S
C2722  H2723   1.107   .     S
C2725  H2726   1.107   .     S
C2725  H2727   1.104   .     S
C2725  H2728   1.110   .     S
O2729  Cu2765  1.993   .     S
O2729  C2745   1.305   .     A
O2730  C2746   1.316   .     A
O2730  Cu2518  1.993   1_655 S
O2731  C2746   1.298   .     A
O2731  Cu2517  1.987   1_655 S
O2732  C2745   1.303   .     A
O2732  Cu2766  1.987   .     S
O2733  C2747   1.305   .     A
O2733  Cu2518  1.991   1_655 S
O2734  Cu2765  1.991   .     S
O2734  C2748   1.309   .     A
O2735  Cu2766  1.993   .     S
O2735  C2748   1.298   .     A
O2736  C2747   1.305   .     A
O2736  Cu2517  1.993   1_655 S
O2737  Cu2271  1.993   1_565 S
O2737  C2749   1.303   .     A
O2738  C2750   1.309   .     A
O2738  Cu2768  1.993   .     S
O2739  C2750   1.309   .     A
O2739  Cu2767  1.987   .     S
O2740  C2749   1.305   .     A
O2740  Cu2272  1.987   1_565 S
O2741  C2751   1.302   .     A
O2741  Cu2272  1.991   1_565 S
O2742  C2752   1.306   .     A
O2742  Cu2767  1.991   .     S
O2743  C2752   1.311   .     A
O2743  Cu2768  1.993   .     S
O2744  C2751   1.312   .     A
O2744  Cu2271  1.993   1_565 S
C2745  C2796   1.470   .     S
C2746  C2795   1.481   .     S
C2747  C2794   1.472   .     S
C2748  C2793   1.469   .     S
C2749  C2800   1.469   .     S
C2750  C2799   1.487   .     S
C2751  C2798   1.480   .     S
C2752  C2797   1.486   .     S
H2753  C2769   1.079   .     S
H2754  C2770   1.076   .     S
H2755  C2771   1.079   .     S
H2756  C2772   1.074   .     S
H2757  C2773   1.079   .     S
H2758  C2774   1.069   .     S
H2759  C2775   1.072   .     S
H2760  C2776   1.075   .     S
N2761  Cu2765  2.036   .     S
N2761  C2770   1.370   .     S
N2762  Cu2766  2.036   .     S
N2762  C2771   1.369   .     A
N2763  Cu2767  2.036   .     S
N2763  C2774   1.368   .     S
N2764  C2775   1.364   .     A
N2764  Cu2768  2.036   .     S
Cu2765 Cu2766  2.710   .     S
Cu2767 Cu2768  2.710   .     S
C2769  N2514   1.370   1_655 S
C2770  C787    1.421   1_556 S
C2772  N2513   1.368   1_655 A
C2772  C785    1.419   1_556 S
C2773  N2268   1.370   1_565 S
C2774  C791    1.418   1_556 S
C2776  N2267   1.369   1_565 A
C2776  C789    1.420   1_556 S
C2777  O2801   1.381   .     S
C2777  C2794   1.409   .     A
C2777  C2787   1.393   .     A
C2778  O2812   1.371   .     S
C2778  C2788   1.389   .     A
C2778  C2793   1.394   .     A
C2779  C2793   1.408   .     A
C2779  C2785   1.398   .     A
C2779  O2823   1.383   .     S
C2780  O2834   1.390   .     S
C2780  C2786   1.402   .     A
C2780  C2794   1.414   .     A
C2781  C2791   1.394   .     A
C2781  O2845   1.383   .     S
C2781  C2796   1.404   .     A
C2782  C2795   1.402   .     A
C2782  O2856   1.381   .     S
C2782  C2792   1.395   .     A
C2783  O2867   1.383   .     S
C2783  C2795   1.423   .     A
C2783  C2789   1.398   .     A
C2784  C2790   1.413   .     A
C2784  O2878   1.389   .     S
C2784  C2796   1.409   .     A
C2785  C2798   1.424   .     A
C2785  O2889   1.386   .     S
C2786  C2797   1.428   .     A
C2786  O2900   1.386   .     S
C2787  C2797   1.415   .     A
C2787  O2911   1.387   .     S
C2788  O2922   1.381   .     S
C2788  C2798   1.411   .     A
C2789  C2800   1.411   .     A
C2789  O2933   1.385   .     S
C2790  O2944   1.390   .     S
C2790  C2799   1.421   .     A
C2791  O2955   1.383   .     S
C2791  C2799   1.417   .     A
C2792  O2966   1.380   .     S
C2792  C2800   1.404   .     A
O2801  C2802   1.416   .     S
C2802  H2804   1.110   .     S
C2802  C2805   1.518   .     S
C2802  H2803   1.117   .     S
C2805  H2807   1.110   .     S
C2805  H2806   1.109   .     S
C2805  C2808   1.512   .     S
C2808  H2811   1.102   .     S
C2808  H2810   1.105   .     S
C2808  H2809   1.107   .     S
O2812  C2813   1.415   .     S
C2813  H2814   1.112   .     S
C2813  C2816   1.508   .     S
C2813  H2815   1.119   .     S
C2816  C2819   1.516   .     S
C2816  H2818   1.097   .     S
C2816  H2817   1.106   .     S
C2819  H2822   1.109   .     S
C2819  H837    1.102   1_556 S
H2820  C2571   1.109   1_655 S
O2823  C2824   1.421   .     S
C2824  C2827   1.521   .     S
C2824  H2826   1.118   .     S
C2824  H2825   1.111   .     S
C2827  H2828   1.106   .     S
C2827  H2829   1.110   .     S
C2827  C2830   1.524   .     S
C2830  H2833   1.109   .     S
C2830  H2832   1.106   .     S
C2830  H2831   1.110   .     S
O2834  C2835   1.421   .     S
C2835  H2837   1.106   .     S
C2835  H2836   1.104   .     S
C2835  C2838   1.540   .     S
C2838  H2840   1.105   .     S
C2838  H2839   1.111   .     S
C2838  C2593   1.527   1_655 S
C2841  H2842   1.101   .     S
C2841  H2844   1.107   .     S
C2841  H859    1.107   1_556 S
O2845  C2846   1.421   .     S
C2846  H2847   1.107   .     S
C2846  H2848   1.114   .     S
C2846  C2849   1.544   .     S
C2849  H2850   1.107   .     S
C2849  H2851   1.111   .     S
C2849  C2852   1.529   .     S
C2852  H2855   1.111   .     S
C2852  H2854   1.110   .     S
C2852  H2853   1.109   .     S
O2856  C2857   1.416   .     S
C2857  H2859   1.102   .     S
C2857  C2860   1.547   .     S
C2857  H2858   1.113   .     S
C2860  H2861   1.105   .     S
C2860  H2862   1.112   .     S
C2860  C2863   1.526   .     S
C2863  H2864   1.104   .     S
C2863  H2617   1.110   1_655 S
C2863  H2618   1.108   1_655 S
O2867  C2868   1.417   .     S
C2868  C2871   1.532   .     S
C2868  H2870   1.116   .     S
C2868  H2869   1.111   .     S
C2871  C2874   1.526   .     S
C2871  H2872   1.110   .     S
C2871  H2873   1.109   .     S
C2874  H2876   1.102   .     S
C2874  H2875   1.111   .     S
C2874  H2877   1.107   .     S
O2878  C2879   1.421   .     S
C2879  C2882   1.532   .     S
C2879  H2880   1.111   .     S
C2879  H2881   1.114   .     S
C2882  H2884   1.109   .     S
C2882  H2883   1.111   .     S
C2885  H2888   1.108   .     S
C2885  H2887   1.109   .     S
C2885  C2634   1.525   1_655 S
C2885  H2638   1.106   1_655 S
O2889  C2890   1.422   .     S
C2890  H2891   1.109   .     S
C2890  C2893   1.520   .     S
C2890  H2892   1.118   .     S
C2893  H2894   1.110   .     S
C2893  C2896   1.530   .     S
C2893  H2895   1.109   .     S
C2896  H2898   1.105   .     S
C2896  H2897   1.109   .     S
C2896  H2403   1.111   1_565 S
O2900  C2901   1.419   .     S
C2901  H2903   1.118   .     S
C2901  C2904   1.525   .     S
C2901  H2902   1.112   .     S
C2904  C2907   1.525   .     S
C2904  H2905   1.110   .     S
C2904  H2906   1.110   .     S
C2907  H2910   1.105   .     S
C2907  H2908   1.109   .     S
C2907  H2909   1.104   .     S
O2911  C2912   1.416   .     S
C2912  H2913   1.110   .     S
C2912  C2915   1.528   .     S
C2912  H2914   1.118   .     S
C2915  C2918   1.524   .     S
C2915  H2917   1.109   .     S
C2915  H2916   1.110   .     S
C2918  H2919   1.105   .     S
C2918  H2920   1.104   .     S
H2921  C2422   1.108   1_565 S
O2922  C2923   1.417   .     S
C2923  H2925   1.117   .     S
C2923  H2924   1.108   .     S
C2923  C2926   1.541   .     S
C2926  H2927   1.111   .     S
C2926  C2929   1.518   .     S
C2926  H2928   1.105   .     S
C2929  H2932   1.103   .     S
C2929  H2931   1.105   .     S
C2929  H2930   1.111   .     S
O2933  C2934   1.417   .     S
C2934  H2935   1.110   .     S
C2934  C2937   1.519   .     S
C2934  H2936   1.112   .     S
C2937  H2938   1.110   .     S
C2937  H2939   1.111   .     S
C2937  C2444   1.517   1_565 S
C2940  H2943   1.109   .     S
C2940  H2942   1.105   .     S
C2940  H2941   1.110   .     S
O2944  C2945   1.425   .     S
C2945  C2948   1.524   .     S
C2945  H2946   1.115   .     S
C2945  H2947   1.112   .     S
C2948  H2950   1.110   .     S
C2948  H2949   1.105   .     S
C2948  C2951   1.528   .     S
C2951  H2954   1.104   .     S
C2951  H2952   1.110   .     S
C2951  H2953   1.107   .     S
O2955  C2956   1.430   .     S
C2956  H2958   1.107   .     S
C2956  H2957   1.110   .     S
C2956  C2959   1.556   .     S
C2959  C2962   1.527   .     S
C2959  H2961   1.107   .     S
C2959  H2960   1.111   .     S
C2962  H2963   1.108   .     S
H2964  C2466   1.107   1_565 S
H2965  C2466   1.106   1_565 S
O2966  C2967   1.420   .     S
C2967  H2968   1.114   .     S
C2967  H2969   1.116   .     S
C2967  C2970   1.517   .     S
C2970  H2972   1.109   .     S
C2970  C2973   1.522   .     S
C2970  H2971   1.107   .     S
C2973  H2974   1.107   .     S
C2973  H2975   1.104   .     S
C2973  H2976   1.110   .     S
