data_str_m2_o2_o10_pcu_sym.83
_audit_creation_date              2020-01-03
_audit_creation_method            'Materials Studio'
_symmetry_space_group_name_H-M    'P1'
_symmetry_Int_Tables_number       1
_symmetry_cell_setting            triclinic
loop_
_symmetry_equiv_pos_as_xyz
  x,y,z
_cell_length_a                    26.1724
_cell_length_b                    30.2600
_cell_length_c                    27.6736
_cell_angle_alpha                 90.4497
_cell_angle_beta                  98.0242
_cell_angle_gamma                 90.0250
loop_
_atom_site_label
_atom_site_type_symbol
_atom_site_fract_x
_atom_site_fract_y
_atom_site_fract_z
_atom_site_U_iso_or_equiv
_atom_site_adp_type
_atom_site_occupancy
C1     C     0.16766   0.16500   0.24993   0.00000  Uiso   1.00
C2     C     0.20787   0.26986   0.45194   0.00000  Uiso   1.00
C3     C     0.16652   0.25049   0.02721   0.00000  Uiso   1.00
C4     C     0.16702   0.25052   0.47278   0.00000  Uiso   1.00
C5     C     0.06786   0.24990   0.23752   0.00000  Uiso   1.00
C6     C     0.26547   0.25001   0.26248   0.00000  Uiso   1.00
C7     C     0.01258   0.24975   0.23062   0.00000  Uiso   1.00
C8     C     0.32075   0.24992   0.26938   0.00000  Uiso   1.00
C9     C     0.14720   0.04760   0.28284   0.00000  Uiso   1.00
C10    C     0.15970   0.45301   0.20826   0.00000  Uiso   1.00
C11    C     0.14557   0.09332   0.28256   0.00000  Uiso   1.00
C12    C     0.16717   0.33521   0.25041   0.00000  Uiso   1.00
C13    C     0.15779   0.40715   0.20805   0.00000  Uiso   1.00
C14    C     0.17143   0.11693   0.25015   0.00000  Uiso   1.00
C15    C     0.16903   0.38373   0.25175   0.00000  Uiso   1.00
C16    C     0.20124   0.09444   0.21894   0.00000  Uiso   1.00
C17    C     0.18211   0.40704   0.29634   0.00000  Uiso   1.00
C18    C     0.20380   0.04813   0.21988   0.00000  Uiso   1.00
C19    C     0.18734   0.45316   0.29591   0.00000  Uiso   1.00
C20    C     0.17577   0.02465   0.25159   0.00000  Uiso   1.00
C21    C     0.17452   0.47621   0.25190   0.00000  Uiso   1.00
C22    C     0.27426   0.13195   0.20850   0.00000  Uiso   1.00
C23    C     0.20738   0.23165   0.05873   0.00000  Uiso   1.00
C24    C     0.15102   0.38628   0.36537   0.00000  Uiso   1.00
C25    C     0.27721   0.00901   0.21254   0.00000  Uiso   1.00
C26    C     0.25687   0.47795   0.34708   0.00000  Uiso   1.00
C27    C     0.08781   0.33357   0.02024   0.00000  Uiso   1.00
C28    C     0.25026   0.33361   0.47666   0.00000  Uiso   1.00
C29    C     0.12608   0.23162   0.44101   0.00000  Uiso   1.00
C30    C     0.20657   0.23147   0.10948   0.00000  Uiso   1.00
C31    C     0.12675   0.23145   0.39026   0.00000  Uiso   1.00
C32    C     0.12656   0.26871   0.09962   0.00000  Uiso   1.00
C33    C     0.20682   0.26882   0.40060   0.00000  Uiso   1.00
C34    C     0.12558   0.26958   0.04837   0.00000  Uiso   1.00
Cu35   Cu    0.16667   0.24999   0.29822   0.00000  Uiso   1.00
Cu36   Cu    0.16667   0.25000   0.20179   0.00000  Uiso   1.00
H37    H     0.32585   0.24955   0.19346   0.00000  Uiso   1.00
H38    H     0.15900   0.36518   0.39814   0.00000  Uiso   1.00
H39    H     0.11565   0.37304   0.34285   0.00000  Uiso   1.00
H40    H     0.14399   0.42040   0.37806   0.00000  Uiso   1.00
H41    H     0.27021   0.47583   0.22710   0.00000  Uiso   1.00
H42    H     0.29568   0.03088   0.24257   0.00000  Uiso   1.00
H43    H     0.30526   0.00480   0.18630   0.00000  Uiso   1.00
H44    H     0.27171   0.49804   0.31859   0.00000  Uiso   1.00
H45    H     0.27458   0.44445   0.34878   0.00000  Uiso   1.00
H46    H     0.26909   0.49449   0.38274   0.00000  Uiso   1.00
H47    H     0.23951   0.21653   0.04409   0.00000  Uiso   1.00
H48    H     0.00746   0.25007   0.30654   0.00000  Uiso   1.00
H49    H     0.09398   0.21644   0.45545   0.00000  Uiso   1.00
H50    H     0.23808   0.21626   0.13290   0.00000  Uiso   1.00
H51    H     0.09519   0.21617   0.36661   0.00000  Uiso   1.00
H52    H     0.09493   0.28316   0.11550   0.00000  Uiso   1.00
H53    H     0.23848   0.28306   0.38479   0.00000  Uiso   1.00
H54    H     0.12414   0.34466   0.00740   0.00000  Uiso   1.00
H55    H     0.08529   0.34704   0.05736   0.00000  Uiso   1.00
H56    H     0.05517   0.34750   0.49510   0.00000  Uiso   1.00
H57    H     0.21316   0.34857   0.48379   0.00000  Uiso   1.00
H58    H     0.25906   0.34321   0.44001   0.00000  Uiso   1.00
H59    H     0.12520   0.02996   0.30695   0.00000  Uiso   1.00
H60    H     0.28120   0.34754   0.00404   0.00000  Uiso   1.00
H61    H     0.14950   0.47048   0.17427   0.00000  Uiso   1.00
H62    H     0.12276   0.11029   0.30675   0.00000  Uiso   1.00
H63    H     0.14681   0.39003   0.17364   0.00000  Uiso   1.00
H64    H     0.27153   0.15112   0.24252   0.00000  Uiso   1.00
H65    H     0.29109   0.15419   0.18321   0.00000  Uiso   1.00
H66    H     0.30118   0.10379   0.21647   0.00000  Uiso   1.00
N67    N     0.16667   0.25001   0.12935   0.00000  Uiso   1.00
N68    N     0.16667   0.24999   0.37066   0.00000  Uiso   1.00
O69    O     0.16667   0.18572   0.29072   0.00000  Uiso   1.00
O70    O     0.19414   0.38476   0.33994   0.00000  Uiso   1.00
O71    O     0.23114   0.02660   0.18730   0.00000  Uiso   1.00
O72    O     0.20256   0.47579   0.33917   0.00000  Uiso   1.00
O73    O     0.08354   0.28714   0.01903   0.00000  Uiso   1.00
O74    O     0.24992   0.28731   0.48189   0.00000  Uiso   1.00
O75    O     0.16666   0.31427   0.20929   0.00000  Uiso   1.00
O76    O     0.16667   0.18573   0.20928   0.00000  Uiso   1.00
O77    O     0.16666   0.31427   0.29072   0.00000  Uiso   1.00
O78    O     0.09161   0.24999   0.28132   0.00000  Uiso   1.00
O79    O     0.24172   0.25000   0.21868   0.00000  Uiso   1.00
O80    O     0.09161   0.25000   0.19989   0.00000  Uiso   1.00
O81    O     0.24172   0.25000   0.30012   0.00000  Uiso   1.00
O82    O     0.22563   0.11727   0.18548   0.00000  Uiso   1.00
C83    C     0.50099   0.16500   0.24993   0.00000  Uiso   1.00
C84    C     0.54120   0.26986   0.45194   0.00000  Uiso   1.00
C85    C     0.49985   0.25049   0.02721   0.00000  Uiso   1.00
C86    C     0.50036   0.25052   0.47278   0.00000  Uiso   1.00
C87    C     0.40119   0.24990   0.23752   0.00000  Uiso   1.00
C88    C     0.59881   0.25001   0.26248   0.00000  Uiso   1.00
C89    C     0.34591   0.24975   0.23062   0.00000  Uiso   1.00
C90    C     0.65408   0.24992   0.26938   0.00000  Uiso   1.00
C91    C     0.48054   0.04760   0.28284   0.00000  Uiso   1.00
C92    C     0.49303   0.45301   0.20826   0.00000  Uiso   1.00
C93    C     0.47890   0.09332   0.28256   0.00000  Uiso   1.00
C94    C     0.50051   0.33521   0.25041   0.00000  Uiso   1.00
C95    C     0.49113   0.40715   0.20805   0.00000  Uiso   1.00
C96    C     0.50476   0.11693   0.25015   0.00000  Uiso   1.00
C97    C     0.50236   0.38373   0.25175   0.00000  Uiso   1.00
C98    C     0.53457   0.09444   0.21894   0.00000  Uiso   1.00
C99    C     0.51545   0.40704   0.29634   0.00000  Uiso   1.00
C100   C     0.53714   0.04813   0.21988   0.00000  Uiso   1.00
C101   C     0.52067   0.45316   0.29591   0.00000  Uiso   1.00
C102   C     0.50911   0.02465   0.25159   0.00000  Uiso   1.00
C103   C     0.50785   0.47621   0.25190   0.00000  Uiso   1.00
C104   C     0.60759   0.13195   0.20850   0.00000  Uiso   1.00
C105   C     0.54071   0.23165   0.05873   0.00000  Uiso   1.00
C106   C     0.48436   0.38628   0.36537   0.00000  Uiso   1.00
C107   C     0.61054   0.00901   0.21254   0.00000  Uiso   1.00
C108   C     0.59021   0.47795   0.34708   0.00000  Uiso   1.00
C109   C     0.42115   0.33357   0.02024   0.00000  Uiso   1.00
C110   C     0.58359   0.33361   0.47666   0.00000  Uiso   1.00
C111   C     0.45941   0.23162   0.44101   0.00000  Uiso   1.00
C112   C     0.53991   0.23147   0.10948   0.00000  Uiso   1.00
C113   C     0.46009   0.23145   0.39026   0.00000  Uiso   1.00
C114   C     0.45989   0.26871   0.09962   0.00000  Uiso   1.00
C115   C     0.54015   0.26882   0.40060   0.00000  Uiso   1.00
C116   C     0.45892   0.26958   0.04837   0.00000  Uiso   1.00
Cu117  Cu    0.50000   0.24999   0.29822   0.00000  Uiso   1.00
Cu118  Cu    0.50000   0.25000   0.20179   0.00000  Uiso   1.00
H119   H     0.65919   0.24955   0.19346   0.00000  Uiso   1.00
H120   H     0.49233   0.36518   0.39814   0.00000  Uiso   1.00
H121   H     0.44898   0.37304   0.34285   0.00000  Uiso   1.00
H122   H     0.47732   0.42040   0.37806   0.00000  Uiso   1.00
H123   H     0.60354   0.47583   0.22710   0.00000  Uiso   1.00
H124   H     0.62901   0.03088   0.24257   0.00000  Uiso   1.00
H125   H     0.63860   0.00480   0.18630   0.00000  Uiso   1.00
H126   H     0.60504   0.49804   0.31859   0.00000  Uiso   1.00
H127   H     0.60791   0.44445   0.34878   0.00000  Uiso   1.00
H128   H     0.60242   0.49449   0.38274   0.00000  Uiso   1.00
H129   H     0.57284   0.21653   0.04409   0.00000  Uiso   1.00
H130   H     0.34080   0.25007   0.30654   0.00000  Uiso   1.00
H131   H     0.42731   0.21644   0.45545   0.00000  Uiso   1.00
H132   H     0.57141   0.21626   0.13290   0.00000  Uiso   1.00
H133   H     0.42852   0.21617   0.36661   0.00000  Uiso   1.00
H134   H     0.42826   0.28316   0.11550   0.00000  Uiso   1.00
H135   H     0.57181   0.28306   0.38479   0.00000  Uiso   1.00
H136   H     0.45748   0.34466   0.00740   0.00000  Uiso   1.00
H137   H     0.41863   0.34704   0.05736   0.00000  Uiso   1.00
H138   H     0.38850   0.34750   0.49510   0.00000  Uiso   1.00
H139   H     0.54649   0.34857   0.48379   0.00000  Uiso   1.00
H140   H     0.59240   0.34321   0.44001   0.00000  Uiso   1.00
H141   H     0.45853   0.02996   0.30695   0.00000  Uiso   1.00
H142   H     0.61453   0.34754   0.00404   0.00000  Uiso   1.00
H143   H     0.48283   0.47048   0.17427   0.00000  Uiso   1.00
H144   H     0.45610   0.11029   0.30675   0.00000  Uiso   1.00
H145   H     0.48014   0.39003   0.17364   0.00000  Uiso   1.00
H146   H     0.60486   0.15112   0.24252   0.00000  Uiso   1.00
H147   H     0.62443   0.15419   0.18321   0.00000  Uiso   1.00
H148   H     0.63451   0.10379   0.21647   0.00000  Uiso   1.00
N149   N     0.50000   0.25001   0.12935   0.00000  Uiso   1.00
N150   N     0.50000   0.24999   0.37066   0.00000  Uiso   1.00
O151   O     0.50000   0.18572   0.29072   0.00000  Uiso   1.00
O152   O     0.52748   0.38476   0.33994   0.00000  Uiso   1.00
O153   O     0.56447   0.02660   0.18730   0.00000  Uiso   1.00
O154   O     0.53589   0.47579   0.33917   0.00000  Uiso   1.00
O155   O     0.41687   0.28714   0.01903   0.00000  Uiso   1.00
O156   O     0.58326   0.28731   0.48189   0.00000  Uiso   1.00
O157   O     0.50000   0.31427   0.20929   0.00000  Uiso   1.00
O158   O     0.50000   0.18573   0.20928   0.00000  Uiso   1.00
O159   O     0.50000   0.31427   0.29072   0.00000  Uiso   1.00
O160   O     0.42495   0.24999   0.28132   0.00000  Uiso   1.00
O161   O     0.57505   0.25000   0.21868   0.00000  Uiso   1.00
O162   O     0.42495   0.25000   0.19989   0.00000  Uiso   1.00
O163   O     0.57505   0.25000   0.30012   0.00000  Uiso   1.00
O164   O     0.55896   0.11727   0.18548   0.00000  Uiso   1.00
C165   C     0.83433   0.16500   0.24993   0.00000  Uiso   1.00
C166   C     0.87453   0.26986   0.45194   0.00000  Uiso   1.00
C167   C     0.83318   0.25049   0.02721   0.00000  Uiso   1.00
C168   C     0.83369   0.25052   0.47278   0.00000  Uiso   1.00
C169   C     0.73452   0.24990   0.23752   0.00000  Uiso   1.00
C170   C     0.93214   0.25001   0.26248   0.00000  Uiso   1.00
C171   C     0.67924   0.24975   0.23062   0.00000  Uiso   1.00
C172   C     0.98741   0.24992   0.26938   0.00000  Uiso   1.00
C173   C     0.81387   0.04760   0.28284   0.00000  Uiso   1.00
C174   C     0.82636   0.45301   0.20826   0.00000  Uiso   1.00
C175   C     0.81224   0.09332   0.28256   0.00000  Uiso   1.00
C176   C     0.83384   0.33521   0.25041   0.00000  Uiso   1.00
C177   C     0.82446   0.40715   0.20805   0.00000  Uiso   1.00
C178   C     0.83810   0.11693   0.25015   0.00000  Uiso   1.00
C179   C     0.83569   0.38373   0.25175   0.00000  Uiso   1.00
C180   C     0.86790   0.09444   0.21894   0.00000  Uiso   1.00
C181   C     0.84878   0.40704   0.29634   0.00000  Uiso   1.00
C182   C     0.87047   0.04813   0.21988   0.00000  Uiso   1.00
C183   C     0.85401   0.45316   0.29591   0.00000  Uiso   1.00
C184   C     0.84244   0.02465   0.25159   0.00000  Uiso   1.00
C185   C     0.84119   0.47621   0.25190   0.00000  Uiso   1.00
C186   C     0.94093   0.13195   0.20850   0.00000  Uiso   1.00
C187   C     0.87404   0.23165   0.05873   0.00000  Uiso   1.00
C188   C     0.81769   0.38628   0.36537   0.00000  Uiso   1.00
C189   C     0.94388   0.00901   0.21254   0.00000  Uiso   1.00
C190   C     0.92354   0.47795   0.34708   0.00000  Uiso   1.00
C191   C     0.75448   0.33357   0.02024   0.00000  Uiso   1.00
C192   C     0.91693   0.33361   0.47666   0.00000  Uiso   1.00
C193   C     0.79274   0.23162   0.44101   0.00000  Uiso   1.00
C194   C     0.87324   0.23147   0.10948   0.00000  Uiso   1.00
C195   C     0.79342   0.23145   0.39026   0.00000  Uiso   1.00
C196   C     0.79323   0.26871   0.09962   0.00000  Uiso   1.00
C197   C     0.87349   0.26882   0.40060   0.00000  Uiso   1.00
C198   C     0.79225   0.26958   0.04837   0.00000  Uiso   1.00
Cu199  Cu    0.83333   0.24999   0.29822   0.00000  Uiso   1.00
Cu200  Cu    0.83333   0.25000   0.20179   0.00000  Uiso   1.00
H201   H     0.99252   0.24955   0.19346   0.00000  Uiso   1.00
H202   H     0.82566   0.36518   0.39814   0.00000  Uiso   1.00
H203   H     0.78231   0.37304   0.34285   0.00000  Uiso   1.00
H204   H     0.81066   0.42040   0.37806   0.00000  Uiso   1.00
H205   H     0.93687   0.47583   0.22710   0.00000  Uiso   1.00
H206   H     0.96234   0.03088   0.24257   0.00000  Uiso   1.00
H207   H     0.97193   0.00480   0.18630   0.00000  Uiso   1.00
H208   H     0.93837   0.49804   0.31859   0.00000  Uiso   1.00
H209   H     0.94125   0.44445   0.34878   0.00000  Uiso   1.00
H210   H     0.93575   0.49449   0.38274   0.00000  Uiso   1.00
H211   H     0.90617   0.21653   0.04409   0.00000  Uiso   1.00
H212   H     0.67413   0.25007   0.30654   0.00000  Uiso   1.00
H213   H     0.76064   0.21644   0.45545   0.00000  Uiso   1.00
H214   H     0.90475   0.21626   0.13290   0.00000  Uiso   1.00
H215   H     0.76185   0.21617   0.36661   0.00000  Uiso   1.00
H216   H     0.76159   0.28316   0.11550   0.00000  Uiso   1.00
H217   H     0.90515   0.28306   0.38479   0.00000  Uiso   1.00
H218   H     0.79081   0.34466   0.00740   0.00000  Uiso   1.00
H219   H     0.75196   0.34704   0.05736   0.00000  Uiso   1.00
H220   H     0.72184   0.34750   0.49510   0.00000  Uiso   1.00
H221   H     0.87982   0.34857   0.48379   0.00000  Uiso   1.00
H222   H     0.92573   0.34321   0.44001   0.00000  Uiso   1.00
H223   H     0.79187   0.02996   0.30695   0.00000  Uiso   1.00
H224   H     0.94787   0.34754   0.00404   0.00000  Uiso   1.00
H225   H     0.81616   0.47048   0.17427   0.00000  Uiso   1.00
H226   H     0.78943   0.11029   0.30675   0.00000  Uiso   1.00
H227   H     0.81347   0.39003   0.17364   0.00000  Uiso   1.00
H228   H     0.93819   0.15112   0.24252   0.00000  Uiso   1.00
H229   H     0.95776   0.15419   0.18321   0.00000  Uiso   1.00
H230   H     0.96785   0.10379   0.21647   0.00000  Uiso   1.00
N231   N     0.83333   0.25001   0.12935   0.00000  Uiso   1.00
N232   N     0.83333   0.24999   0.37066   0.00000  Uiso   1.00
O233   O     0.83334   0.18572   0.29072   0.00000  Uiso   1.00
O234   O     0.86081   0.38476   0.33994   0.00000  Uiso   1.00
O235   O     0.89781   0.02660   0.18730   0.00000  Uiso   1.00
O236   O     0.86922   0.47579   0.33917   0.00000  Uiso   1.00
O237   O     0.75020   0.28714   0.01903   0.00000  Uiso   1.00
O238   O     0.91659   0.28731   0.48189   0.00000  Uiso   1.00
O239   O     0.83333   0.31427   0.20929   0.00000  Uiso   1.00
O240   O     0.83334   0.18573   0.20928   0.00000  Uiso   1.00
O241   O     0.83333   0.31427   0.29072   0.00000  Uiso   1.00
O242   O     0.75828   0.24999   0.28132   0.00000  Uiso   1.00
O243   O     0.90839   0.25000   0.21868   0.00000  Uiso   1.00
O244   O     0.75828   0.25000   0.19989   0.00000  Uiso   1.00
O245   O     0.90839   0.25000   0.30012   0.00000  Uiso   1.00
O246   O     0.89230   0.11727   0.18548   0.00000  Uiso   1.00
C247   C     0.16766   0.66500   0.24993   0.00000  Uiso   1.00
C248   C     0.20787   0.76986   0.45194   0.00000  Uiso   1.00
C249   C     0.16652   0.75049   0.02721   0.00000  Uiso   1.00
C250   C     0.16702   0.75052   0.47278   0.00000  Uiso   1.00
C251   C     0.06786   0.74990   0.23752   0.00000  Uiso   1.00
C252   C     0.26547   0.75001   0.26248   0.00000  Uiso   1.00
C253   C     0.01258   0.74975   0.23062   0.00000  Uiso   1.00
C254   C     0.32075   0.74992   0.26938   0.00000  Uiso   1.00
C255   C     0.14720   0.54760   0.28284   0.00000  Uiso   1.00
C256   C     0.15970   0.95301   0.20826   0.00000  Uiso   1.00
C257   C     0.14557   0.59332   0.28256   0.00000  Uiso   1.00
C258   C     0.16717   0.83521   0.25041   0.00000  Uiso   1.00
C259   C     0.15779   0.90715   0.20805   0.00000  Uiso   1.00
C260   C     0.17143   0.61693   0.25015   0.00000  Uiso   1.00
C261   C     0.16903   0.88373   0.25175   0.00000  Uiso   1.00
C262   C     0.20124   0.59444   0.21894   0.00000  Uiso   1.00
C263   C     0.18211   0.90704   0.29634   0.00000  Uiso   1.00
C264   C     0.20380   0.54813   0.21988   0.00000  Uiso   1.00
C265   C     0.18734   0.95316   0.29591   0.00000  Uiso   1.00
C266   C     0.17577   0.52465   0.25159   0.00000  Uiso   1.00
C267   C     0.17452   0.97621   0.25190   0.00000  Uiso   1.00
C268   C     0.27426   0.63195   0.20850   0.00000  Uiso   1.00
C269   C     0.20738   0.73165   0.05873   0.00000  Uiso   1.00
C270   C     0.15102   0.88628   0.36537   0.00000  Uiso   1.00
C271   C     0.27721   0.50901   0.21254   0.00000  Uiso   1.00
C272   C     0.25687   0.97795   0.34708   0.00000  Uiso   1.00
C273   C     0.08781   0.83357   0.02024   0.00000  Uiso   1.00
C274   C     0.25026   0.83361   0.47666   0.00000  Uiso   1.00
C275   C     0.12608   0.73162   0.44101   0.00000  Uiso   1.00
C276   C     0.20657   0.73147   0.10948   0.00000  Uiso   1.00
C277   C     0.12675   0.73145   0.39026   0.00000  Uiso   1.00
C278   C     0.12656   0.76871   0.09962   0.00000  Uiso   1.00
C279   C     0.20682   0.76882   0.40060   0.00000  Uiso   1.00
C280   C     0.12558   0.76958   0.04837   0.00000  Uiso   1.00
Cu281  Cu    0.16667   0.74999   0.29822   0.00000  Uiso   1.00
Cu282  Cu    0.16667   0.75000   0.20179   0.00000  Uiso   1.00
H283   H     0.32585   0.74955   0.19346   0.00000  Uiso   1.00
H284   H     0.15900   0.86518   0.39814   0.00000  Uiso   1.00
H285   H     0.11565   0.87304   0.34285   0.00000  Uiso   1.00
H286   H     0.14399   0.92040   0.37806   0.00000  Uiso   1.00
H287   H     0.27021   0.97583   0.22710   0.00000  Uiso   1.00
H288   H     0.29568   0.53088   0.24257   0.00000  Uiso   1.00
H289   H     0.30526   0.50480   0.18630   0.00000  Uiso   1.00
H290   H     0.27171   0.99804   0.31859   0.00000  Uiso   1.00
H291   H     0.27458   0.94445   0.34878   0.00000  Uiso   1.00
H292   H     0.26909   0.99449   0.38274   0.00000  Uiso   1.00
H293   H     0.23951   0.71653   0.04409   0.00000  Uiso   1.00
H294   H     0.00746   0.75007   0.30654   0.00000  Uiso   1.00
H295   H     0.09398   0.71644   0.45545   0.00000  Uiso   1.00
H296   H     0.23808   0.71626   0.13290   0.00000  Uiso   1.00
H297   H     0.09519   0.71617   0.36661   0.00000  Uiso   1.00
H298   H     0.09493   0.78316   0.11550   0.00000  Uiso   1.00
H299   H     0.23848   0.78306   0.38479   0.00000  Uiso   1.00
H300   H     0.12414   0.84466   0.00740   0.00000  Uiso   1.00
H301   H     0.08529   0.84704   0.05736   0.00000  Uiso   1.00
H302   H     0.05517   0.84750   0.49510   0.00000  Uiso   1.00
H303   H     0.21316   0.84857   0.48379   0.00000  Uiso   1.00
H304   H     0.25906   0.84321   0.44001   0.00000  Uiso   1.00
H305   H     0.12520   0.52996   0.30695   0.00000  Uiso   1.00
H306   H     0.28120   0.84754   0.00404   0.00000  Uiso   1.00
H307   H     0.14950   0.97048   0.17427   0.00000  Uiso   1.00
H308   H     0.12276   0.61029   0.30675   0.00000  Uiso   1.00
H309   H     0.14681   0.89003   0.17364   0.00000  Uiso   1.00
H310   H     0.27153   0.65112   0.24252   0.00000  Uiso   1.00
H311   H     0.29109   0.65419   0.18321   0.00000  Uiso   1.00
H312   H     0.30118   0.60379   0.21647   0.00000  Uiso   1.00
N313   N     0.16667   0.75001   0.12935   0.00000  Uiso   1.00
N314   N     0.16667   0.74999   0.37066   0.00000  Uiso   1.00
O315   O     0.16667   0.68572   0.29072   0.00000  Uiso   1.00
O316   O     0.19414   0.88476   0.33994   0.00000  Uiso   1.00
O317   O     0.23114   0.52660   0.18730   0.00000  Uiso   1.00
O318   O     0.20256   0.97579   0.33917   0.00000  Uiso   1.00
O319   O     0.08354   0.78714   0.01903   0.00000  Uiso   1.00
O320   O     0.24992   0.78731   0.48189   0.00000  Uiso   1.00
O321   O     0.16666   0.81427   0.20929   0.00000  Uiso   1.00
O322   O     0.16667   0.68573   0.20928   0.00000  Uiso   1.00
O323   O     0.16666   0.81427   0.29072   0.00000  Uiso   1.00
O324   O     0.09161   0.74999   0.28132   0.00000  Uiso   1.00
O325   O     0.24172   0.75000   0.21868   0.00000  Uiso   1.00
O326   O     0.09161   0.75000   0.19989   0.00000  Uiso   1.00
O327   O     0.24172   0.75000   0.30012   0.00000  Uiso   1.00
O328   O     0.22563   0.61727   0.18548   0.00000  Uiso   1.00
C329   C     0.50099   0.66500   0.24993   0.00000  Uiso   1.00
C330   C     0.54120   0.76986   0.45194   0.00000  Uiso   1.00
C331   C     0.49985   0.75049   0.02721   0.00000  Uiso   1.00
C332   C     0.50036   0.75052   0.47278   0.00000  Uiso   1.00
C333   C     0.40119   0.74990   0.23752   0.00000  Uiso   1.00
C334   C     0.59881   0.75001   0.26248   0.00000  Uiso   1.00
C335   C     0.34591   0.74975   0.23062   0.00000  Uiso   1.00
C336   C     0.65408   0.74992   0.26938   0.00000  Uiso   1.00
C337   C     0.48054   0.54760   0.28284   0.00000  Uiso   1.00
C338   C     0.49303   0.95301   0.20826   0.00000  Uiso   1.00
C339   C     0.47890   0.59332   0.28256   0.00000  Uiso   1.00
C340   C     0.50051   0.83521   0.25041   0.00000  Uiso   1.00
C341   C     0.49113   0.90715   0.20805   0.00000  Uiso   1.00
C342   C     0.50476   0.61693   0.25015   0.00000  Uiso   1.00
C343   C     0.50236   0.88373   0.25175   0.00000  Uiso   1.00
C344   C     0.53457   0.59444   0.21894   0.00000  Uiso   1.00
C345   C     0.51545   0.90704   0.29634   0.00000  Uiso   1.00
C346   C     0.53714   0.54813   0.21988   0.00000  Uiso   1.00
C347   C     0.52067   0.95316   0.29591   0.00000  Uiso   1.00
C348   C     0.50911   0.52465   0.25159   0.00000  Uiso   1.00
C349   C     0.50785   0.97621   0.25190   0.00000  Uiso   1.00
C350   C     0.60759   0.63195   0.20850   0.00000  Uiso   1.00
C351   C     0.54071   0.73165   0.05873   0.00000  Uiso   1.00
C352   C     0.48436   0.88628   0.36537   0.00000  Uiso   1.00
C353   C     0.61054   0.50901   0.21254   0.00000  Uiso   1.00
C354   C     0.59021   0.97795   0.34708   0.00000  Uiso   1.00
C355   C     0.42115   0.83357   0.02024   0.00000  Uiso   1.00
C356   C     0.58359   0.83361   0.47666   0.00000  Uiso   1.00
C357   C     0.45941   0.73162   0.44101   0.00000  Uiso   1.00
C358   C     0.53991   0.73147   0.10948   0.00000  Uiso   1.00
C359   C     0.46009   0.73145   0.39026   0.00000  Uiso   1.00
C360   C     0.45989   0.76871   0.09962   0.00000  Uiso   1.00
C361   C     0.54015   0.76882   0.40060   0.00000  Uiso   1.00
C362   C     0.45892   0.76958   0.04837   0.00000  Uiso   1.00
Cu363  Cu    0.50000   0.74999   0.29822   0.00000  Uiso   1.00
Cu364  Cu    0.50000   0.75000   0.20179   0.00000  Uiso   1.00
H365   H     0.65919   0.74955   0.19346   0.00000  Uiso   1.00
H366   H     0.49233   0.86518   0.39814   0.00000  Uiso   1.00
H367   H     0.44898   0.87304   0.34285   0.00000  Uiso   1.00
H368   H     0.47732   0.92040   0.37806   0.00000  Uiso   1.00
H369   H     0.60354   0.97583   0.22710   0.00000  Uiso   1.00
H370   H     0.62901   0.53088   0.24257   0.00000  Uiso   1.00
H371   H     0.63860   0.50480   0.18630   0.00000  Uiso   1.00
H372   H     0.60504   0.99804   0.31859   0.00000  Uiso   1.00
H373   H     0.60791   0.94445   0.34878   0.00000  Uiso   1.00
H374   H     0.60242   0.99449   0.38274   0.00000  Uiso   1.00
H375   H     0.57284   0.71653   0.04409   0.00000  Uiso   1.00
H376   H     0.34080   0.75007   0.30654   0.00000  Uiso   1.00
H377   H     0.42731   0.71644   0.45545   0.00000  Uiso   1.00
H378   H     0.57141   0.71626   0.13290   0.00000  Uiso   1.00
H379   H     0.42852   0.71617   0.36661   0.00000  Uiso   1.00
H380   H     0.42826   0.78316   0.11550   0.00000  Uiso   1.00
H381   H     0.57181   0.78306   0.38479   0.00000  Uiso   1.00
H382   H     0.45748   0.84466   0.00740   0.00000  Uiso   1.00
H383   H     0.41863   0.84704   0.05736   0.00000  Uiso   1.00
H384   H     0.38850   0.84750   0.49510   0.00000  Uiso   1.00
H385   H     0.54649   0.84857   0.48379   0.00000  Uiso   1.00
H386   H     0.59240   0.84321   0.44001   0.00000  Uiso   1.00
H387   H     0.45853   0.52996   0.30695   0.00000  Uiso   1.00
H388   H     0.61453   0.84754   0.00404   0.00000  Uiso   1.00
H389   H     0.48283   0.97048   0.17427   0.00000  Uiso   1.00
H390   H     0.45610   0.61029   0.30675   0.00000  Uiso   1.00
H391   H     0.48014   0.89003   0.17364   0.00000  Uiso   1.00
H392   H     0.60486   0.65112   0.24252   0.00000  Uiso   1.00
H393   H     0.62443   0.65419   0.18321   0.00000  Uiso   1.00
H394   H     0.63451   0.60379   0.21647   0.00000  Uiso   1.00
N395   N     0.50000   0.75001   0.12935   0.00000  Uiso   1.00
N396   N     0.50000   0.74999   0.37066   0.00000  Uiso   1.00
O397   O     0.50000   0.68572   0.29072   0.00000  Uiso   1.00
O398   O     0.52748   0.88476   0.33994   0.00000  Uiso   1.00
O399   O     0.56447   0.52660   0.18730   0.00000  Uiso   1.00
O400   O     0.53589   0.97579   0.33917   0.00000  Uiso   1.00
O401   O     0.41687   0.78714   0.01903   0.00000  Uiso   1.00
O402   O     0.58326   0.78731   0.48189   0.00000  Uiso   1.00
O403   O     0.50000   0.81427   0.20929   0.00000  Uiso   1.00
O404   O     0.50000   0.68573   0.20928   0.00000  Uiso   1.00
O405   O     0.50000   0.81427   0.29072   0.00000  Uiso   1.00
O406   O     0.42495   0.74999   0.28132   0.00000  Uiso   1.00
O407   O     0.57505   0.75000   0.21868   0.00000  Uiso   1.00
O408   O     0.42495   0.75000   0.19989   0.00000  Uiso   1.00
O409   O     0.57505   0.75000   0.30012   0.00000  Uiso   1.00
O410   O     0.55896   0.61727   0.18548   0.00000  Uiso   1.00
C411   C     0.83433   0.66500   0.24993   0.00000  Uiso   1.00
C412   C     0.87453   0.76986   0.45194   0.00000  Uiso   1.00
C413   C     0.83318   0.75049   0.02721   0.00000  Uiso   1.00
C414   C     0.83369   0.75052   0.47278   0.00000  Uiso   1.00
C415   C     0.73452   0.74990   0.23752   0.00000  Uiso   1.00
C416   C     0.93214   0.75001   0.26248   0.00000  Uiso   1.00
C417   C     0.67924   0.74975   0.23062   0.00000  Uiso   1.00
C418   C     0.98741   0.74992   0.26938   0.00000  Uiso   1.00
C419   C     0.81387   0.54760   0.28284   0.00000  Uiso   1.00
C420   C     0.82636   0.95301   0.20826   0.00000  Uiso   1.00
C421   C     0.81224   0.59332   0.28256   0.00000  Uiso   1.00
C422   C     0.83384   0.83521   0.25041   0.00000  Uiso   1.00
C423   C     0.82446   0.90715   0.20805   0.00000  Uiso   1.00
C424   C     0.83810   0.61693   0.25015   0.00000  Uiso   1.00
C425   C     0.83569   0.88373   0.25175   0.00000  Uiso   1.00
C426   C     0.86790   0.59444   0.21894   0.00000  Uiso   1.00
C427   C     0.84878   0.90704   0.29634   0.00000  Uiso   1.00
C428   C     0.87047   0.54813   0.21988   0.00000  Uiso   1.00
C429   C     0.85401   0.95316   0.29591   0.00000  Uiso   1.00
C430   C     0.84244   0.52465   0.25159   0.00000  Uiso   1.00
C431   C     0.84119   0.97621   0.25190   0.00000  Uiso   1.00
C432   C     0.94093   0.63195   0.20850   0.00000  Uiso   1.00
C433   C     0.87404   0.73165   0.05873   0.00000  Uiso   1.00
C434   C     0.81769   0.88628   0.36537   0.00000  Uiso   1.00
C435   C     0.94388   0.50901   0.21254   0.00000  Uiso   1.00
C436   C     0.92354   0.97795   0.34708   0.00000  Uiso   1.00
C437   C     0.75448   0.83357   0.02024   0.00000  Uiso   1.00
C438   C     0.91693   0.83361   0.47666   0.00000  Uiso   1.00
C439   C     0.79274   0.73162   0.44101   0.00000  Uiso   1.00
C440   C     0.87324   0.73147   0.10948   0.00000  Uiso   1.00
C441   C     0.79342   0.73145   0.39026   0.00000  Uiso   1.00
C442   C     0.79323   0.76871   0.09962   0.00000  Uiso   1.00
C443   C     0.87349   0.76882   0.40060   0.00000  Uiso   1.00
C444   C     0.79225   0.76958   0.04837   0.00000  Uiso   1.00
Cu445  Cu    0.83333   0.74999   0.29822   0.00000  Uiso   1.00
Cu446  Cu    0.83333   0.75000   0.20179   0.00000  Uiso   1.00
H447   H     0.99252   0.74955   0.19346   0.00000  Uiso   1.00
H448   H     0.82566   0.86518   0.39814   0.00000  Uiso   1.00
H449   H     0.78231   0.87304   0.34285   0.00000  Uiso   1.00
H450   H     0.81066   0.92040   0.37806   0.00000  Uiso   1.00
H451   H     0.93687   0.97583   0.22710   0.00000  Uiso   1.00
H452   H     0.96234   0.53088   0.24257   0.00000  Uiso   1.00
H453   H     0.97193   0.50480   0.18630   0.00000  Uiso   1.00
H454   H     0.93837   0.99804   0.31859   0.00000  Uiso   1.00
H455   H     0.94125   0.94445   0.34878   0.00000  Uiso   1.00
H456   H     0.93575   0.99449   0.38274   0.00000  Uiso   1.00
H457   H     0.90617   0.71653   0.04409   0.00000  Uiso   1.00
H458   H     0.67413   0.75007   0.30654   0.00000  Uiso   1.00
H459   H     0.76064   0.71644   0.45545   0.00000  Uiso   1.00
H460   H     0.90475   0.71626   0.13290   0.00000  Uiso   1.00
H461   H     0.76185   0.71617   0.36661   0.00000  Uiso   1.00
H462   H     0.76159   0.78316   0.11550   0.00000  Uiso   1.00
H463   H     0.90515   0.78306   0.38479   0.00000  Uiso   1.00
H464   H     0.79081   0.84466   0.00740   0.00000  Uiso   1.00
H465   H     0.75196   0.84704   0.05736   0.00000  Uiso   1.00
H466   H     0.72184   0.84750   0.49510   0.00000  Uiso   1.00
H467   H     0.87982   0.84857   0.48379   0.00000  Uiso   1.00
H468   H     0.92573   0.84321   0.44001   0.00000  Uiso   1.00
H469   H     0.79187   0.52996   0.30695   0.00000  Uiso   1.00
H470   H     0.94787   0.84754   0.00404   0.00000  Uiso   1.00
H471   H     0.81616   0.97048   0.17427   0.00000  Uiso   1.00
H472   H     0.78943   0.61029   0.30675   0.00000  Uiso   1.00
H473   H     0.81347   0.89003   0.17364   0.00000  Uiso   1.00
H474   H     0.93819   0.65112   0.24252   0.00000  Uiso   1.00
H475   H     0.95776   0.65419   0.18321   0.00000  Uiso   1.00
H476   H     0.96785   0.60379   0.21647   0.00000  Uiso   1.00
N477   N     0.83333   0.75001   0.12935   0.00000  Uiso   1.00
N478   N     0.83333   0.74999   0.37066   0.00000  Uiso   1.00
O479   O     0.83334   0.68572   0.29072   0.00000  Uiso   1.00
O480   O     0.86081   0.88476   0.33994   0.00000  Uiso   1.00
O481   O     0.89781   0.52660   0.18730   0.00000  Uiso   1.00
O482   O     0.86922   0.97579   0.33917   0.00000  Uiso   1.00
O483   O     0.75020   0.78714   0.01903   0.00000  Uiso   1.00
O484   O     0.91659   0.78731   0.48189   0.00000  Uiso   1.00
O485   O     0.83333   0.81427   0.20929   0.00000  Uiso   1.00
O486   O     0.83334   0.68573   0.20928   0.00000  Uiso   1.00
O487   O     0.83333   0.81427   0.29072   0.00000  Uiso   1.00
O488   O     0.75828   0.74999   0.28132   0.00000  Uiso   1.00
O489   O     0.90839   0.75000   0.21868   0.00000  Uiso   1.00
O490   O     0.75828   0.75000   0.19989   0.00000  Uiso   1.00
O491   O     0.90839   0.75000   0.30012   0.00000  Uiso   1.00
O492   O     0.89230   0.61727   0.18548   0.00000  Uiso   1.00
C493   C     0.16766   0.16500   0.74993   0.00000  Uiso   1.00
C494   C     0.20787   0.26986   0.95194   0.00000  Uiso   1.00
C495   C     0.16652   0.25049   0.52721   0.00000  Uiso   1.00
C496   C     0.16702   0.25052   0.97278   0.00000  Uiso   1.00
C497   C     0.06786   0.24990   0.73752   0.00000  Uiso   1.00
C498   C     0.26547   0.25001   0.76248   0.00000  Uiso   1.00
C499   C     0.01258   0.24975   0.73062   0.00000  Uiso   1.00
C500   C     0.32075   0.24992   0.76938   0.00000  Uiso   1.00
C501   C     0.14720   0.04760   0.78284   0.00000  Uiso   1.00
C502   C     0.15970   0.45301   0.70826   0.00000  Uiso   1.00
C503   C     0.14557   0.09332   0.78256   0.00000  Uiso   1.00
C504   C     0.16717   0.33521   0.75041   0.00000  Uiso   1.00
C505   C     0.15779   0.40715   0.70805   0.00000  Uiso   1.00
C506   C     0.17143   0.11693   0.75015   0.00000  Uiso   1.00
C507   C     0.16903   0.38373   0.75175   0.00000  Uiso   1.00
C508   C     0.20124   0.09444   0.71894   0.00000  Uiso   1.00
C509   C     0.18211   0.40704   0.79634   0.00000  Uiso   1.00
C510   C     0.20380   0.04813   0.71988   0.00000  Uiso   1.00
C511   C     0.18734   0.45316   0.79591   0.00000  Uiso   1.00
C512   C     0.17577   0.02465   0.75159   0.00000  Uiso   1.00
C513   C     0.17452   0.47621   0.75190   0.00000  Uiso   1.00
C514   C     0.27426   0.13195   0.70850   0.00000  Uiso   1.00
C515   C     0.20738   0.23165   0.55873   0.00000  Uiso   1.00
C516   C     0.15102   0.38628   0.86537   0.00000  Uiso   1.00
C517   C     0.27721   0.00901   0.71254   0.00000  Uiso   1.00
C518   C     0.25687   0.47795   0.84708   0.00000  Uiso   1.00
C519   C     0.08781   0.33357   0.52024   0.00000  Uiso   1.00
C520   C     0.25026   0.33361   0.97666   0.00000  Uiso   1.00
C521   C     0.12608   0.23162   0.94101   0.00000  Uiso   1.00
C522   C     0.20657   0.23147   0.60948   0.00000  Uiso   1.00
C523   C     0.12675   0.23145   0.89026   0.00000  Uiso   1.00
C524   C     0.12656   0.26871   0.59962   0.00000  Uiso   1.00
C525   C     0.20682   0.26882   0.90060   0.00000  Uiso   1.00
C526   C     0.12558   0.26958   0.54837   0.00000  Uiso   1.00
Cu527  Cu    0.16667   0.24999   0.79822   0.00000  Uiso   1.00
Cu528  Cu    0.16667   0.25000   0.70179   0.00000  Uiso   1.00
H529   H     0.32585   0.24955   0.69346   0.00000  Uiso   1.00
H530   H     0.15900   0.36518   0.89814   0.00000  Uiso   1.00
H531   H     0.11565   0.37304   0.84285   0.00000  Uiso   1.00
H532   H     0.14399   0.42040   0.87806   0.00000  Uiso   1.00
H533   H     0.27021   0.47583   0.72710   0.00000  Uiso   1.00
H534   H     0.29568   0.03088   0.74257   0.00000  Uiso   1.00
H535   H     0.30526   0.00480   0.68630   0.00000  Uiso   1.00
H536   H     0.27171   0.49804   0.81859   0.00000  Uiso   1.00
H537   H     0.27458   0.44445   0.84878   0.00000  Uiso   1.00
H538   H     0.26909   0.49449   0.88274   0.00000  Uiso   1.00
H539   H     0.23951   0.21653   0.54409   0.00000  Uiso   1.00
H540   H     0.00746   0.25007   0.80654   0.00000  Uiso   1.00
H541   H     0.09398   0.21644   0.95545   0.00000  Uiso   1.00
H542   H     0.23808   0.21626   0.63290   0.00000  Uiso   1.00
H543   H     0.09519   0.21617   0.86661   0.00000  Uiso   1.00
H544   H     0.09493   0.28316   0.61550   0.00000  Uiso   1.00
H545   H     0.23848   0.28306   0.88479   0.00000  Uiso   1.00
H546   H     0.12414   0.34466   0.50740   0.00000  Uiso   1.00
H547   H     0.08529   0.34704   0.55736   0.00000  Uiso   1.00
H548   H     0.05517   0.34750   0.99510   0.00000  Uiso   1.00
H549   H     0.21316   0.34857   0.98379   0.00000  Uiso   1.00
H550   H     0.25906   0.34321   0.94001   0.00000  Uiso   1.00
H551   H     0.12520   0.02996   0.80695   0.00000  Uiso   1.00
H552   H     0.28120   0.34754   0.50404   0.00000  Uiso   1.00
H553   H     0.14950   0.47048   0.67427   0.00000  Uiso   1.00
H554   H     0.12276   0.11029   0.80675   0.00000  Uiso   1.00
H555   H     0.14681   0.39003   0.67364   0.00000  Uiso   1.00
H556   H     0.27153   0.15112   0.74252   0.00000  Uiso   1.00
H557   H     0.29109   0.15419   0.68321   0.00000  Uiso   1.00
H558   H     0.30118   0.10379   0.71647   0.00000  Uiso   1.00
N559   N     0.16667   0.25001   0.62935   0.00000  Uiso   1.00
N560   N     0.16667   0.24999   0.87066   0.00000  Uiso   1.00
O561   O     0.16667   0.18572   0.79072   0.00000  Uiso   1.00
O562   O     0.19414   0.38476   0.83994   0.00000  Uiso   1.00
O563   O     0.23114   0.02660   0.68730   0.00000  Uiso   1.00
O564   O     0.20256   0.47579   0.83917   0.00000  Uiso   1.00
O565   O     0.08354   0.28714   0.51903   0.00000  Uiso   1.00
O566   O     0.24992   0.28731   0.98189   0.00000  Uiso   1.00
O567   O     0.16666   0.31427   0.70929   0.00000  Uiso   1.00
O568   O     0.16667   0.18573   0.70928   0.00000  Uiso   1.00
O569   O     0.16666   0.31427   0.79072   0.00000  Uiso   1.00
O570   O     0.09161   0.24999   0.78132   0.00000  Uiso   1.00
O571   O     0.24172   0.25000   0.71868   0.00000  Uiso   1.00
O572   O     0.09161   0.25000   0.69989   0.00000  Uiso   1.00
O573   O     0.24172   0.25000   0.80012   0.00000  Uiso   1.00
O574   O     0.22563   0.11727   0.68548   0.00000  Uiso   1.00
C575   C     0.50099   0.16500   0.74993   0.00000  Uiso   1.00
C576   C     0.54120   0.26986   0.95194   0.00000  Uiso   1.00
C577   C     0.49985   0.25049   0.52721   0.00000  Uiso   1.00
C578   C     0.50036   0.25052   0.97278   0.00000  Uiso   1.00
C579   C     0.40119   0.24990   0.73752   0.00000  Uiso   1.00
C580   C     0.59881   0.25001   0.76248   0.00000  Uiso   1.00
C581   C     0.34591   0.24975   0.73062   0.00000  Uiso   1.00
C582   C     0.65408   0.24992   0.76938   0.00000  Uiso   1.00
C583   C     0.48054   0.04760   0.78284   0.00000  Uiso   1.00
C584   C     0.49303   0.45301   0.70826   0.00000  Uiso   1.00
C585   C     0.47890   0.09332   0.78256   0.00000  Uiso   1.00
C586   C     0.50051   0.33521   0.75041   0.00000  Uiso   1.00
C587   C     0.49113   0.40715   0.70805   0.00000  Uiso   1.00
C588   C     0.50476   0.11693   0.75015   0.00000  Uiso   1.00
C589   C     0.50236   0.38373   0.75175   0.00000  Uiso   1.00
C590   C     0.53457   0.09444   0.71894   0.00000  Uiso   1.00
C591   C     0.51545   0.40704   0.79634   0.00000  Uiso   1.00
C592   C     0.53714   0.04813   0.71988   0.00000  Uiso   1.00
C593   C     0.52067   0.45316   0.79591   0.00000  Uiso   1.00
C594   C     0.50911   0.02465   0.75159   0.00000  Uiso   1.00
C595   C     0.50785   0.47621   0.75190   0.00000  Uiso   1.00
C596   C     0.60759   0.13195   0.70850   0.00000  Uiso   1.00
C597   C     0.54071   0.23165   0.55873   0.00000  Uiso   1.00
C598   C     0.48436   0.38628   0.86537   0.00000  Uiso   1.00
C599   C     0.61054   0.00901   0.71254   0.00000  Uiso   1.00
C600   C     0.59021   0.47795   0.84708   0.00000  Uiso   1.00
C601   C     0.42115   0.33357   0.52024   0.00000  Uiso   1.00
C602   C     0.58359   0.33361   0.97666   0.00000  Uiso   1.00
C603   C     0.45941   0.23162   0.94101   0.00000  Uiso   1.00
C604   C     0.53991   0.23147   0.60948   0.00000  Uiso   1.00
C605   C     0.46009   0.23145   0.89026   0.00000  Uiso   1.00
C606   C     0.45989   0.26871   0.59962   0.00000  Uiso   1.00
C607   C     0.54015   0.26882   0.90060   0.00000  Uiso   1.00
C608   C     0.45892   0.26958   0.54837   0.00000  Uiso   1.00
Cu609  Cu    0.50000   0.24999   0.79822   0.00000  Uiso   1.00
Cu610  Cu    0.50000   0.25000   0.70179   0.00000  Uiso   1.00
H611   H     0.65919   0.24955   0.69346   0.00000  Uiso   1.00
H612   H     0.49233   0.36518   0.89814   0.00000  Uiso   1.00
H613   H     0.44898   0.37304   0.84285   0.00000  Uiso   1.00
H614   H     0.47732   0.42040   0.87806   0.00000  Uiso   1.00
H615   H     0.60354   0.47583   0.72710   0.00000  Uiso   1.00
H616   H     0.62901   0.03088   0.74257   0.00000  Uiso   1.00
H617   H     0.63860   0.00480   0.68630   0.00000  Uiso   1.00
H618   H     0.60504   0.49804   0.81859   0.00000  Uiso   1.00
H619   H     0.60791   0.44445   0.84878   0.00000  Uiso   1.00
H620   H     0.60242   0.49449   0.88274   0.00000  Uiso   1.00
H621   H     0.57284   0.21653   0.54409   0.00000  Uiso   1.00
H622   H     0.34080   0.25007   0.80654   0.00000  Uiso   1.00
H623   H     0.42731   0.21644   0.95545   0.00000  Uiso   1.00
H624   H     0.57141   0.21626   0.63290   0.00000  Uiso   1.00
H625   H     0.42852   0.21617   0.86661   0.00000  Uiso   1.00
H626   H     0.42826   0.28316   0.61550   0.00000  Uiso   1.00
H627   H     0.57181   0.28306   0.88479   0.00000  Uiso   1.00
H628   H     0.45748   0.34466   0.50740   0.00000  Uiso   1.00
H629   H     0.41863   0.34704   0.55736   0.00000  Uiso   1.00
H630   H     0.38850   0.34750   0.99510   0.00000  Uiso   1.00
H631   H     0.54649   0.34857   0.98379   0.00000  Uiso   1.00
H632   H     0.59240   0.34321   0.94001   0.00000  Uiso   1.00
H633   H     0.45853   0.02996   0.80695   0.00000  Uiso   1.00
H634   H     0.61453   0.34754   0.50404   0.00000  Uiso   1.00
H635   H     0.48283   0.47048   0.67427   0.00000  Uiso   1.00
H636   H     0.45610   0.11029   0.80675   0.00000  Uiso   1.00
H637   H     0.48014   0.39003   0.67364   0.00000  Uiso   1.00
H638   H     0.60486   0.15112   0.74252   0.00000  Uiso   1.00
H639   H     0.62443   0.15419   0.68321   0.00000  Uiso   1.00
H640   H     0.63451   0.10379   0.71647   0.00000  Uiso   1.00
N641   N     0.50000   0.25001   0.62935   0.00000  Uiso   1.00
N642   N     0.50000   0.24999   0.87066   0.00000  Uiso   1.00
O643   O     0.50000   0.18572   0.79072   0.00000  Uiso   1.00
O644   O     0.52748   0.38476   0.83994   0.00000  Uiso   1.00
O645   O     0.56447   0.02660   0.68730   0.00000  Uiso   1.00
O646   O     0.53589   0.47579   0.83917   0.00000  Uiso   1.00
O647   O     0.41687   0.28714   0.51903   0.00000  Uiso   1.00
O648   O     0.58326   0.28731   0.98189   0.00000  Uiso   1.00
O649   O     0.50000   0.31427   0.70929   0.00000  Uiso   1.00
O650   O     0.50000   0.18573   0.70928   0.00000  Uiso   1.00
O651   O     0.50000   0.31427   0.79072   0.00000  Uiso   1.00
O652   O     0.42495   0.24999   0.78132   0.00000  Uiso   1.00
O653   O     0.57505   0.25000   0.71868   0.00000  Uiso   1.00
O654   O     0.42495   0.25000   0.69989   0.00000  Uiso   1.00
O655   O     0.57505   0.25000   0.80012   0.00000  Uiso   1.00
O656   O     0.55896   0.11727   0.68548   0.00000  Uiso   1.00
C657   C     0.83433   0.16500   0.74993   0.00000  Uiso   1.00
C658   C     0.87453   0.26986   0.95194   0.00000  Uiso   1.00
C659   C     0.83318   0.25049   0.52721   0.00000  Uiso   1.00
C660   C     0.83369   0.25052   0.97278   0.00000  Uiso   1.00
C661   C     0.73452   0.24990   0.73752   0.00000  Uiso   1.00
C662   C     0.93214   0.25001   0.76248   0.00000  Uiso   1.00
C663   C     0.67924   0.24975   0.73062   0.00000  Uiso   1.00
C664   C     0.98741   0.24992   0.76938   0.00000  Uiso   1.00
C665   C     0.81387   0.04760   0.78284   0.00000  Uiso   1.00
C666   C     0.82636   0.45301   0.70826   0.00000  Uiso   1.00
C667   C     0.81224   0.09332   0.78256   0.00000  Uiso   1.00
C668   C     0.83384   0.33521   0.75041   0.00000  Uiso   1.00
C669   C     0.82446   0.40715   0.70805   0.00000  Uiso   1.00
C670   C     0.83810   0.11693   0.75015   0.00000  Uiso   1.00
C671   C     0.83569   0.38373   0.75175   0.00000  Uiso   1.00
C672   C     0.86790   0.09444   0.71894   0.00000  Uiso   1.00
C673   C     0.84878   0.40704   0.79634   0.00000  Uiso   1.00
C674   C     0.87047   0.04813   0.71988   0.00000  Uiso   1.00
C675   C     0.85401   0.45316   0.79591   0.00000  Uiso   1.00
C676   C     0.84244   0.02465   0.75159   0.00000  Uiso   1.00
C677   C     0.84119   0.47621   0.75190   0.00000  Uiso   1.00
C678   C     0.94093   0.13195   0.70850   0.00000  Uiso   1.00
C679   C     0.87404   0.23165   0.55873   0.00000  Uiso   1.00
C680   C     0.81769   0.38628   0.86537   0.00000  Uiso   1.00
C681   C     0.94388   0.00901   0.71254   0.00000  Uiso   1.00
C682   C     0.92354   0.47795   0.84708   0.00000  Uiso   1.00
C683   C     0.75448   0.33357   0.52024   0.00000  Uiso   1.00
C684   C     0.91693   0.33361   0.97666   0.00000  Uiso   1.00
C685   C     0.79274   0.23162   0.94101   0.00000  Uiso   1.00
C686   C     0.87324   0.23147   0.60948   0.00000  Uiso   1.00
C687   C     0.79342   0.23145   0.89026   0.00000  Uiso   1.00
C688   C     0.79323   0.26871   0.59962   0.00000  Uiso   1.00
C689   C     0.87349   0.26882   0.90060   0.00000  Uiso   1.00
C690   C     0.79225   0.26958   0.54837   0.00000  Uiso   1.00
Cu691  Cu    0.83333   0.24999   0.79822   0.00000  Uiso   1.00
Cu692  Cu    0.83333   0.25000   0.70179   0.00000  Uiso   1.00
H693   H     0.99252   0.24955   0.69346   0.00000  Uiso   1.00
H694   H     0.82566   0.36518   0.89814   0.00000  Uiso   1.00
H695   H     0.78231   0.37304   0.84285   0.00000  Uiso   1.00
H696   H     0.81066   0.42040   0.87806   0.00000  Uiso   1.00
H697   H     0.93687   0.47583   0.72710   0.00000  Uiso   1.00
H698   H     0.96234   0.03088   0.74257   0.00000  Uiso   1.00
H699   H     0.97193   0.00480   0.68630   0.00000  Uiso   1.00
H700   H     0.93837   0.49804   0.81859   0.00000  Uiso   1.00
H701   H     0.94125   0.44445   0.84878   0.00000  Uiso   1.00
H702   H     0.93575   0.49449   0.88274   0.00000  Uiso   1.00
H703   H     0.90617   0.21653   0.54409   0.00000  Uiso   1.00
H704   H     0.67413   0.25007   0.80654   0.00000  Uiso   1.00
H705   H     0.76064   0.21644   0.95545   0.00000  Uiso   1.00
H706   H     0.90475   0.21626   0.63290   0.00000  Uiso   1.00
H707   H     0.76185   0.21617   0.86661   0.00000  Uiso   1.00
H708   H     0.76159   0.28316   0.61550   0.00000  Uiso   1.00
H709   H     0.90515   0.28306   0.88479   0.00000  Uiso   1.00
H710   H     0.79081   0.34466   0.50740   0.00000  Uiso   1.00
H711   H     0.75196   0.34704   0.55736   0.00000  Uiso   1.00
H712   H     0.72184   0.34750   0.99510   0.00000  Uiso   1.00
H713   H     0.87982   0.34857   0.98379   0.00000  Uiso   1.00
H714   H     0.92573   0.34321   0.94001   0.00000  Uiso   1.00
H715   H     0.79187   0.02996   0.80695   0.00000  Uiso   1.00
H716   H     0.94787   0.34754   0.50404   0.00000  Uiso   1.00
H717   H     0.81616   0.47048   0.67427   0.00000  Uiso   1.00
H718   H     0.78943   0.11029   0.80675   0.00000  Uiso   1.00
H719   H     0.81347   0.39003   0.67364   0.00000  Uiso   1.00
H720   H     0.93819   0.15112   0.74252   0.00000  Uiso   1.00
H721   H     0.95776   0.15419   0.68321   0.00000  Uiso   1.00
H722   H     0.96785   0.10379   0.71647   0.00000  Uiso   1.00
N723   N     0.83333   0.25001   0.62935   0.00000  Uiso   1.00
N724   N     0.83333   0.24999   0.87066   0.00000  Uiso   1.00
O725   O     0.83334   0.18572   0.79072   0.00000  Uiso   1.00
O726   O     0.86081   0.38476   0.83994   0.00000  Uiso   1.00
O727   O     0.89781   0.02660   0.68730   0.00000  Uiso   1.00
O728   O     0.86922   0.47579   0.83917   0.00000  Uiso   1.00
O729   O     0.75020   0.28714   0.51903   0.00000  Uiso   1.00
O730   O     0.91659   0.28731   0.98189   0.00000  Uiso   1.00
O731   O     0.83333   0.31427   0.70929   0.00000  Uiso   1.00
O732   O     0.83334   0.18573   0.70928   0.00000  Uiso   1.00
O733   O     0.83333   0.31427   0.79072   0.00000  Uiso   1.00
O734   O     0.75828   0.24999   0.78132   0.00000  Uiso   1.00
O735   O     0.90839   0.25000   0.71868   0.00000  Uiso   1.00
O736   O     0.75828   0.25000   0.69989   0.00000  Uiso   1.00
O737   O     0.90839   0.25000   0.80012   0.00000  Uiso   1.00
O738   O     0.89230   0.11727   0.68548   0.00000  Uiso   1.00
C739   C     0.16766   0.66500   0.74993   0.00000  Uiso   1.00
C740   C     0.20787   0.76986   0.95194   0.00000  Uiso   1.00
C741   C     0.16652   0.75049   0.52721   0.00000  Uiso   1.00
C742   C     0.16702   0.75052   0.97278   0.00000  Uiso   1.00
C743   C     0.06786   0.74990   0.73752   0.00000  Uiso   1.00
C744   C     0.26547   0.75001   0.76248   0.00000  Uiso   1.00
C745   C     0.01258   0.74975   0.73062   0.00000  Uiso   1.00
C746   C     0.32075   0.74992   0.76938   0.00000  Uiso   1.00
C747   C     0.14720   0.54760   0.78284   0.00000  Uiso   1.00
C748   C     0.15970   0.95301   0.70826   0.00000  Uiso   1.00
C749   C     0.14557   0.59332   0.78256   0.00000  Uiso   1.00
C750   C     0.16717   0.83521   0.75041   0.00000  Uiso   1.00
C751   C     0.15779   0.90715   0.70805   0.00000  Uiso   1.00
C752   C     0.17143   0.61693   0.75015   0.00000  Uiso   1.00
C753   C     0.16903   0.88373   0.75175   0.00000  Uiso   1.00
C754   C     0.20124   0.59444   0.71894   0.00000  Uiso   1.00
C755   C     0.18211   0.90704   0.79634   0.00000  Uiso   1.00
C756   C     0.20380   0.54813   0.71988   0.00000  Uiso   1.00
C757   C     0.18734   0.95316   0.79591   0.00000  Uiso   1.00
C758   C     0.17577   0.52465   0.75159   0.00000  Uiso   1.00
C759   C     0.17452   0.97621   0.75190   0.00000  Uiso   1.00
C760   C     0.27426   0.63195   0.70850   0.00000  Uiso   1.00
C761   C     0.20738   0.73165   0.55873   0.00000  Uiso   1.00
C762   C     0.15102   0.88628   0.86537   0.00000  Uiso   1.00
C763   C     0.27721   0.50901   0.71254   0.00000  Uiso   1.00
C764   C     0.25687   0.97795   0.84708   0.00000  Uiso   1.00
C765   C     0.08781   0.83357   0.52024   0.00000  Uiso   1.00
C766   C     0.25026   0.83361   0.97666   0.00000  Uiso   1.00
C767   C     0.12608   0.73162   0.94101   0.00000  Uiso   1.00
C768   C     0.20657   0.73147   0.60948   0.00000  Uiso   1.00
C769   C     0.12675   0.73145   0.89026   0.00000  Uiso   1.00
C770   C     0.12656   0.76871   0.59962   0.00000  Uiso   1.00
C771   C     0.20682   0.76882   0.90060   0.00000  Uiso   1.00
C772   C     0.12558   0.76958   0.54837   0.00000  Uiso   1.00
Cu773  Cu    0.16667   0.74999   0.79822   0.00000  Uiso   1.00
Cu774  Cu    0.16667   0.75000   0.70179   0.00000  Uiso   1.00
H775   H     0.32585   0.74955   0.69346   0.00000  Uiso   1.00
H776   H     0.15900   0.86518   0.89814   0.00000  Uiso   1.00
H777   H     0.11565   0.87304   0.84285   0.00000  Uiso   1.00
H778   H     0.14399   0.92040   0.87806   0.00000  Uiso   1.00
H779   H     0.27021   0.97583   0.72710   0.00000  Uiso   1.00
H780   H     0.29568   0.53088   0.74257   0.00000  Uiso   1.00
H781   H     0.30526   0.50480   0.68630   0.00000  Uiso   1.00
H782   H     0.27171   0.99804   0.81859   0.00000  Uiso   1.00
H783   H     0.27458   0.94445   0.84878   0.00000  Uiso   1.00
H784   H     0.26909   0.99449   0.88274   0.00000  Uiso   1.00
H785   H     0.23951   0.71653   0.54409   0.00000  Uiso   1.00
H786   H     0.00746   0.75007   0.80654   0.00000  Uiso   1.00
H787   H     0.09398   0.71644   0.95545   0.00000  Uiso   1.00
H788   H     0.23808   0.71626   0.63290   0.00000  Uiso   1.00
H789   H     0.09519   0.71617   0.86661   0.00000  Uiso   1.00
H790   H     0.09493   0.78316   0.61550   0.00000  Uiso   1.00
H791   H     0.23848   0.78306   0.88479   0.00000  Uiso   1.00
H792   H     0.12414   0.84466   0.50740   0.00000  Uiso   1.00
H793   H     0.08529   0.84704   0.55736   0.00000  Uiso   1.00
H794   H     0.05517   0.84750   0.99510   0.00000  Uiso   1.00
H795   H     0.21316   0.84857   0.98379   0.00000  Uiso   1.00
H796   H     0.25906   0.84321   0.94001   0.00000  Uiso   1.00
H797   H     0.12520   0.52996   0.80695   0.00000  Uiso   1.00
H798   H     0.28120   0.84754   0.50404   0.00000  Uiso   1.00
H799   H     0.14950   0.97048   0.67427   0.00000  Uiso   1.00
H800   H     0.12276   0.61029   0.80675   0.00000  Uiso   1.00
H801   H     0.14681   0.89003   0.67364   0.00000  Uiso   1.00
H802   H     0.27153   0.65112   0.74252   0.00000  Uiso   1.00
H803   H     0.29109   0.65419   0.68321   0.00000  Uiso   1.00
H804   H     0.30118   0.60379   0.71647   0.00000  Uiso   1.00
N805   N     0.16667   0.75001   0.62935   0.00000  Uiso   1.00
N806   N     0.16667   0.74999   0.87066   0.00000  Uiso   1.00
O807   O     0.16667   0.68572   0.79072   0.00000  Uiso   1.00
O808   O     0.19414   0.88476   0.83994   0.00000  Uiso   1.00
O809   O     0.23114   0.52660   0.68730   0.00000  Uiso   1.00
O810   O     0.20256   0.97579   0.83917   0.00000  Uiso   1.00
O811   O     0.08354   0.78714   0.51903   0.00000  Uiso   1.00
O812   O     0.24992   0.78731   0.98189   0.00000  Uiso   1.00
O813   O     0.16666   0.81427   0.70929   0.00000  Uiso   1.00
O814   O     0.16667   0.68573   0.70928   0.00000  Uiso   1.00
O815   O     0.16666   0.81427   0.79072   0.00000  Uiso   1.00
O816   O     0.09161   0.74999   0.78132   0.00000  Uiso   1.00
O817   O     0.24172   0.75000   0.71868   0.00000  Uiso   1.00
O818   O     0.09161   0.75000   0.69989   0.00000  Uiso   1.00
O819   O     0.24172   0.75000   0.80012   0.00000  Uiso   1.00
O820   O     0.22563   0.61727   0.68548   0.00000  Uiso   1.00
C821   C     0.50099   0.66500   0.74993   0.00000  Uiso   1.00
C822   C     0.54120   0.76986   0.95194   0.00000  Uiso   1.00
C823   C     0.49985   0.75049   0.52721   0.00000  Uiso   1.00
C824   C     0.50036   0.75052   0.97278   0.00000  Uiso   1.00
C825   C     0.40119   0.74990   0.73752   0.00000  Uiso   1.00
C826   C     0.59881   0.75001   0.76248   0.00000  Uiso   1.00
C827   C     0.34591   0.74975   0.73062   0.00000  Uiso   1.00
C828   C     0.65408   0.74992   0.76938   0.00000  Uiso   1.00
C829   C     0.48054   0.54760   0.78284   0.00000  Uiso   1.00
C830   C     0.49303   0.95301   0.70826   0.00000  Uiso   1.00
C831   C     0.47890   0.59332   0.78256   0.00000  Uiso   1.00
C832   C     0.50051   0.83521   0.75041   0.00000  Uiso   1.00
C833   C     0.49113   0.90715   0.70805   0.00000  Uiso   1.00
C834   C     0.50476   0.61693   0.75015   0.00000  Uiso   1.00
C835   C     0.50236   0.88373   0.75175   0.00000  Uiso   1.00
C836   C     0.53457   0.59444   0.71894   0.00000  Uiso   1.00
C837   C     0.51545   0.90704   0.79634   0.00000  Uiso   1.00
C838   C     0.53714   0.54813   0.71988   0.00000  Uiso   1.00
C839   C     0.52067   0.95316   0.79591   0.00000  Uiso   1.00
C840   C     0.50911   0.52465   0.75159   0.00000  Uiso   1.00
C841   C     0.50785   0.97621   0.75190   0.00000  Uiso   1.00
C842   C     0.60759   0.63195   0.70850   0.00000  Uiso   1.00
C843   C     0.54071   0.73165   0.55873   0.00000  Uiso   1.00
C844   C     0.48436   0.88628   0.86537   0.00000  Uiso   1.00
C845   C     0.61054   0.50901   0.71254   0.00000  Uiso   1.00
C846   C     0.59021   0.97795   0.84708   0.00000  Uiso   1.00
C847   C     0.42115   0.83357   0.52024   0.00000  Uiso   1.00
C848   C     0.58359   0.83361   0.97666   0.00000  Uiso   1.00
C849   C     0.45941   0.73162   0.94101   0.00000  Uiso   1.00
C850   C     0.53991   0.73147   0.60948   0.00000  Uiso   1.00
C851   C     0.46009   0.73145   0.89026   0.00000  Uiso   1.00
C852   C     0.45989   0.76871   0.59962   0.00000  Uiso   1.00
C853   C     0.54015   0.76882   0.90060   0.00000  Uiso   1.00
C854   C     0.45892   0.76958   0.54837   0.00000  Uiso   1.00
Cu855  Cu    0.50000   0.74999   0.79822   0.00000  Uiso   1.00
Cu856  Cu    0.50000   0.75000   0.70179   0.00000  Uiso   1.00
H857   H     0.65919   0.74955   0.69346   0.00000  Uiso   1.00
H858   H     0.49233   0.86518   0.89814   0.00000  Uiso   1.00
H859   H     0.44898   0.87304   0.84285   0.00000  Uiso   1.00
H860   H     0.47732   0.92040   0.87806   0.00000  Uiso   1.00
H861   H     0.60354   0.97583   0.72710   0.00000  Uiso   1.00
H862   H     0.62901   0.53088   0.74257   0.00000  Uiso   1.00
H863   H     0.63860   0.50480   0.68630   0.00000  Uiso   1.00
H864   H     0.60504   0.99804   0.81859   0.00000  Uiso   1.00
H865   H     0.60791   0.94445   0.84878   0.00000  Uiso   1.00
H866   H     0.60242   0.99449   0.88274   0.00000  Uiso   1.00
H867   H     0.57284   0.71653   0.54409   0.00000  Uiso   1.00
H868   H     0.34080   0.75007   0.80654   0.00000  Uiso   1.00
H869   H     0.42731   0.71644   0.95545   0.00000  Uiso   1.00
H870   H     0.57141   0.71626   0.63290   0.00000  Uiso   1.00
H871   H     0.42852   0.71617   0.86661   0.00000  Uiso   1.00
H872   H     0.42826   0.78316   0.61550   0.00000  Uiso   1.00
H873   H     0.57181   0.78306   0.88479   0.00000  Uiso   1.00
H874   H     0.45748   0.84466   0.50740   0.00000  Uiso   1.00
H875   H     0.41863   0.84704   0.55736   0.00000  Uiso   1.00
H876   H     0.38850   0.84750   0.99510   0.00000  Uiso   1.00
H877   H     0.54649   0.84857   0.98379   0.00000  Uiso   1.00
H878   H     0.59240   0.84321   0.94001   0.00000  Uiso   1.00
H879   H     0.45853   0.52996   0.80695   0.00000  Uiso   1.00
H880   H     0.61453   0.84754   0.50404   0.00000  Uiso   1.00
H881   H     0.48283   0.97048   0.67427   0.00000  Uiso   1.00
H882   H     0.45610   0.61029   0.80675   0.00000  Uiso   1.00
H883   H     0.48014   0.89003   0.67364   0.00000  Uiso   1.00
H884   H     0.60486   0.65112   0.74252   0.00000  Uiso   1.00
H885   H     0.62443   0.65419   0.68321   0.00000  Uiso   1.00
H886   H     0.63451   0.60379   0.71647   0.00000  Uiso   1.00
N887   N     0.50000   0.75001   0.62935   0.00000  Uiso   1.00
N888   N     0.50000   0.74999   0.87066   0.00000  Uiso   1.00
O889   O     0.50000   0.68572   0.79072   0.00000  Uiso   1.00
O890   O     0.52748   0.88476   0.83994   0.00000  Uiso   1.00
O891   O     0.56447   0.52660   0.68730   0.00000  Uiso   1.00
O892   O     0.53589   0.97579   0.83917   0.00000  Uiso   1.00
O893   O     0.41687   0.78714   0.51903   0.00000  Uiso   1.00
O894   O     0.58326   0.78731   0.98189   0.00000  Uiso   1.00
O895   O     0.50000   0.81427   0.70929   0.00000  Uiso   1.00
O896   O     0.50000   0.68573   0.70928   0.00000  Uiso   1.00
O897   O     0.50000   0.81427   0.79072   0.00000  Uiso   1.00
O898   O     0.42495   0.74999   0.78132   0.00000  Uiso   1.00
O899   O     0.57505   0.75000   0.71868   0.00000  Uiso   1.00
O900   O     0.42495   0.75000   0.69989   0.00000  Uiso   1.00
O901   O     0.57505   0.75000   0.80012   0.00000  Uiso   1.00
O902   O     0.55896   0.61727   0.68548   0.00000  Uiso   1.00
C903   C     0.83433   0.66500   0.74993   0.00000  Uiso   1.00
C904   C     0.87453   0.76986   0.95194   0.00000  Uiso   1.00
C905   C     0.83318   0.75049   0.52721   0.00000  Uiso   1.00
C906   C     0.83369   0.75052   0.97278   0.00000  Uiso   1.00
C907   C     0.73452   0.74990   0.73752   0.00000  Uiso   1.00
C908   C     0.93214   0.75001   0.76248   0.00000  Uiso   1.00
C909   C     0.67924   0.74975   0.73062   0.00000  Uiso   1.00
C910   C     0.98741   0.74992   0.76938   0.00000  Uiso   1.00
C911   C     0.81387   0.54760   0.78284   0.00000  Uiso   1.00
C912   C     0.82636   0.95301   0.70826   0.00000  Uiso   1.00
C913   C     0.81224   0.59332   0.78256   0.00000  Uiso   1.00
C914   C     0.83384   0.83521   0.75041   0.00000  Uiso   1.00
C915   C     0.82446   0.90715   0.70805   0.00000  Uiso   1.00
C916   C     0.83810   0.61693   0.75015   0.00000  Uiso   1.00
C917   C     0.83569   0.88373   0.75175   0.00000  Uiso   1.00
C918   C     0.86790   0.59444   0.71894   0.00000  Uiso   1.00
C919   C     0.84878   0.90704   0.79634   0.00000  Uiso   1.00
C920   C     0.87047   0.54813   0.71988   0.00000  Uiso   1.00
C921   C     0.85401   0.95316   0.79591   0.00000  Uiso   1.00
C922   C     0.84244   0.52465   0.75159   0.00000  Uiso   1.00
C923   C     0.84119   0.97621   0.75190   0.00000  Uiso   1.00
C924   C     0.94093   0.63195   0.70850   0.00000  Uiso   1.00
C925   C     0.87404   0.73165   0.55873   0.00000  Uiso   1.00
C926   C     0.81769   0.88628   0.86537   0.00000  Uiso   1.00
C927   C     0.94388   0.50901   0.71254   0.00000  Uiso   1.00
C928   C     0.92354   0.97795   0.84708   0.00000  Uiso   1.00
C929   C     0.75448   0.83357   0.52024   0.00000  Uiso   1.00
C930   C     0.91693   0.83361   0.97666   0.00000  Uiso   1.00
C931   C     0.79274   0.73162   0.94101   0.00000  Uiso   1.00
C932   C     0.87324   0.73147   0.60948   0.00000  Uiso   1.00
C933   C     0.79342   0.73145   0.89026   0.00000  Uiso   1.00
C934   C     0.79323   0.76871   0.59962   0.00000  Uiso   1.00
C935   C     0.87349   0.76882   0.90060   0.00000  Uiso   1.00
C936   C     0.79225   0.76958   0.54837   0.00000  Uiso   1.00
Cu937  Cu    0.83333   0.74999   0.79822   0.00000  Uiso   1.00
Cu938  Cu    0.83333   0.75000   0.70179   0.00000  Uiso   1.00
H939   H     0.99252   0.74955   0.69346   0.00000  Uiso   1.00
H940   H     0.82566   0.86518   0.89814   0.00000  Uiso   1.00
H941   H     0.78231   0.87304   0.84285   0.00000  Uiso   1.00
H942   H     0.81066   0.92040   0.87806   0.00000  Uiso   1.00
H943   H     0.93687   0.97583   0.72710   0.00000  Uiso   1.00
H944   H     0.96234   0.53088   0.74257   0.00000  Uiso   1.00
H945   H     0.97193   0.50480   0.68630   0.00000  Uiso   1.00
H946   H     0.93837   0.99804   0.81859   0.00000  Uiso   1.00
H947   H     0.94125   0.94445   0.84878   0.00000  Uiso   1.00
H948   H     0.93575   0.99449   0.88274   0.00000  Uiso   1.00
H949   H     0.90617   0.71653   0.54409   0.00000  Uiso   1.00
H950   H     0.67413   0.75007   0.80654   0.00000  Uiso   1.00
H951   H     0.76064   0.71644   0.95545   0.00000  Uiso   1.00
H952   H     0.90475   0.71626   0.63290   0.00000  Uiso   1.00
H953   H     0.76185   0.71617   0.86661   0.00000  Uiso   1.00
H954   H     0.76159   0.78316   0.61550   0.00000  Uiso   1.00
H955   H     0.90515   0.78306   0.88479   0.00000  Uiso   1.00
H956   H     0.79081   0.84466   0.50740   0.00000  Uiso   1.00
H957   H     0.75196   0.84704   0.55736   0.00000  Uiso   1.00
H958   H     0.72184   0.84750   0.99510   0.00000  Uiso   1.00
H959   H     0.87982   0.84857   0.98379   0.00000  Uiso   1.00
H960   H     0.92573   0.84321   0.94001   0.00000  Uiso   1.00
H961   H     0.79187   0.52996   0.80695   0.00000  Uiso   1.00
H962   H     0.94787   0.84754   0.50404   0.00000  Uiso   1.00
H963   H     0.81616   0.97048   0.67427   0.00000  Uiso   1.00
H964   H     0.78943   0.61029   0.80675   0.00000  Uiso   1.00
H965   H     0.81347   0.89003   0.67364   0.00000  Uiso   1.00
H966   H     0.93819   0.65112   0.74252   0.00000  Uiso   1.00
H967   H     0.95776   0.65419   0.68321   0.00000  Uiso   1.00
H968   H     0.96785   0.60379   0.71647   0.00000  Uiso   1.00
N969   N     0.83333   0.75001   0.62935   0.00000  Uiso   1.00
N970   N     0.83333   0.74999   0.87066   0.00000  Uiso   1.00
O971   O     0.83334   0.68572   0.79072   0.00000  Uiso   1.00
O972   O     0.86081   0.88476   0.83994   0.00000  Uiso   1.00
O973   O     0.89781   0.52660   0.68730   0.00000  Uiso   1.00
O974   O     0.86922   0.97579   0.83917   0.00000  Uiso   1.00
O975   O     0.75020   0.78714   0.51903   0.00000  Uiso   1.00
O976   O     0.91659   0.78731   0.98189   0.00000  Uiso   1.00
O977   O     0.83333   0.81427   0.70929   0.00000  Uiso   1.00
O978   O     0.83334   0.68573   0.70928   0.00000  Uiso   1.00
O979   O     0.83333   0.81427   0.79072   0.00000  Uiso   1.00
O980   O     0.75828   0.74999   0.78132   0.00000  Uiso   1.00
O981   O     0.90839   0.75000   0.71868   0.00000  Uiso   1.00
O982   O     0.75828   0.75000   0.69989   0.00000  Uiso   1.00
O983   O     0.90839   0.75000   0.80012   0.00000  Uiso   1.00
O984   O     0.89230   0.61727   0.68548   0.00000  Uiso   1.00
loop_
_geom_bond_atom_site_label_1
_geom_bond_atom_site_label_2
_geom_bond_distance
_geom_bond_site_symmetry_2
_ccdc_geom_bond_type
C1     O69     1.290   .     A
C1     O76     1.289   .     A
C1     C14     1.458   .     S
C2     O74     1.384   .     S
C2     C4      1.412   .     A
C2     C33     1.417   .     A
C3     C23     1.406   .     A
C3     C34     1.412   .     A
C3     C496    1.508   1_554 S
C4     C29     1.406   .     A
C4     C495    1.508   .     S
C5     C7      1.433   .     S
C5     O80     1.285   .     A
C5     O78     1.283   .     A
C6     O81     1.285   .     A
C6     C8      1.433   .     S
C6     O79     1.283   .     A
C7     C172    1.335   1_455 S
C7     H201    1.087   1_455 S
C8     C89     1.335   .     S
C8     H130    1.087   .     S
C9     H59     1.084   .     S
C9     C20     1.400   .     A
C9     C11     1.384   .     A
C10    C13     1.388   .     A
C10    C21     1.399   .     A
C10    H61     1.083   .     S
C11    H62     1.084   .     S
C11    C14     1.397   .     A
C12    C15     1.469   .     S
C12    O77     1.289   .     A
C12    O75     1.297   .     A
C13    H63     1.083   .     S
C13    C15     1.402   .     A
C14    C16     1.413   .     A
C15    C17     1.416   .     A
C16    O82     1.385   .     S
C16    C18     1.403   .     A
C17    O70     1.384   .     S
C17    C19     1.403   .     A
C18    O71     1.386   .     S
C18    C20     1.415   .     A
C19    C21     1.408   .     A
C19    O72     1.384   .     S
C20    C267    1.467   1_545 S
C21    C266    1.467   .     S
C22    O82     1.411   .     S
C22    H66     1.109   .     S
C22    H65     1.109   .     S
C22    H64     1.113   .     S
C23    H47     1.083   .     S
C23    C30     1.408   .     A
C24    O70     1.412   .     S
C24    H39     1.114   .     S
C24    H40     1.112   .     S
C24    H38     1.109   .     S
C25    H43     1.109   .     S
C25    O71     1.413   .     S
C25    H42     1.114   .     S
C25    H287    1.109   1_545 S
C26    O72     1.409   .     S
C26    H45     1.113   .     S
C26    H44     1.111   .     S
C26    H46     1.109   .     S
C27    H54     1.113   .     S
C27    H55     1.113   .     S
C27    O73     1.409   .     S
C27    H548    1.109   1_554 S
C28    O74     1.410   .     S
C28    H57     1.113   .     S
C28    H58     1.112   .     S
C28    H552    1.109   .     S
C29    H49     1.083   .     S
C29    C31     1.407   .     A
C30    H50     1.081   .     S
C30    N67     1.365   .     A
C31    N68     1.365   .     A
C31    H51     1.081   .     S
C32    H52     1.081   .     S
C32    C34     1.415   .     A
C32    N67     1.366   .     A
C33    H53     1.081   .     S
C33    N68     1.366   .     A
C34    O73     1.382   .     S
Cu35   Cu36    2.669   .     S
Cu35   O81     1.958   .     S
Cu35   O77     1.958   .     S
Cu35   O78     1.955   .     S
Cu35   N68     2.005   .     S
Cu35   O69     1.954   .     S
Cu36   O76     1.958   .     S
Cu36   N67     2.005   .     S
Cu36   O80     1.958   .     S
Cu36   O75     1.954   .     S
Cu36   O79     1.955   .     S
H37    C89     1.087   .     S
H41    C271    1.109   .     S
H48    C172    1.087   1_455 S
H56    C519    1.109   .     S
H60    C520    1.109   1_554 S
C83    O151    1.290   .     A
C83    O158    1.289   .     A
C83    C96     1.458   .     S
C84    O156    1.384   .     S
C84    C86     1.412   .     A
C84    C115    1.417   .     A
C85    C105    1.406   .     A
C85    C116    1.412   .     A
C85    C578    1.508   1_554 S
C86    C111    1.406   .     A
C86    C577    1.508   .     S
C87    C89     1.433   .     S
C87    O162    1.285   .     A
C87    O160    1.283   .     A
C88    O163    1.285   .     A
C88    C90     1.433   .     S
C88    O161    1.283   .     A
C90    C171    1.335   .     S
C90    H212    1.087   .     S
C91    H141    1.084   .     S
C91    C102    1.400   .     A
C91    C93     1.384   .     A
C92    C95     1.388   .     A
C92    C103    1.399   .     A
C92    H143    1.083   .     S
C93    H144    1.084   .     S
C93    C96     1.397   .     A
C94    C97     1.469   .     S
C94    O159    1.289   .     A
C94    O157    1.297   .     A
C95    H145    1.083   .     S
C95    C97     1.402   .     A
C96    C98     1.413   .     A
C97    C99     1.416   .     A
C98    O164    1.385   .     S
C98    C100    1.403   .     A
C99    O152    1.384   .     S
C99    C101    1.403   .     A
C100   O153    1.386   .     S
C100   C102    1.415   .     A
C101   C103    1.408   .     A
C101   O154    1.384   .     S
C102   C349    1.467   1_545 S
C103   C348    1.467   .     S
C104   O164    1.411   .     S
C104   H148    1.109   .     S
C104   H147    1.109   .     S
C104   H146    1.113   .     S
C105   H129    1.083   .     S
C105   C112    1.408   .     A
C106   O152    1.412   .     S
C106   H121    1.114   .     S
C106   H122    1.112   .     S
C106   H120    1.109   .     S
C107   H125    1.109   .     S
C107   O153    1.413   .     S
C107   H124    1.114   .     S
C107   H369    1.109   1_545 S
C108   O154    1.409   .     S
C108   H127    1.113   .     S
C108   H126    1.111   .     S
C108   H128    1.109   .     S
C109   H136    1.113   .     S
C109   H137    1.113   .     S
C109   O155    1.409   .     S
C109   H630    1.109   1_554 S
C110   O156    1.410   .     S
C110   H139    1.113   .     S
C110   H140    1.112   .     S
C110   H634    1.109   .     S
C111   H131    1.083   .     S
C111   C113    1.407   .     A
C112   H132    1.081   .     S
C112   N149    1.365   .     A
C113   N150    1.365   .     A
C113   H133    1.081   .     S
C114   H134    1.081   .     S
C114   C116    1.415   .     A
C114   N149    1.366   .     A
C115   H135    1.081   .     S
C115   N150    1.366   .     A
C116   O155    1.382   .     S
Cu117  Cu118   2.669   .     S
Cu117  O163    1.958   .     S
Cu117  O159    1.958   .     S
Cu117  O160    1.955   .     S
Cu117  N150    2.005   .     S
Cu117  O151    1.954   .     S
Cu118  O158    1.958   .     S
Cu118  N149    2.005   .     S
Cu118  O162    1.958   .     S
Cu118  O157    1.954   .     S
Cu118  O161    1.955   .     S
H119   C171    1.087   .     S
H123   C353    1.109   .     S
H138   C601    1.109   .     S
H142   C602    1.109   1_554 S
C165   O233    1.290   .     A
C165   O240    1.289   .     A
C165   C178    1.458   .     S
C166   O238    1.384   .     S
C166   C168    1.412   .     A
C166   C197    1.417   .     A
C167   C187    1.406   .     A
C167   C198    1.412   .     A
C167   C660    1.508   1_554 S
C168   C193    1.406   .     A
C168   C659    1.508   .     S
C169   C171    1.433   .     S
C169   O244    1.285   .     A
C169   O242    1.283   .     A
C170   O245    1.285   .     A
C170   C172    1.433   .     S
C170   O243    1.283   .     A
C172   C7      1.335   1_655 S
C172   H48     1.087   1_655 S
C173   H223    1.084   .     S
C173   C184    1.400   .     A
C173   C175    1.384   .     A
C174   C177    1.388   .     A
C174   C185    1.399   .     A
C174   H225    1.083   .     S
C175   H226    1.084   .     S
C175   C178    1.397   .     A
C176   C179    1.469   .     S
C176   O241    1.289   .     A
C176   O239    1.297   .     A
C177   H227    1.083   .     S
C177   C179    1.402   .     A
C178   C180    1.413   .     A
C179   C181    1.416   .     A
C180   O246    1.385   .     S
C180   C182    1.403   .     A
C181   O234    1.384   .     S
C181   C183    1.403   .     A
C182   O235    1.386   .     S
C182   C184    1.415   .     A
C183   C185    1.408   .     A
C183   O236    1.384   .     S
C184   C431    1.467   1_545 S
C185   C430    1.467   .     S
C186   O246    1.411   .     S
C186   H230    1.109   .     S
C186   H229    1.109   .     S
C186   H228    1.113   .     S
C187   H211    1.083   .     S
C187   C194    1.408   .     A
C188   O234    1.412   .     S
C188   H203    1.114   .     S
C188   H204    1.112   .     S
C188   H202    1.109   .     S
C189   H207    1.109   .     S
C189   O235    1.413   .     S
C189   H206    1.114   .     S
C189   H451    1.109   1_545 S
C190   O236    1.409   .     S
C190   H209    1.113   .     S
C190   H208    1.111   .     S
C190   H210    1.109   .     S
C191   H218    1.113   .     S
C191   H219    1.113   .     S
C191   O237    1.409   .     S
C191   H712    1.109   1_554 S
C192   O238    1.410   .     S
C192   H221    1.113   .     S
C192   H222    1.112   .     S
C192   H716    1.109   .     S
C193   H213    1.083   .     S
C193   C195    1.407   .     A
C194   H214    1.081   .     S
C194   N231    1.365   .     A
C195   N232    1.365   .     A
C195   H215    1.081   .     S
C196   H216    1.081   .     S
C196   C198    1.415   .     A
C196   N231    1.366   .     A
C197   H217    1.081   .     S
C197   N232    1.366   .     A
C198   O237    1.382   .     S
Cu199  Cu200   2.669   .     S
Cu199  O245    1.958   .     S
Cu199  O241    1.958   .     S
Cu199  O242    1.955   .     S
Cu199  N232    2.005   .     S
Cu199  O233    1.954   .     S
Cu200  O240    1.958   .     S
Cu200  N231    2.005   .     S
Cu200  O244    1.958   .     S
Cu200  O239    1.954   .     S
Cu200  O243    1.955   .     S
H201   C7      1.087   1_655 S
H205   C435    1.109   .     S
H220   C683    1.109   .     S
H224   C684    1.109   1_554 S
C247   O315    1.290   .     A
C247   O322    1.289   .     A
C247   C260    1.458   .     S
C248   O320    1.384   .     S
C248   C250    1.412   .     A
C248   C279    1.417   .     A
C249   C269    1.406   .     A
C249   C280    1.412   .     A
C249   C742    1.508   1_554 S
C250   C275    1.406   .     A
C250   C741    1.508   .     S
C251   C253    1.433   .     S
C251   O326    1.285   .     A
C251   O324    1.283   .     A
C252   O327    1.285   .     A
C252   C254    1.433   .     S
C252   O325    1.283   .     A
C253   C418    1.335   1_455 S
C253   H447    1.087   1_455 S
C254   C335    1.335   .     S
C254   H376    1.087   .     S
C255   H305    1.084   .     S
C255   C266    1.400   .     A
C255   C257    1.384   .     A
C256   C259    1.388   .     A
C256   C267    1.399   .     A
C256   H307    1.083   .     S
C257   H308    1.084   .     S
C257   C260    1.397   .     A
C258   C261    1.469   .     S
C258   O323    1.289   .     A
C258   O321    1.297   .     A
C259   H309    1.083   .     S
C259   C261    1.402   .     A
C260   C262    1.413   .     A
C261   C263    1.416   .     A
C262   O328    1.385   .     S
C262   C264    1.403   .     A
C263   O316    1.384   .     S
C263   C265    1.403   .     A
C264   O317    1.386   .     S
C264   C266    1.415   .     A
C265   C267    1.408   .     A
C265   O318    1.384   .     S
C267   C20     1.467   1_565 S
C268   O328    1.411   .     S
C268   H312    1.109   .     S
C268   H311    1.109   .     S
C268   H310    1.113   .     S
C269   H293    1.083   .     S
C269   C276    1.408   .     A
C270   O316    1.412   .     S
C270   H285    1.114   .     S
C270   H286    1.112   .     S
C270   H284    1.109   .     S
C271   H289    1.109   .     S
C271   O317    1.413   .     S
C271   H288    1.114   .     S
C272   O318    1.409   .     S
C272   H291    1.113   .     S
C272   H290    1.111   .     S
C272   H292    1.109   .     S
C273   H300    1.113   .     S
C273   H301    1.113   .     S
C273   O319    1.409   .     S
C273   H794    1.109   1_554 S
C274   O320    1.410   .     S
C274   H303    1.113   .     S
C274   H304    1.112   .     S
C274   H798    1.109   .     S
C275   H295    1.083   .     S
C275   C277    1.407   .     A
C276   H296    1.081   .     S
C276   N313    1.365   .     A
C277   N314    1.365   .     A
C277   H297    1.081   .     S
C278   H298    1.081   .     S
C278   C280    1.415   .     A
C278   N313    1.366   .     A
C279   H299    1.081   .     S
C279   N314    1.366   .     A
C280   O319    1.382   .     S
Cu281  Cu282   2.669   .     S
Cu281  O327    1.958   .     S
Cu281  O323    1.958   .     S
Cu281  O324    1.955   .     S
Cu281  N314    2.005   .     S
Cu281  O315    1.954   .     S
Cu282  O322    1.958   .     S
Cu282  N313    2.005   .     S
Cu282  O326    1.958   .     S
Cu282  O321    1.954   .     S
Cu282  O325    1.955   .     S
H283   C335    1.087   .     S
H287   C25     1.109   1_565 S
H294   C418    1.087   1_455 S
H302   C765    1.109   .     S
H306   C766    1.109   1_554 S
C329   O397    1.290   .     A
C329   O404    1.289   .     A
C329   C342    1.458   .     S
C330   O402    1.384   .     S
C330   C332    1.412   .     A
C330   C361    1.417   .     A
C331   C351    1.406   .     A
C331   C362    1.412   .     A
C331   C824    1.508   1_554 S
C332   C357    1.406   .     A
C332   C823    1.508   .     S
C333   C335    1.433   .     S
C333   O408    1.285   .     A
C333   O406    1.283   .     A
C334   O409    1.285   .     A
C334   C336    1.433   .     S
C334   O407    1.283   .     A
C336   C417    1.335   .     S
C336   H458    1.087   .     S
C337   H387    1.084   .     S
C337   C348    1.400   .     A
C337   C339    1.384   .     A
C338   C341    1.388   .     A
C338   C349    1.399   .     A
C338   H389    1.083   .     S
C339   H390    1.084   .     S
C339   C342    1.397   .     A
C340   C343    1.469   .     S
C340   O405    1.289   .     A
C340   O403    1.297   .     A
C341   H391    1.083   .     S
C341   C343    1.402   .     A
C342   C344    1.413   .     A
C343   C345    1.416   .     A
C344   O410    1.385   .     S
C344   C346    1.403   .     A
C345   O398    1.384   .     S
C345   C347    1.403   .     A
C346   O399    1.386   .     S
C346   C348    1.415   .     A
C347   C349    1.408   .     A
C347   O400    1.384   .     S
C349   C102    1.467   1_565 S
C350   O410    1.411   .     S
C350   H394    1.109   .     S
C350   H393    1.109   .     S
C350   H392    1.113   .     S
C351   H375    1.083   .     S
C351   C358    1.408   .     A
C352   O398    1.412   .     S
C352   H367    1.114   .     S
C352   H368    1.112   .     S
C352   H366    1.109   .     S
C353   H371    1.109   .     S
C353   O399    1.413   .     S
C353   H370    1.114   .     S
C354   O400    1.409   .     S
C354   H373    1.113   .     S
C354   H372    1.111   .     S
C354   H374    1.109   .     S
C355   H382    1.113   .     S
C355   H383    1.113   .     S
C355   O401    1.409   .     S
C355   H876    1.109   1_554 S
C356   O402    1.410   .     S
C356   H385    1.113   .     S
C356   H386    1.112   .     S
C356   H880    1.109   .     S
C357   H377    1.083   .     S
C357   C359    1.407   .     A
C358   H378    1.081   .     S
C358   N395    1.365   .     A
C359   N396    1.365   .     A
C359   H379    1.081   .     S
C360   H380    1.081   .     S
C360   C362    1.415   .     A
C360   N395    1.366   .     A
C361   H381    1.081   .     S
C361   N396    1.366   .     A
C362   O401    1.382   .     S
Cu363  Cu364   2.669   .     S
Cu363  O409    1.958   .     S
Cu363  O405    1.958   .     S
Cu363  O406    1.955   .     S
Cu363  N396    2.005   .     S
Cu363  O397    1.954   .     S
Cu364  O404    1.958   .     S
Cu364  N395    2.005   .     S
Cu364  O408    1.958   .     S
Cu364  O403    1.954   .     S
Cu364  O407    1.955   .     S
H365   C417    1.087   .     S
H369   C107    1.109   1_565 S
H384   C847    1.109   .     S
H388   C848    1.109   1_554 S
C411   O479    1.290   .     A
C411   O486    1.289   .     A
C411   C424    1.458   .     S
C412   O484    1.384   .     S
C412   C414    1.412   .     A
C412   C443    1.417   .     A
C413   C433    1.406   .     A
C413   C444    1.412   .     A
C413   C906    1.508   1_554 S
C414   C439    1.406   .     A
C414   C905    1.508   .     S
C415   C417    1.433   .     S
C415   O490    1.285   .     A
C415   O488    1.283   .     A
C416   O491    1.285   .     A
C416   C418    1.433   .     S
C416   O489    1.283   .     A
C418   C253    1.335   1_655 S
C418   H294    1.087   1_655 S
C419   H469    1.084   .     S
C419   C430    1.400   .     A
C419   C421    1.384   .     A
C420   C423    1.388   .     A
C420   C431    1.399   .     A
C420   H471    1.083   .     S
C421   H472    1.084   .     S
C421   C424    1.397   .     A
C422   C425    1.469   .     S
C422   O487    1.289   .     A
C422   O485    1.297   .     A
C423   H473    1.083   .     S
C423   C425    1.402   .     A
C424   C426    1.413   .     A
C425   C427    1.416   .     A
C426   O492    1.385   .     S
C426   C428    1.403   .     A
C427   O480    1.384   .     S
C427   C429    1.403   .     A
C428   O481    1.386   .     S
C428   C430    1.415   .     A
C429   C431    1.408   .     A
C429   O482    1.384   .     S
C431   C184    1.467   1_565 S
C432   O492    1.411   .     S
C432   H476    1.109   .     S
C432   H475    1.109   .     S
C432   H474    1.113   .     S
C433   H457    1.083   .     S
C433   C440    1.408   .     A
C434   O480    1.412   .     S
C434   H449    1.114   .     S
C434   H450    1.112   .     S
C434   H448    1.109   .     S
C435   H453    1.109   .     S
C435   O481    1.413   .     S
C435   H452    1.114   .     S
C436   O482    1.409   .     S
C436   H455    1.113   .     S
C436   H454    1.111   .     S
C436   H456    1.109   .     S
C437   H464    1.113   .     S
C437   H465    1.113   .     S
C437   O483    1.409   .     S
C437   H958    1.109   1_554 S
C438   O484    1.410   .     S
C438   H467    1.113   .     S
C438   H468    1.112   .     S
C438   H962    1.109   .     S
C439   H459    1.083   .     S
C439   C441    1.407   .     A
C440   H460    1.081   .     S
C440   N477    1.365   .     A
C441   N478    1.365   .     A
C441   H461    1.081   .     S
C442   H462    1.081   .     S
C442   C444    1.415   .     A
C442   N477    1.366   .     A
C443   H463    1.081   .     S
C443   N478    1.366   .     A
C444   O483    1.382   .     S
Cu445  Cu446   2.669   .     S
Cu445  O491    1.958   .     S
Cu445  O487    1.958   .     S
Cu445  O488    1.955   .     S
Cu445  N478    2.005   .     S
Cu445  O479    1.954   .     S
Cu446  O486    1.958   .     S
Cu446  N477    2.005   .     S
Cu446  O490    1.958   .     S
Cu446  O485    1.954   .     S
Cu446  O489    1.955   .     S
H447   C253    1.087   1_655 S
H451   C189    1.109   1_565 S
H466   C929    1.109   .     S
H470   C930    1.109   1_554 S
C493   O561    1.290   .     A
C493   O568    1.289   .     A
C493   C506    1.458   .     S
C494   O566    1.384   .     S
C494   C496    1.412   .     A
C494   C525    1.417   .     A
C495   C515    1.406   .     A
C495   C526    1.412   .     A
C496   C521    1.406   .     A
C496   C3      1.508   1_556 S
C497   C499    1.433   .     S
C497   O572    1.285   .     A
C497   O570    1.283   .     A
C498   O573    1.285   .     A
C498   C500    1.433   .     S
C498   O571    1.283   .     A
C499   C664    1.335   1_455 S
C499   H693    1.087   1_455 S
C500   C581    1.335   .     S
C500   H622    1.087   .     S
C501   H551    1.084   .     S
C501   C512    1.400   .     A
C501   C503    1.384   .     A
C502   C505    1.388   .     A
C502   C513    1.399   .     A
C502   H553    1.083   .     S
C503   H554    1.084   .     S
C503   C506    1.397   .     A
C504   C507    1.469   .     S
C504   O569    1.289   .     A
C504   O567    1.297   .     A
C505   H555    1.083   .     S
C505   C507    1.402   .     A
C506   C508    1.413   .     A
C507   C509    1.416   .     A
C508   O574    1.385   .     S
C508   C510    1.403   .     A
C509   O562    1.384   .     S
C509   C511    1.403   .     A
C510   O563    1.386   .     S
C510   C512    1.415   .     A
C511   C513    1.408   .     A
C511   O564    1.384   .     S
C512   C759    1.467   1_545 S
C513   C758    1.467   .     S
C514   O574    1.411   .     S
C514   H558    1.109   .     S
C514   H557    1.109   .     S
C514   H556    1.113   .     S
C515   H539    1.083   .     S
C515   C522    1.408   .     A
C516   O562    1.412   .     S
C516   H531    1.114   .     S
C516   H532    1.112   .     S
C516   H530    1.109   .     S
C517   H535    1.109   .     S
C517   O563    1.413   .     S
C517   H534    1.114   .     S
C517   H779    1.109   1_545 S
C518   O564    1.409   .     S
C518   H537    1.113   .     S
C518   H536    1.111   .     S
C518   H538    1.109   .     S
C519   H546    1.113   .     S
C519   H547    1.113   .     S
C519   O565    1.409   .     S
C520   O566    1.410   .     S
C520   H549    1.113   .     S
C520   H550    1.112   .     S
C520   H60     1.109   1_556 S
C521   H541    1.083   .     S
C521   C523    1.407   .     A
C522   H542    1.081   .     S
C522   N559    1.365   .     A
C523   N560    1.365   .     A
C523   H543    1.081   .     S
C524   H544    1.081   .     S
C524   C526    1.415   .     A
C524   N559    1.366   .     A
C525   H545    1.081   .     S
C525   N560    1.366   .     A
C526   O565    1.382   .     S
Cu527  Cu528   2.669   .     S
Cu527  O573    1.958   .     S
Cu527  O569    1.958   .     S
Cu527  O570    1.955   .     S
Cu527  N560    2.005   .     S
Cu527  O561    1.954   .     S
Cu528  O568    1.958   .     S
Cu528  N559    2.005   .     S
Cu528  O572    1.958   .     S
Cu528  O567    1.954   .     S
Cu528  O571    1.955   .     S
H529   C581    1.087   .     S
H533   C763    1.109   .     S
H540   C664    1.087   1_455 S
H548   C27     1.109   1_556 S
C575   O643    1.290   .     A
C575   O650    1.289   .     A
C575   C588    1.458   .     S
C576   O648    1.384   .     S
C576   C578    1.412   .     A
C576   C607    1.417   .     A
C577   C597    1.406   .     A
C577   C608    1.412   .     A
C578   C603    1.406   .     A
C578   C85     1.508   1_556 S
C579   C581    1.433   .     S
C579   O654    1.285   .     A
C579   O652    1.283   .     A
C580   O655    1.285   .     A
C580   C582    1.433   .     S
C580   O653    1.283   .     A
C582   C663    1.335   .     S
C582   H704    1.087   .     S
C583   H633    1.084   .     S
C583   C594    1.400   .     A
C583   C585    1.384   .     A
C584   C587    1.388   .     A
C584   C595    1.399   .     A
C584   H635    1.083   .     S
C585   H636    1.084   .     S
C585   C588    1.397   .     A
C586   C589    1.469   .     S
C586   O651    1.289   .     A
C586   O649    1.297   .     A
C587   H637    1.083   .     S
C587   C589    1.402   .     A
C588   C590    1.413   .     A
C589   C591    1.416   .     A
C590   O656    1.385   .     S
C590   C592    1.403   .     A
C591   O644    1.384   .     S
C591   C593    1.403   .     A
C592   O645    1.386   .     S
C592   C594    1.415   .     A
C593   C595    1.408   .     A
C593   O646    1.384   .     S
C594   C841    1.467   1_545 S
C595   C840    1.467   .     S
C596   O656    1.411   .     S
C596   H640    1.109   .     S
C596   H639    1.109   .     S
C596   H638    1.113   .     S
C597   H621    1.083   .     S
C597   C604    1.408   .     A
C598   O644    1.412   .     S
C598   H613    1.114   .     S
C598   H614    1.112   .     S
C598   H612    1.109   .     S
C599   H617    1.109   .     S
C599   O645    1.413   .     S
C599   H616    1.114   .     S
C599   H861    1.109   1_545 S
C600   O646    1.409   .     S
C600   H619    1.113   .     S
C600   H618    1.111   .     S
C600   H620    1.109   .     S
C601   H628    1.113   .     S
C601   H629    1.113   .     S
C601   O647    1.409   .     S
C602   O648    1.410   .     S
C602   H631    1.113   .     S
C602   H632    1.112   .     S
C602   H142    1.109   1_556 S
C603   H623    1.083   .     S
C603   C605    1.407   .     A
C604   H624    1.081   .     S
C604   N641    1.365   .     A
C605   N642    1.365   .     A
C605   H625    1.081   .     S
C606   H626    1.081   .     S
C606   C608    1.415   .     A
C606   N641    1.366   .     A
C607   H627    1.081   .     S
C607   N642    1.366   .     A
C608   O647    1.382   .     S
Cu609  Cu610   2.669   .     S
Cu609  O655    1.958   .     S
Cu609  O651    1.958   .     S
Cu609  O652    1.955   .     S
Cu609  N642    2.005   .     S
Cu609  O643    1.954   .     S
Cu610  O650    1.958   .     S
Cu610  N641    2.005   .     S
Cu610  O654    1.958   .     S
Cu610  O649    1.954   .     S
Cu610  O653    1.955   .     S
H611   C663    1.087   .     S
H615   C845    1.109   .     S
H630   C109    1.109   1_556 S
C657   O725    1.290   .     A
C657   O732    1.289   .     A
C657   C670    1.458   .     S
C658   O730    1.384   .     S
C658   C660    1.412   .     A
C658   C689    1.417   .     A
C659   C679    1.406   .     A
C659   C690    1.412   .     A
C660   C685    1.406   .     A
C660   C167    1.508   1_556 S
C661   C663    1.433   .     S
C661   O736    1.285   .     A
C661   O734    1.283   .     A
C662   O737    1.285   .     A
C662   C664    1.433   .     S
C662   O735    1.283   .     A
C664   C499    1.335   1_655 S
C664   H540    1.087   1_655 S
C665   H715    1.084   .     S
C665   C676    1.400   .     A
C665   C667    1.384   .     A
C666   C669    1.388   .     A
C666   C677    1.399   .     A
C666   H717    1.083   .     S
C667   H718    1.084   .     S
C667   C670    1.397   .     A
C668   C671    1.469   .     S
C668   O733    1.289   .     A
C668   O731    1.297   .     A
C669   H719    1.083   .     S
C669   C671    1.402   .     A
C670   C672    1.413   .     A
C671   C673    1.416   .     A
C672   O738    1.385   .     S
C672   C674    1.403   .     A
C673   O726    1.384   .     S
C673   C675    1.403   .     A
C674   O727    1.386   .     S
C674   C676    1.415   .     A
C675   C677    1.408   .     A
C675   O728    1.384   .     S
C676   C923    1.467   1_545 S
C677   C922    1.467   .     S
C678   O738    1.411   .     S
C678   H722    1.109   .     S
C678   H721    1.109   .     S
C678   H720    1.113   .     S
C679   H703    1.083   .     S
C679   C686    1.408   .     A
C680   O726    1.412   .     S
C680   H695    1.114   .     S
C680   H696    1.112   .     S
C680   H694    1.109   .     S
C681   H699    1.109   .     S
C681   O727    1.413   .     S
C681   H698    1.114   .     S
C681   H943    1.109   1_545 S
C682   O728    1.409   .     S
C682   H701    1.113   .     S
C682   H700    1.111   .     S
C682   H702    1.109   .     S
C683   H710    1.113   .     S
C683   H711    1.113   .     S
C683   O729    1.409   .     S
C684   O730    1.410   .     S
C684   H713    1.113   .     S
C684   H714    1.112   .     S
C684   H224    1.109   1_556 S
C685   H705    1.083   .     S
C685   C687    1.407   .     A
C686   H706    1.081   .     S
C686   N723    1.365   .     A
C687   N724    1.365   .     A
C687   H707    1.081   .     S
C688   H708    1.081   .     S
C688   C690    1.415   .     A
C688   N723    1.366   .     A
C689   H709    1.081   .     S
C689   N724    1.366   .     A
C690   O729    1.382   .     S
Cu691  Cu692   2.669   .     S
Cu691  O737    1.958   .     S
Cu691  O733    1.958   .     S
Cu691  O734    1.955   .     S
Cu691  N724    2.005   .     S
Cu691  O725    1.954   .     S
Cu692  O732    1.958   .     S
Cu692  N723    2.005   .     S
Cu692  O736    1.958   .     S
Cu692  O731    1.954   .     S
Cu692  O735    1.955   .     S
H693   C499    1.087   1_655 S
H697   C927    1.109   .     S
H712   C191    1.109   1_556 S
C739   O807    1.290   .     A
C739   O814    1.289   .     A
C739   C752    1.458   .     S
C740   O812    1.384   .     S
C740   C742    1.412   .     A
C740   C771    1.417   .     A
C741   C761    1.406   .     A
C741   C772    1.412   .     A
C742   C767    1.406   .     A
C742   C249    1.508   1_556 S
C743   C745    1.433   .     S
C743   O818    1.285   .     A
C743   O816    1.283   .     A
C744   O819    1.285   .     A
C744   C746    1.433   .     S
C744   O817    1.283   .     A
C745   C910    1.335   1_455 S
C745   H939    1.087   1_455 S
C746   C827    1.335   .     S
C746   H868    1.087   .     S
C747   H797    1.084   .     S
C747   C758    1.400   .     A
C747   C749    1.384   .     A
C748   C751    1.388   .     A
C748   C759    1.399   .     A
C748   H799    1.083   .     S
C749   H800    1.084   .     S
C749   C752    1.397   .     A
C750   C753    1.469   .     S
C750   O815    1.289   .     A
C750   O813    1.297   .     A
C751   H801    1.083   .     S
C751   C753    1.402   .     A
C752   C754    1.413   .     A
C753   C755    1.416   .     A
C754   O820    1.385   .     S
C754   C756    1.403   .     A
C755   O808    1.384   .     S
C755   C757    1.403   .     A
C756   O809    1.386   .     S
C756   C758    1.415   .     A
C757   C759    1.408   .     A
C757   O810    1.384   .     S
C759   C512    1.467   1_565 S
C760   O820    1.411   .     S
C760   H804    1.109   .     S
C760   H803    1.109   .     S
C760   H802    1.113   .     S
C761   H785    1.083   .     S
C761   C768    1.408   .     A
C762   O808    1.412   .     S
C762   H777    1.114   .     S
C762   H778    1.112   .     S
C762   H776    1.109   .     S
C763   H781    1.109   .     S
C763   O809    1.413   .     S
C763   H780    1.114   .     S
C764   O810    1.409   .     S
C764   H783    1.113   .     S
C764   H782    1.111   .     S
C764   H784    1.109   .     S
C765   H792    1.113   .     S
C765   H793    1.113   .     S
C765   O811    1.409   .     S
C766   O812    1.410   .     S
C766   H795    1.113   .     S
C766   H796    1.112   .     S
C766   H306    1.109   1_556 S
C767   H787    1.083   .     S
C767   C769    1.407   .     A
C768   H788    1.081   .     S
C768   N805    1.365   .     A
C769   N806    1.365   .     A
C769   H789    1.081   .     S
C770   H790    1.081   .     S
C770   C772    1.415   .     A
C770   N805    1.366   .     A
C771   H791    1.081   .     S
C771   N806    1.366   .     A
C772   O811    1.382   .     S
Cu773  Cu774   2.669   .     S
Cu773  O819    1.958   .     S
Cu773  O815    1.958   .     S
Cu773  O816    1.955   .     S
Cu773  N806    2.005   .     S
Cu773  O807    1.954   .     S
Cu774  O814    1.958   .     S
Cu774  N805    2.005   .     S
Cu774  O818    1.958   .     S
Cu774  O813    1.954   .     S
Cu774  O817    1.955   .     S
H775   C827    1.087   .     S
H779   C517    1.109   1_565 S
H786   C910    1.087   1_455 S
H794   C273    1.109   1_556 S
C821   O889    1.290   .     A
C821   O896    1.289   .     A
C821   C834    1.458   .     S
C822   O894    1.384   .     S
C822   C824    1.412   .     A
C822   C853    1.417   .     A
C823   C843    1.406   .     A
C823   C854    1.412   .     A
C824   C849    1.406   .     A
C824   C331    1.508   1_556 S
C825   C827    1.433   .     S
C825   O900    1.285   .     A
C825   O898    1.283   .     A
C826   O901    1.285   .     A
C826   C828    1.433   .     S
C826   O899    1.283   .     A
C828   C909    1.335   .     S
C828   H950    1.087   .     S
C829   H879    1.084   .     S
C829   C840    1.400   .     A
C829   C831    1.384   .     A
C830   C833    1.388   .     A
C830   C841    1.399   .     A
C830   H881    1.083   .     S
C831   H882    1.084   .     S
C831   C834    1.397   .     A
C832   C835    1.469   .     S
C832   O897    1.289   .     A
C832   O895    1.297   .     A
C833   H883    1.083   .     S
C833   C835    1.402   .     A
C834   C836    1.413   .     A
C835   C837    1.416   .     A
C836   O902    1.385   .     S
C836   C838    1.403   .     A
C837   O890    1.384   .     S
C837   C839    1.403   .     A
C838   O891    1.386   .     S
C838   C840    1.415   .     A
C839   C841    1.408   .     A
C839   O892    1.384   .     S
C841   C594    1.467   1_565 S
C842   O902    1.411   .     S
C842   H886    1.109   .     S
C842   H885    1.109   .     S
C842   H884    1.113   .     S
C843   H867    1.083   .     S
C843   C850    1.408   .     A
C844   O890    1.412   .     S
C844   H859    1.114   .     S
C844   H860    1.112   .     S
C844   H858    1.109   .     S
C845   H863    1.109   .     S
C845   O891    1.413   .     S
C845   H862    1.114   .     S
C846   O892    1.409   .     S
C846   H865    1.113   .     S
C846   H864    1.111   .     S
C846   H866    1.109   .     S
C847   H874    1.113   .     S
C847   H875    1.113   .     S
C847   O893    1.409   .     S
C848   O894    1.410   .     S
C848   H877    1.113   .     S
C848   H878    1.112   .     S
C848   H388    1.109   1_556 S
C849   H869    1.083   .     S
C849   C851    1.407   .     A
C850   H870    1.081   .     S
C850   N887    1.365   .     A
C851   N888    1.365   .     A
C851   H871    1.081   .     S
C852   H872    1.081   .     S
C852   C854    1.415   .     A
C852   N887    1.366   .     A
C853   H873    1.081   .     S
C853   N888    1.366   .     A
C854   O893    1.382   .     S
Cu855  Cu856   2.669   .     S
Cu855  O901    1.958   .     S
Cu855  O897    1.958   .     S
Cu855  O898    1.955   .     S
Cu855  N888    2.005   .     S
Cu855  O889    1.954   .     S
Cu856  O896    1.958   .     S
Cu856  N887    2.005   .     S
Cu856  O900    1.958   .     S
Cu856  O895    1.954   .     S
Cu856  O899    1.955   .     S
H857   C909    1.087   .     S
H861   C599    1.109   1_565 S
H876   C355    1.109   1_556 S
C903   O971    1.290   .     A
C903   O978    1.289   .     A
C903   C916    1.458   .     S
C904   O976    1.384   .     S
C904   C906    1.412   .     A
C904   C935    1.417   .     A
C905   C925    1.406   .     A
C905   C936    1.412   .     A
C906   C931    1.406   .     A
C906   C413    1.508   1_556 S
C907   C909    1.433   .     S
C907   O982    1.285   .     A
C907   O980    1.283   .     A
C908   O983    1.285   .     A
C908   C910    1.433   .     S
C908   O981    1.283   .     A
C910   C745    1.335   1_655 S
C910   H786    1.087   1_655 S
C911   H961    1.084   .     S
C911   C922    1.400   .     A
C911   C913    1.384   .     A
C912   C915    1.388   .     A
C912   C923    1.399   .     A
C912   H963    1.083   .     S
C913   H964    1.084   .     S
C913   C916    1.397   .     A
C914   C917    1.469   .     S
C914   O979    1.289   .     A
C914   O977    1.297   .     A
C915   H965    1.083   .     S
C915   C917    1.402   .     A
C916   C918    1.413   .     A
C917   C919    1.416   .     A
C918   O984    1.385   .     S
C918   C920    1.403   .     A
C919   O972    1.384   .     S
C919   C921    1.403   .     A
C920   O973    1.386   .     S
C920   C922    1.415   .     A
C921   C923    1.408   .     A
C921   O974    1.384   .     S
C923   C676    1.467   1_565 S
C924   O984    1.411   .     S
C924   H968    1.109   .     S
C924   H967    1.109   .     S
C924   H966    1.113   .     S
C925   H949    1.083   .     S
C925   C932    1.408   .     A
C926   O972    1.412   .     S
C926   H941    1.114   .     S
C926   H942    1.112   .     S
C926   H940    1.109   .     S
C927   H945    1.109   .     S
C927   O973    1.413   .     S
C927   H944    1.114   .     S
C928   O974    1.409   .     S
C928   H947    1.113   .     S
C928   H946    1.111   .     S
C928   H948    1.109   .     S
C929   H956    1.113   .     S
C929   H957    1.113   .     S
C929   O975    1.409   .     S
C930   O976    1.410   .     S
C930   H959    1.113   .     S
C930   H960    1.112   .     S
C930   H470    1.109   1_556 S
C931   H951    1.083   .     S
C931   C933    1.407   .     A
C932   H952    1.081   .     S
C932   N969    1.365   .     A
C933   N970    1.365   .     A
C933   H953    1.081   .     S
C934   H954    1.081   .     S
C934   C936    1.415   .     A
C934   N969    1.366   .     A
C935   H955    1.081   .     S
C935   N970    1.366   .     A
C936   O975    1.382   .     S
Cu937  Cu938   2.669   .     S
Cu937  O983    1.958   .     S
Cu937  O979    1.958   .     S
Cu937  O980    1.955   .     S
Cu937  N970    2.005   .     S
Cu937  O971    1.954   .     S
Cu938  O978    1.958   .     S
Cu938  N969    2.005   .     S
Cu938  O982    1.958   .     S
Cu938  O977    1.954   .     S
Cu938  O981    1.955   .     S
H939   C745    1.087   1_655 S
H943   C681    1.109   1_565 S
H958   C437    1.109   1_556 S
