data_str_m2_o1_o17_pcu_sym.172
_audit_creation_date              2020-01-03
_audit_creation_method            'Materials Studio'
_symmetry_space_group_name_H-M    'P1'
_symmetry_Int_Tables_number       1
_symmetry_cell_setting            triclinic
loop_
_symmetry_equiv_pos_as_xyz
  x,y,z
_cell_length_a                    32.7710
_cell_length_b                    29.0100
_cell_length_c                    30.2876
_cell_angle_alpha                 90.1370
_cell_angle_beta                  86.6396
_cell_angle_gamma                 89.4224
loop_
_atom_site_label
_atom_site_type_symbol
_atom_site_fract_x
_atom_site_fract_y
_atom_site_fract_z
_atom_site_U_iso_or_equiv
_atom_site_adp_type
_atom_site_occupancy
C1     C     0.08765   0.16669   0.24732   0.00000  Uiso   1.00
C2     C     0.24587   0.16647   0.25005   0.00000  Uiso   1.00
C3     C     0.09341   0.19556   0.03256   0.00000  Uiso   1.00
C4     C     0.23652   0.17172   0.47108   0.00000  Uiso   1.00
C5     C     0.02169   0.12455   0.24932   0.00000  Uiso   1.00
C6     C     0.31190   0.20783   0.24600   0.00000  Uiso   1.00
C7     C     0.31252   0.12442   0.25031   0.00000  Uiso   1.00
C8     C     0.02096   0.20780   0.24350   0.00000  Uiso   1.00
C9     C     0.29061   0.16617   0.24933   0.00000  Uiso   1.00
C10    C     0.04294   0.16637   0.24625   0.00000  Uiso   1.00
C11    C     0.17677   0.02351   0.21242   0.00000  Uiso   1.00
C12    C     0.16871   0.31000   0.28831   0.00000  Uiso   1.00
C13    C     0.15716   0.02380   0.28776   0.00000  Uiso   1.00
C14    C     0.16536   0.31000   0.21174   0.00000  Uiso   1.00
C15    C     0.16740   0.16652   0.16462   0.00000  Uiso   1.00
C16    C     0.16454   0.16694   0.33565   0.00000  Uiso   1.00
C17    C     0.19868   0.16669   0.40491   0.00000  Uiso   1.00
C18    C     0.12936   0.17000   0.09693   0.00000  Uiso   1.00
C19    C     0.16158   0.16889   0.38451   0.00000  Uiso   1.00
C20    C     0.16687   0.16617   0.11642   0.00000  Uiso   1.00
C21    C     0.12406   0.17771   0.41053   0.00000  Uiso   1.00
C22    C     0.20365   0.16455   0.09008   0.00000  Uiso   1.00
C23    C     0.12518   0.18216   0.45771   0.00000  Uiso   1.00
C24    C     0.20254   0.16301   0.04341   0.00000  Uiso   1.00
C25    C     0.16271   0.17352   0.47748   0.00000  Uiso   1.00
C26    C     0.16458   0.17142   0.02405   0.00000  Uiso   1.00
C27    C     0.19920   0.17001   0.45098   0.00000  Uiso   1.00
C28    C     0.12865   0.17793   0.05115   0.00000  Uiso   1.00
C29    C     0.09106   0.19740   0.48618   0.00000  Uiso   1.00
C30    C     0.23835   0.15864   0.01511   0.00000  Uiso   1.00
Cu31   Cu    0.16667   0.21355   0.25000   0.00000  Uiso   1.00
Cu32   Cu    0.16667   0.11978   0.25000   0.00000  Uiso   1.00
H33    H     0.03781   0.09189   0.25106   0.00000  Uiso   1.00
H34    H     0.29590   0.24054   0.24432   0.00000  Uiso   1.00
H35    H     0.29688   0.09173   0.25251   0.00000  Uiso   1.00
H36    H     0.03630   0.24051   0.24158   0.00000  Uiso   1.00
N37    N     0.16667   0.28402   0.25000   0.00000  Uiso   1.00
N38    N     0.16667   0.04931   0.25000   0.00000  Uiso   1.00
O39    O     0.10655   0.20625   0.24999   0.00000  Uiso   1.00
O40    O     0.22679   0.12709   0.25000   0.00000  Uiso   1.00
O41    O     0.22679   0.20625   0.25000   0.00000  Uiso   1.00
O42    O     0.10655   0.12709   0.24999   0.00000  Uiso   1.00
O43    O     0.16666   0.20627   0.18513   0.00000  Uiso   1.00
O44    O     0.16668   0.12707   0.31487   0.00000  Uiso   1.00
O45    O     0.16668   0.20627   0.31487   0.00000  Uiso   1.00
O46    O     0.16666   0.12707   0.18513   0.00000  Uiso   1.00
O47    O     0.23499   0.16097   0.37942   0.00000  Uiso   1.00
C48    C     0.24627   0.11370   0.37834   0.00000  Uiso   1.00
H49    H     0.23232   0.09668   0.35013   0.00000  Uiso   1.00
H50    H     0.23697   0.09479   0.40934   0.00000  Uiso   1.00
C51    C     0.29242   0.10925   0.37133   0.00000  Uiso   1.00
H52    H     0.30750   0.12561   0.39915   0.00000  Uiso   1.00
H53    H     0.30148   0.07228   0.36935   0.00000  Uiso   1.00
H54    H     0.30272   0.12640   0.34012   0.00000  Uiso   1.00
O55    O     0.09319   0.16780   0.12288   0.00000  Uiso   1.00
C56    C     0.08219   0.12099   0.12852   0.00000  Uiso   1.00
H57    H     0.09475   0.10760   0.15927   0.00000  Uiso   1.00
H58    H     0.09315   0.09822   0.10034   0.00000  Uiso   1.00
C59    C     0.03592   0.11741   0.13311   0.00000  Uiso   1.00
H60    H     0.02298   0.12482   0.10091   0.00000  Uiso   1.00
H61    H     0.02708   0.08204   0.14353   0.00000  Uiso   1.00
H62    H     0.02315   0.14250   0.15798   0.00000  Uiso   1.00
O63    O     0.08588   0.17394   0.39272   0.00000  Uiso   1.00
C64    C     0.08197   0.20232   0.35540   0.00000  Uiso   1.00
H65    H     0.09254   0.18232   0.32651   0.00000  Uiso   1.00
H66    H     0.09916   0.23511   0.35722   0.00000  Uiso   1.00
C67    C     0.03746   0.21360   0.34786   0.00000  Uiso   1.00
H68    H     0.02145   0.23015   0.37644   0.00000  Uiso   1.00
H69    H     0.03634   0.23895   0.32075   0.00000  Uiso   1.00
H70    H     0.02095   0.18194   0.33945   0.00000  Uiso   1.00
O71    O     0.24038   0.16610   0.11023   0.00000  Uiso   1.00
C72    C     0.25093   0.21268   0.11642   0.00000  Uiso   1.00
H73    H     0.22799   0.23050   0.13888   0.00000  Uiso   1.00
H74    H     0.25376   0.23167   0.08449   0.00000  Uiso   1.00
C75    C     0.29132   0.21454   0.13831   0.00000  Uiso   1.00
H76    H     0.31720   0.20730   0.11421   0.00000  Uiso   1.00
H77    H     0.29533   0.24910   0.15318   0.00000  Uiso   1.00
H78    H     0.29168   0.18798   0.16429   0.00000  Uiso   1.00
S79    S     0.04801   0.22609   0.46543   0.00000  Uiso   1.00
O80    O     0.02189   0.19049   0.44514   0.00000  Uiso   1.00
O81    O     0.02162   0.25158   0.49965   0.00000  Uiso   1.00
O82    O     0.06498   0.26537   0.42822   0.00000  Uiso   1.00
H83    H     0.08378   0.28504   0.44424   0.00000  Uiso   1.00
S84    S     0.28360   0.12921   0.02895   0.00000  Uiso   1.00
O85    O     0.27531   0.09636   0.06664   0.00000  Uiso   1.00
O86    O     0.30011   0.10217   0.48933   0.00000  Uiso   1.00
O87    O     0.31917   0.16712   0.04206   0.00000  Uiso   1.00
H88    H     0.30670   0.19768   0.03717   0.00000  Uiso   1.00
O89    O     0.06244   0.21496   0.05992   0.00000  Uiso   1.00
C90    C     0.07401   0.26033   0.07097   0.00000  Uiso   1.00
H91    H     0.08119   0.28149   0.04090   0.00000  Uiso   1.00
H92    H     0.10136   0.25958   0.09055   0.00000  Uiso   1.00
C93    C     0.03944   0.28406   0.09830   0.00000  Uiso   1.00
H94    H     0.03383   0.26573   0.13009   0.00000  Uiso   1.00
H95    H     0.04781   0.32022   0.10530   0.00000  Uiso   1.00
H96    H     0.01098   0.28435   0.08017   0.00000  Uiso   1.00
O97    O     0.26918   0.19458   0.45037   0.00000  Uiso   1.00
C98    C     0.26157   0.24279   0.45556   0.00000  Uiso   1.00
H99    H     0.27203   0.25453   0.48794   0.00000  Uiso   1.00
H100   H     0.22857   0.25253   0.45438   0.00000  Uiso   1.00
C101   C     0.28389   0.26965   0.41865   0.00000  Uiso   1.00
H102   H     0.28206   0.25136   0.38666   0.00000  Uiso   1.00
H103   H     0.26984   0.30446   0.41598   0.00000  Uiso   1.00
H104   H     0.31620   0.27444   0.42591   0.00000  Uiso   1.00
S105   S     0.21262   0.04004   0.16864   0.00000  Uiso   1.00
O106   O     0.23707   0.08159   0.17901   0.00000  Uiso   1.00
O107   O     0.24207   0.00038   0.16083   0.00000  Uiso   1.00
O108   O     0.18986   0.04884   0.12092   0.00000  Uiso   1.00
H109   H     0.16503   0.06735   0.12864   0.00000  Uiso   1.00
S110   S     0.19770   0.29439   0.33399   0.00000  Uiso   1.00
O111   O     0.21876   0.00317   0.35010   0.00000  Uiso   1.00
O112   O     0.16975   0.27720   0.37132   0.00000  Uiso   1.00
O113   O     0.23395   0.25461   0.32100   0.00000  Uiso   1.00
H114   H     0.25759   0.27225   0.30848   0.00000  Uiso   1.00
S115   S     0.12061   0.04040   0.33114   0.00000  Uiso   1.00
O116   O     0.09694   0.08336   0.32188   0.00000  Uiso   1.00
O117   O     0.09052   0.00178   0.33682   0.00000  Uiso   1.00
O118   O     0.14261   0.04637   0.37962   0.00000  Uiso   1.00
H119   H     0.16491   0.06860   0.37412   0.00000  Uiso   1.00
S120   S     0.13667   0.29545   0.16609   0.00000  Uiso   1.00
O121   O     0.11540   0.00470   0.15042   0.00000  Uiso   1.00
O122   O     0.16491   0.27804   0.12877   0.00000  Uiso   1.00
O123   O     0.10062   0.25644   0.17893   0.00000  Uiso   1.00
H124   H     0.07702   0.27502   0.19086   0.00000  Uiso   1.00
C125   C     0.42098   0.16669   0.24732   0.00000  Uiso   1.00
C126   C     0.57920   0.16647   0.25005   0.00000  Uiso   1.00
C127   C     0.42675   0.19556   0.03256   0.00000  Uiso   1.00
C128   C     0.56986   0.17172   0.47108   0.00000  Uiso   1.00
C129   C     0.35503   0.12455   0.24932   0.00000  Uiso   1.00
C130   C     0.64523   0.20783   0.24600   0.00000  Uiso   1.00
C131   C     0.64585   0.12442   0.25031   0.00000  Uiso   1.00
C132   C     0.35429   0.20780   0.24350   0.00000  Uiso   1.00
C133   C     0.62395   0.16617   0.24933   0.00000  Uiso   1.00
C134   C     0.37627   0.16637   0.24625   0.00000  Uiso   1.00
C135   C     0.51011   0.02351   0.21242   0.00000  Uiso   1.00
C136   C     0.50205   0.31000   0.28831   0.00000  Uiso   1.00
C137   C     0.49050   0.02380   0.28776   0.00000  Uiso   1.00
C138   C     0.49869   0.31000   0.21174   0.00000  Uiso   1.00
C139   C     0.50073   0.16652   0.16462   0.00000  Uiso   1.00
C140   C     0.49787   0.16694   0.33565   0.00000  Uiso   1.00
C141   C     0.53201   0.16669   0.40491   0.00000  Uiso   1.00
C142   C     0.46269   0.17000   0.09693   0.00000  Uiso   1.00
C143   C     0.49491   0.16889   0.38451   0.00000  Uiso   1.00
C144   C     0.50020   0.16617   0.11642   0.00000  Uiso   1.00
C145   C     0.45739   0.17771   0.41053   0.00000  Uiso   1.00
C146   C     0.53698   0.16455   0.09008   0.00000  Uiso   1.00
C147   C     0.45851   0.18216   0.45771   0.00000  Uiso   1.00
C148   C     0.53587   0.16301   0.04341   0.00000  Uiso   1.00
C149   C     0.49604   0.17352   0.47748   0.00000  Uiso   1.00
C150   C     0.49791   0.17142   0.02405   0.00000  Uiso   1.00
C151   C     0.53254   0.17001   0.45098   0.00000  Uiso   1.00
C152   C     0.46199   0.17793   0.05115   0.00000  Uiso   1.00
C153   C     0.42439   0.19740   0.48618   0.00000  Uiso   1.00
C154   C     0.57169   0.15864   0.01511   0.00000  Uiso   1.00
Cu155  Cu    0.50000   0.21355   0.25000   0.00000  Uiso   1.00
Cu156  Cu    0.50000   0.11978   0.25000   0.00000  Uiso   1.00
H157   H     0.37114   0.09189   0.25106   0.00000  Uiso   1.00
H158   H     0.62923   0.24054   0.24432   0.00000  Uiso   1.00
H159   H     0.63021   0.09173   0.25251   0.00000  Uiso   1.00
H160   H     0.36963   0.24051   0.24158   0.00000  Uiso   1.00
N161   N     0.50000   0.28402   0.25000   0.00000  Uiso   1.00
N162   N     0.50000   0.04931   0.25000   0.00000  Uiso   1.00
O163   O     0.43988   0.20625   0.24999   0.00000  Uiso   1.00
O164   O     0.56012   0.12709   0.25000   0.00000  Uiso   1.00
O165   O     0.56012   0.20625   0.25000   0.00000  Uiso   1.00
O166   O     0.43988   0.12709   0.24999   0.00000  Uiso   1.00
O167   O     0.49999   0.20627   0.18513   0.00000  Uiso   1.00
O168   O     0.50001   0.12707   0.31487   0.00000  Uiso   1.00
O169   O     0.50001   0.20627   0.31487   0.00000  Uiso   1.00
O170   O     0.49999   0.12707   0.18513   0.00000  Uiso   1.00
O171   O     0.56833   0.16097   0.37942   0.00000  Uiso   1.00
C172   C     0.57960   0.11370   0.37834   0.00000  Uiso   1.00
H173   H     0.56565   0.09668   0.35013   0.00000  Uiso   1.00
H174   H     0.57030   0.09479   0.40934   0.00000  Uiso   1.00
C175   C     0.62575   0.10925   0.37133   0.00000  Uiso   1.00
H176   H     0.64083   0.12561   0.39915   0.00000  Uiso   1.00
H177   H     0.63481   0.07228   0.36935   0.00000  Uiso   1.00
H178   H     0.63605   0.12640   0.34012   0.00000  Uiso   1.00
O179   O     0.42653   0.16780   0.12288   0.00000  Uiso   1.00
C180   C     0.41552   0.12099   0.12852   0.00000  Uiso   1.00
H181   H     0.42809   0.10760   0.15927   0.00000  Uiso   1.00
H182   H     0.42649   0.09822   0.10034   0.00000  Uiso   1.00
C183   C     0.36926   0.11741   0.13311   0.00000  Uiso   1.00
H184   H     0.35632   0.12482   0.10091   0.00000  Uiso   1.00
H185   H     0.36041   0.08204   0.14353   0.00000  Uiso   1.00
H186   H     0.35649   0.14250   0.15798   0.00000  Uiso   1.00
O187   O     0.41921   0.17394   0.39272   0.00000  Uiso   1.00
C188   C     0.41531   0.20232   0.35540   0.00000  Uiso   1.00
H189   H     0.42587   0.18232   0.32651   0.00000  Uiso   1.00
H190   H     0.43250   0.23511   0.35722   0.00000  Uiso   1.00
C191   C     0.37080   0.21360   0.34786   0.00000  Uiso   1.00
H192   H     0.35478   0.23015   0.37644   0.00000  Uiso   1.00
H193   H     0.36967   0.23895   0.32075   0.00000  Uiso   1.00
H194   H     0.35428   0.18194   0.33945   0.00000  Uiso   1.00
O195   O     0.57371   0.16610   0.11023   0.00000  Uiso   1.00
C196   C     0.58427   0.21268   0.11642   0.00000  Uiso   1.00
H197   H     0.56132   0.23050   0.13888   0.00000  Uiso   1.00
H198   H     0.58709   0.23167   0.08449   0.00000  Uiso   1.00
C199   C     0.62465   0.21454   0.13831   0.00000  Uiso   1.00
H200   H     0.65053   0.20730   0.11421   0.00000  Uiso   1.00
H201   H     0.62866   0.24910   0.15318   0.00000  Uiso   1.00
H202   H     0.62501   0.18798   0.16429   0.00000  Uiso   1.00
S203   S     0.38134   0.22609   0.46543   0.00000  Uiso   1.00
O204   O     0.35522   0.19049   0.44514   0.00000  Uiso   1.00
O205   O     0.35496   0.25158   0.49965   0.00000  Uiso   1.00
O206   O     0.39831   0.26537   0.42822   0.00000  Uiso   1.00
H207   H     0.41711   0.28504   0.44424   0.00000  Uiso   1.00
S208   S     0.61693   0.12921   0.02895   0.00000  Uiso   1.00
O209   O     0.60864   0.09636   0.06664   0.00000  Uiso   1.00
O210   O     0.63344   0.10217   0.48933   0.00000  Uiso   1.00
O211   O     0.65251   0.16712   0.04206   0.00000  Uiso   1.00
H212   H     0.64003   0.19768   0.03717   0.00000  Uiso   1.00
O213   O     0.39577   0.21496   0.05992   0.00000  Uiso   1.00
C214   C     0.40734   0.26033   0.07097   0.00000  Uiso   1.00
H215   H     0.41452   0.28149   0.04090   0.00000  Uiso   1.00
H216   H     0.43470   0.25958   0.09055   0.00000  Uiso   1.00
C217   C     0.37277   0.28406   0.09830   0.00000  Uiso   1.00
H218   H     0.36716   0.26573   0.13009   0.00000  Uiso   1.00
H219   H     0.38114   0.32022   0.10530   0.00000  Uiso   1.00
H220   H     0.34431   0.28435   0.08017   0.00000  Uiso   1.00
O221   O     0.60252   0.19458   0.45037   0.00000  Uiso   1.00
C222   C     0.59491   0.24279   0.45556   0.00000  Uiso   1.00
H223   H     0.60536   0.25453   0.48794   0.00000  Uiso   1.00
H224   H     0.56191   0.25253   0.45438   0.00000  Uiso   1.00
C225   C     0.61722   0.26965   0.41865   0.00000  Uiso   1.00
H226   H     0.61539   0.25136   0.38666   0.00000  Uiso   1.00
H227   H     0.60318   0.30446   0.41598   0.00000  Uiso   1.00
H228   H     0.64953   0.27444   0.42591   0.00000  Uiso   1.00
S229   S     0.54596   0.04004   0.16864   0.00000  Uiso   1.00
O230   O     0.57041   0.08159   0.17901   0.00000  Uiso   1.00
O231   O     0.57540   0.00038   0.16083   0.00000  Uiso   1.00
O232   O     0.52319   0.04884   0.12092   0.00000  Uiso   1.00
H233   H     0.49836   0.06735   0.12864   0.00000  Uiso   1.00
S234   S     0.53104   0.29439   0.33399   0.00000  Uiso   1.00
O235   O     0.55210   0.00317   0.35010   0.00000  Uiso   1.00
O236   O     0.50308   0.27720   0.37132   0.00000  Uiso   1.00
O237   O     0.56728   0.25461   0.32100   0.00000  Uiso   1.00
H238   H     0.59093   0.27225   0.30848   0.00000  Uiso   1.00
S239   S     0.45394   0.04040   0.33114   0.00000  Uiso   1.00
O240   O     0.43027   0.08336   0.32188   0.00000  Uiso   1.00
O241   O     0.42386   0.00178   0.33682   0.00000  Uiso   1.00
O242   O     0.47594   0.04637   0.37962   0.00000  Uiso   1.00
H243   H     0.49824   0.06860   0.37412   0.00000  Uiso   1.00
S244   S     0.47000   0.29545   0.16609   0.00000  Uiso   1.00
O245   O     0.44873   0.00470   0.15042   0.00000  Uiso   1.00
O246   O     0.49824   0.27804   0.12877   0.00000  Uiso   1.00
O247   O     0.43396   0.25644   0.17893   0.00000  Uiso   1.00
H248   H     0.41035   0.27502   0.19086   0.00000  Uiso   1.00
C249   C     0.75432   0.16669   0.24732   0.00000  Uiso   1.00
C250   C     0.91253   0.16647   0.25005   0.00000  Uiso   1.00
C251   C     0.76008   0.19556   0.03256   0.00000  Uiso   1.00
C252   C     0.90319   0.17172   0.47108   0.00000  Uiso   1.00
C253   C     0.68836   0.12455   0.24932   0.00000  Uiso   1.00
C254   C     0.97857   0.20783   0.24600   0.00000  Uiso   1.00
C255   C     0.97919   0.12442   0.25031   0.00000  Uiso   1.00
C256   C     0.68762   0.20780   0.24350   0.00000  Uiso   1.00
C257   C     0.95728   0.16617   0.24933   0.00000  Uiso   1.00
C258   C     0.70961   0.16637   0.24625   0.00000  Uiso   1.00
C259   C     0.84344   0.02351   0.21242   0.00000  Uiso   1.00
C260   C     0.83538   0.31000   0.28831   0.00000  Uiso   1.00
C261   C     0.82383   0.02380   0.28776   0.00000  Uiso   1.00
C262   C     0.83202   0.31000   0.21174   0.00000  Uiso   1.00
C263   C     0.83406   0.16652   0.16462   0.00000  Uiso   1.00
C264   C     0.83120   0.16694   0.33565   0.00000  Uiso   1.00
C265   C     0.86534   0.16669   0.40491   0.00000  Uiso   1.00
C266   C     0.79602   0.17000   0.09693   0.00000  Uiso   1.00
C267   C     0.82825   0.16889   0.38451   0.00000  Uiso   1.00
C268   C     0.83353   0.16617   0.11642   0.00000  Uiso   1.00
C269   C     0.79073   0.17771   0.41053   0.00000  Uiso   1.00
C270   C     0.87031   0.16455   0.09008   0.00000  Uiso   1.00
C271   C     0.79185   0.18216   0.45771   0.00000  Uiso   1.00
C272   C     0.86920   0.16301   0.04341   0.00000  Uiso   1.00
C273   C     0.82937   0.17352   0.47748   0.00000  Uiso   1.00
C274   C     0.83124   0.17142   0.02405   0.00000  Uiso   1.00
C275   C     0.86587   0.17001   0.45098   0.00000  Uiso   1.00
C276   C     0.79532   0.17793   0.05115   0.00000  Uiso   1.00
C277   C     0.75772   0.19740   0.48618   0.00000  Uiso   1.00
C278   C     0.90502   0.15864   0.01511   0.00000  Uiso   1.00
Cu279  Cu    0.83333   0.21355   0.25000   0.00000  Uiso   1.00
Cu280  Cu    0.83333   0.11978   0.25000   0.00000  Uiso   1.00
H281   H     0.70447   0.09189   0.25106   0.00000  Uiso   1.00
H282   H     0.96256   0.24054   0.24432   0.00000  Uiso   1.00
H283   H     0.96355   0.09173   0.25251   0.00000  Uiso   1.00
H284   H     0.70296   0.24051   0.24158   0.00000  Uiso   1.00
N285   N     0.83333   0.28402   0.25000   0.00000  Uiso   1.00
N286   N     0.83333   0.04931   0.25000   0.00000  Uiso   1.00
O287   O     0.77321   0.20625   0.24999   0.00000  Uiso   1.00
O288   O     0.89345   0.12709   0.25000   0.00000  Uiso   1.00
O289   O     0.89345   0.20625   0.25000   0.00000  Uiso   1.00
O290   O     0.77321   0.12709   0.24999   0.00000  Uiso   1.00
O291   O     0.83332   0.20627   0.18513   0.00000  Uiso   1.00
O292   O     0.83334   0.12707   0.31487   0.00000  Uiso   1.00
O293   O     0.83334   0.20627   0.31487   0.00000  Uiso   1.00
O294   O     0.83332   0.12707   0.18513   0.00000  Uiso   1.00
O295   O     0.90166   0.16097   0.37942   0.00000  Uiso   1.00
C296   C     0.91293   0.11370   0.37834   0.00000  Uiso   1.00
H297   H     0.89898   0.09668   0.35013   0.00000  Uiso   1.00
H298   H     0.90363   0.09479   0.40934   0.00000  Uiso   1.00
C299   C     0.95908   0.10925   0.37133   0.00000  Uiso   1.00
H300   H     0.97417   0.12561   0.39915   0.00000  Uiso   1.00
H301   H     0.96814   0.07228   0.36935   0.00000  Uiso   1.00
H302   H     0.96938   0.12640   0.34012   0.00000  Uiso   1.00
O303   O     0.75986   0.16780   0.12288   0.00000  Uiso   1.00
C304   C     0.74886   0.12099   0.12852   0.00000  Uiso   1.00
H305   H     0.76142   0.10760   0.15927   0.00000  Uiso   1.00
H306   H     0.75982   0.09822   0.10034   0.00000  Uiso   1.00
C307   C     0.70259   0.11741   0.13311   0.00000  Uiso   1.00
H308   H     0.68965   0.12482   0.10091   0.00000  Uiso   1.00
H309   H     0.69374   0.08204   0.14353   0.00000  Uiso   1.00
H310   H     0.68982   0.14250   0.15798   0.00000  Uiso   1.00
O311   O     0.75255   0.17394   0.39272   0.00000  Uiso   1.00
C312   C     0.74864   0.20232   0.35540   0.00000  Uiso   1.00
H313   H     0.75920   0.18232   0.32651   0.00000  Uiso   1.00
H314   H     0.76583   0.23511   0.35722   0.00000  Uiso   1.00
C315   C     0.70413   0.21360   0.34786   0.00000  Uiso   1.00
H316   H     0.68811   0.23015   0.37644   0.00000  Uiso   1.00
H317   H     0.70300   0.23895   0.32075   0.00000  Uiso   1.00
H318   H     0.68761   0.18194   0.33945   0.00000  Uiso   1.00
O319   O     0.90705   0.16610   0.11023   0.00000  Uiso   1.00
C320   C     0.91760   0.21268   0.11642   0.00000  Uiso   1.00
H321   H     0.89465   0.23050   0.13888   0.00000  Uiso   1.00
H322   H     0.92043   0.23167   0.08449   0.00000  Uiso   1.00
C323   C     0.95799   0.21454   0.13831   0.00000  Uiso   1.00
H324   H     0.98387   0.20730   0.11421   0.00000  Uiso   1.00
H325   H     0.96200   0.24910   0.15318   0.00000  Uiso   1.00
H326   H     0.95835   0.18798   0.16429   0.00000  Uiso   1.00
S327   S     0.71468   0.22609   0.46543   0.00000  Uiso   1.00
O328   O     0.68855   0.19049   0.44514   0.00000  Uiso   1.00
O329   O     0.68829   0.25158   0.49965   0.00000  Uiso   1.00
O330   O     0.73164   0.26537   0.42822   0.00000  Uiso   1.00
H331   H     0.75044   0.28504   0.44424   0.00000  Uiso   1.00
S332   S     0.95027   0.12921   0.02895   0.00000  Uiso   1.00
O333   O     0.94197   0.09636   0.06664   0.00000  Uiso   1.00
O334   O     0.96678   0.10217   0.48933   0.00000  Uiso   1.00
O335   O     0.98584   0.16712   0.04206   0.00000  Uiso   1.00
H336   H     0.97337   0.19768   0.03717   0.00000  Uiso   1.00
O337   O     0.72911   0.21496   0.05992   0.00000  Uiso   1.00
C338   C     0.74067   0.26033   0.07097   0.00000  Uiso   1.00
H339   H     0.74785   0.28149   0.04090   0.00000  Uiso   1.00
H340   H     0.76803   0.25958   0.09055   0.00000  Uiso   1.00
C341   C     0.70611   0.28406   0.09830   0.00000  Uiso   1.00
H342   H     0.70050   0.26573   0.13009   0.00000  Uiso   1.00
H343   H     0.71447   0.32022   0.10530   0.00000  Uiso   1.00
H344   H     0.67765   0.28435   0.08017   0.00000  Uiso   1.00
O345   O     0.93585   0.19458   0.45037   0.00000  Uiso   1.00
C346   C     0.92824   0.24279   0.45556   0.00000  Uiso   1.00
H347   H     0.93869   0.25453   0.48794   0.00000  Uiso   1.00
H348   H     0.89524   0.25253   0.45438   0.00000  Uiso   1.00
C349   C     0.95056   0.26965   0.41865   0.00000  Uiso   1.00
H350   H     0.94872   0.25136   0.38666   0.00000  Uiso   1.00
H351   H     0.93651   0.30446   0.41598   0.00000  Uiso   1.00
H352   H     0.98286   0.27444   0.42591   0.00000  Uiso   1.00
S353   S     0.87929   0.04004   0.16864   0.00000  Uiso   1.00
O354   O     0.90374   0.08159   0.17901   0.00000  Uiso   1.00
O355   O     0.90873   0.00038   0.16083   0.00000  Uiso   1.00
O356   O     0.85653   0.04884   0.12092   0.00000  Uiso   1.00
H357   H     0.83169   0.06735   0.12864   0.00000  Uiso   1.00
S358   S     0.86437   0.29439   0.33399   0.00000  Uiso   1.00
O359   O     0.88543   0.00317   0.35010   0.00000  Uiso   1.00
O360   O     0.83641   0.27720   0.37132   0.00000  Uiso   1.00
O361   O     0.90061   0.25461   0.32100   0.00000  Uiso   1.00
H362   H     0.92426   0.27225   0.30848   0.00000  Uiso   1.00
S363   S     0.78727   0.04040   0.33114   0.00000  Uiso   1.00
O364   O     0.76360   0.08336   0.32188   0.00000  Uiso   1.00
O365   O     0.75719   0.00178   0.33682   0.00000  Uiso   1.00
O366   O     0.80928   0.04637   0.37962   0.00000  Uiso   1.00
H367   H     0.83157   0.06860   0.37412   0.00000  Uiso   1.00
S368   S     0.80334   0.29545   0.16609   0.00000  Uiso   1.00
O369   O     0.78206   0.00470   0.15042   0.00000  Uiso   1.00
O370   O     0.83158   0.27804   0.12877   0.00000  Uiso   1.00
O371   O     0.76729   0.25644   0.17893   0.00000  Uiso   1.00
H372   H     0.74368   0.27502   0.19086   0.00000  Uiso   1.00
C373   C     0.08765   0.50002   0.24732   0.00000  Uiso   1.00
C374   C     0.24587   0.49980   0.25005   0.00000  Uiso   1.00
C375   C     0.09341   0.52890   0.03256   0.00000  Uiso   1.00
C376   C     0.23652   0.50505   0.47108   0.00000  Uiso   1.00
C377   C     0.02169   0.45788   0.24932   0.00000  Uiso   1.00
C378   C     0.31190   0.54116   0.24600   0.00000  Uiso   1.00
C379   C     0.31252   0.45776   0.25031   0.00000  Uiso   1.00
C380   C     0.02096   0.54113   0.24350   0.00000  Uiso   1.00
C381   C     0.29061   0.49950   0.24933   0.00000  Uiso   1.00
C382   C     0.04294   0.49970   0.24625   0.00000  Uiso   1.00
C383   C     0.17677   0.35684   0.21242   0.00000  Uiso   1.00
C384   C     0.16871   0.64333   0.28831   0.00000  Uiso   1.00
C385   C     0.15716   0.35713   0.28776   0.00000  Uiso   1.00
C386   C     0.16536   0.64334   0.21174   0.00000  Uiso   1.00
C387   C     0.16740   0.49985   0.16462   0.00000  Uiso   1.00
C388   C     0.16454   0.50027   0.33565   0.00000  Uiso   1.00
C389   C     0.19868   0.50002   0.40491   0.00000  Uiso   1.00
C390   C     0.12936   0.50334   0.09693   0.00000  Uiso   1.00
C391   C     0.16158   0.50222   0.38451   0.00000  Uiso   1.00
C392   C     0.16687   0.49950   0.11642   0.00000  Uiso   1.00
C393   C     0.12406   0.51105   0.41053   0.00000  Uiso   1.00
C394   C     0.20365   0.49789   0.09008   0.00000  Uiso   1.00
C395   C     0.12518   0.51549   0.45771   0.00000  Uiso   1.00
C396   C     0.20254   0.49634   0.04341   0.00000  Uiso   1.00
C397   C     0.16271   0.50685   0.47748   0.00000  Uiso   1.00
C398   C     0.16458   0.50476   0.02405   0.00000  Uiso   1.00
C399   C     0.19920   0.50335   0.45098   0.00000  Uiso   1.00
C400   C     0.12865   0.51126   0.05115   0.00000  Uiso   1.00
C401   C     0.09106   0.53073   0.48618   0.00000  Uiso   1.00
C402   C     0.23835   0.49197   0.01511   0.00000  Uiso   1.00
Cu403  Cu    0.16667   0.54689   0.25000   0.00000  Uiso   1.00
Cu404  Cu    0.16667   0.45311   0.25000   0.00000  Uiso   1.00
H405   H     0.03781   0.42522   0.25106   0.00000  Uiso   1.00
H406   H     0.29590   0.57387   0.24432   0.00000  Uiso   1.00
H407   H     0.29688   0.42506   0.25251   0.00000  Uiso   1.00
H408   H     0.03630   0.57385   0.24158   0.00000  Uiso   1.00
N409   N     0.16667   0.61736   0.25000   0.00000  Uiso   1.00
N410   N     0.16667   0.38264   0.25000   0.00000  Uiso   1.00
O411   O     0.10655   0.53958   0.24999   0.00000  Uiso   1.00
O412   O     0.22679   0.46042   0.25000   0.00000  Uiso   1.00
O413   O     0.22679   0.53958   0.25000   0.00000  Uiso   1.00
O414   O     0.10655   0.46042   0.24999   0.00000  Uiso   1.00
O415   O     0.16666   0.53960   0.18513   0.00000  Uiso   1.00
O416   O     0.16668   0.46040   0.31487   0.00000  Uiso   1.00
O417   O     0.16668   0.53960   0.31487   0.00000  Uiso   1.00
O418   O     0.16666   0.46040   0.18513   0.00000  Uiso   1.00
O419   O     0.23499   0.49430   0.37942   0.00000  Uiso   1.00
C420   C     0.24627   0.44703   0.37834   0.00000  Uiso   1.00
H421   H     0.23232   0.43001   0.35013   0.00000  Uiso   1.00
H422   H     0.23697   0.42812   0.40934   0.00000  Uiso   1.00
C423   C     0.29242   0.44258   0.37133   0.00000  Uiso   1.00
H424   H     0.30750   0.45895   0.39915   0.00000  Uiso   1.00
H425   H     0.30148   0.40561   0.36935   0.00000  Uiso   1.00
H426   H     0.30272   0.45973   0.34012   0.00000  Uiso   1.00
O427   O     0.09319   0.50113   0.12288   0.00000  Uiso   1.00
C428   C     0.08219   0.45433   0.12852   0.00000  Uiso   1.00
H429   H     0.09475   0.44093   0.15927   0.00000  Uiso   1.00
H430   H     0.09315   0.43156   0.10034   0.00000  Uiso   1.00
C431   C     0.03592   0.45074   0.13311   0.00000  Uiso   1.00
H432   H     0.02298   0.45815   0.10091   0.00000  Uiso   1.00
H433   H     0.02708   0.41537   0.14353   0.00000  Uiso   1.00
H434   H     0.02315   0.47583   0.15798   0.00000  Uiso   1.00
O435   O     0.08588   0.50727   0.39272   0.00000  Uiso   1.00
C436   C     0.08197   0.53565   0.35540   0.00000  Uiso   1.00
H437   H     0.09254   0.51565   0.32651   0.00000  Uiso   1.00
H438   H     0.09916   0.56845   0.35722   0.00000  Uiso   1.00
C439   C     0.03746   0.54694   0.34786   0.00000  Uiso   1.00
H440   H     0.02145   0.56348   0.37644   0.00000  Uiso   1.00
H441   H     0.03634   0.57229   0.32075   0.00000  Uiso   1.00
H442   H     0.02095   0.51527   0.33945   0.00000  Uiso   1.00
O443   O     0.24038   0.49943   0.11023   0.00000  Uiso   1.00
C444   C     0.25093   0.54601   0.11642   0.00000  Uiso   1.00
H445   H     0.22799   0.56383   0.13888   0.00000  Uiso   1.00
H446   H     0.25376   0.56500   0.08449   0.00000  Uiso   1.00
C447   C     0.29132   0.54788   0.13831   0.00000  Uiso   1.00
H448   H     0.31720   0.54063   0.11421   0.00000  Uiso   1.00
H449   H     0.29533   0.58244   0.15318   0.00000  Uiso   1.00
H450   H     0.29168   0.52132   0.16429   0.00000  Uiso   1.00
S451   S     0.04801   0.55942   0.46543   0.00000  Uiso   1.00
O452   O     0.02189   0.52382   0.44514   0.00000  Uiso   1.00
O453   O     0.02162   0.58492   0.49965   0.00000  Uiso   1.00
O454   O     0.06498   0.59871   0.42822   0.00000  Uiso   1.00
H455   H     0.08378   0.61837   0.44424   0.00000  Uiso   1.00
S456   S     0.28360   0.46255   0.02895   0.00000  Uiso   1.00
O457   O     0.27531   0.42970   0.06664   0.00000  Uiso   1.00
O458   O     0.30011   0.43550   0.48933   0.00000  Uiso   1.00
O459   O     0.31917   0.50046   0.04206   0.00000  Uiso   1.00
H460   H     0.30670   0.53101   0.03717   0.00000  Uiso   1.00
O461   O     0.06244   0.54830   0.05992   0.00000  Uiso   1.00
C462   C     0.07401   0.59366   0.07097   0.00000  Uiso   1.00
H463   H     0.08119   0.61482   0.04090   0.00000  Uiso   1.00
H464   H     0.10136   0.59292   0.09055   0.00000  Uiso   1.00
C465   C     0.03944   0.61740   0.09830   0.00000  Uiso   1.00
H466   H     0.03383   0.59906   0.13009   0.00000  Uiso   1.00
H467   H     0.04781   0.65356   0.10530   0.00000  Uiso   1.00
H468   H     0.01098   0.61768   0.08017   0.00000  Uiso   1.00
O469   O     0.26918   0.52792   0.45037   0.00000  Uiso   1.00
C470   C     0.26157   0.57612   0.45556   0.00000  Uiso   1.00
H471   H     0.27203   0.58786   0.48794   0.00000  Uiso   1.00
H472   H     0.22857   0.58586   0.45438   0.00000  Uiso   1.00
C473   C     0.28389   0.60298   0.41865   0.00000  Uiso   1.00
H474   H     0.28206   0.58469   0.38666   0.00000  Uiso   1.00
H475   H     0.26984   0.63780   0.41598   0.00000  Uiso   1.00
H476   H     0.31620   0.60778   0.42591   0.00000  Uiso   1.00
S477   S     0.21262   0.37337   0.16864   0.00000  Uiso   1.00
O478   O     0.23707   0.41492   0.17901   0.00000  Uiso   1.00
O479   O     0.24207   0.33372   0.16083   0.00000  Uiso   1.00
O480   O     0.18986   0.38217   0.12092   0.00000  Uiso   1.00
H481   H     0.16503   0.40069   0.12864   0.00000  Uiso   1.00
S482   S     0.19770   0.62772   0.33399   0.00000  Uiso   1.00
O483   O     0.21876   0.33650   0.35010   0.00000  Uiso   1.00
O484   O     0.16975   0.61054   0.37132   0.00000  Uiso   1.00
O485   O     0.23395   0.58794   0.32100   0.00000  Uiso   1.00
H486   H     0.25759   0.60559   0.30848   0.00000  Uiso   1.00
S487   S     0.12061   0.37374   0.33114   0.00000  Uiso   1.00
O488   O     0.09694   0.41669   0.32188   0.00000  Uiso   1.00
O489   O     0.09052   0.33512   0.33682   0.00000  Uiso   1.00
O490   O     0.14261   0.37970   0.37962   0.00000  Uiso   1.00
H491   H     0.16491   0.40194   0.37412   0.00000  Uiso   1.00
S492   S     0.13667   0.62879   0.16609   0.00000  Uiso   1.00
O493   O     0.11540   0.33803   0.15042   0.00000  Uiso   1.00
O494   O     0.16491   0.61138   0.12877   0.00000  Uiso   1.00
O495   O     0.10062   0.58978   0.17893   0.00000  Uiso   1.00
H496   H     0.07702   0.60836   0.19086   0.00000  Uiso   1.00
C497   C     0.42098   0.50002   0.24732   0.00000  Uiso   1.00
C498   C     0.57920   0.49980   0.25005   0.00000  Uiso   1.00
C499   C     0.42675   0.52890   0.03256   0.00000  Uiso   1.00
C500   C     0.56986   0.50505   0.47108   0.00000  Uiso   1.00
C501   C     0.35503   0.45788   0.24932   0.00000  Uiso   1.00
C502   C     0.64523   0.54116   0.24600   0.00000  Uiso   1.00
C503   C     0.64585   0.45776   0.25031   0.00000  Uiso   1.00
C504   C     0.35429   0.54113   0.24350   0.00000  Uiso   1.00
C505   C     0.62395   0.49950   0.24933   0.00000  Uiso   1.00
C506   C     0.37627   0.49970   0.24625   0.00000  Uiso   1.00
C507   C     0.51011   0.35684   0.21242   0.00000  Uiso   1.00
C508   C     0.50205   0.64333   0.28831   0.00000  Uiso   1.00
C509   C     0.49050   0.35713   0.28776   0.00000  Uiso   1.00
C510   C     0.49869   0.64334   0.21174   0.00000  Uiso   1.00
C511   C     0.50073   0.49985   0.16462   0.00000  Uiso   1.00
C512   C     0.49787   0.50027   0.33565   0.00000  Uiso   1.00
C513   C     0.53201   0.50002   0.40491   0.00000  Uiso   1.00
C514   C     0.46269   0.50334   0.09693   0.00000  Uiso   1.00
C515   C     0.49491   0.50222   0.38451   0.00000  Uiso   1.00
C516   C     0.50020   0.49950   0.11642   0.00000  Uiso   1.00
C517   C     0.45739   0.51105   0.41053   0.00000  Uiso   1.00
C518   C     0.53698   0.49789   0.09008   0.00000  Uiso   1.00
C519   C     0.45851   0.51549   0.45771   0.00000  Uiso   1.00
C520   C     0.53587   0.49634   0.04341   0.00000  Uiso   1.00
C521   C     0.49604   0.50685   0.47748   0.00000  Uiso   1.00
C522   C     0.49791   0.50476   0.02405   0.00000  Uiso   1.00
C523   C     0.53254   0.50335   0.45098   0.00000  Uiso   1.00
C524   C     0.46199   0.51126   0.05115   0.00000  Uiso   1.00
C525   C     0.42439   0.53073   0.48618   0.00000  Uiso   1.00
C526   C     0.57169   0.49197   0.01511   0.00000  Uiso   1.00
Cu527  Cu    0.50000   0.54689   0.25000   0.00000  Uiso   1.00
Cu528  Cu    0.50000   0.45311   0.25000   0.00000  Uiso   1.00
H529   H     0.37114   0.42522   0.25106   0.00000  Uiso   1.00
H530   H     0.62923   0.57387   0.24432   0.00000  Uiso   1.00
H531   H     0.63021   0.42506   0.25251   0.00000  Uiso   1.00
H532   H     0.36963   0.57385   0.24158   0.00000  Uiso   1.00
N533   N     0.50000   0.61736   0.25000   0.00000  Uiso   1.00
N534   N     0.50000   0.38264   0.25000   0.00000  Uiso   1.00
O535   O     0.43988   0.53958   0.24999   0.00000  Uiso   1.00
O536   O     0.56012   0.46042   0.25000   0.00000  Uiso   1.00
O537   O     0.56012   0.53958   0.25000   0.00000  Uiso   1.00
O538   O     0.43988   0.46042   0.24999   0.00000  Uiso   1.00
O539   O     0.49999   0.53960   0.18513   0.00000  Uiso   1.00
O540   O     0.50001   0.46040   0.31487   0.00000  Uiso   1.00
O541   O     0.50001   0.53960   0.31487   0.00000  Uiso   1.00
O542   O     0.49999   0.46040   0.18513   0.00000  Uiso   1.00
O543   O     0.56833   0.49430   0.37942   0.00000  Uiso   1.00
C544   C     0.57960   0.44703   0.37834   0.00000  Uiso   1.00
H545   H     0.56565   0.43001   0.35013   0.00000  Uiso   1.00
H546   H     0.57030   0.42812   0.40934   0.00000  Uiso   1.00
C547   C     0.62575   0.44258   0.37133   0.00000  Uiso   1.00
H548   H     0.64083   0.45895   0.39915   0.00000  Uiso   1.00
H549   H     0.63481   0.40561   0.36935   0.00000  Uiso   1.00
H550   H     0.63605   0.45973   0.34012   0.00000  Uiso   1.00
O551   O     0.42653   0.50113   0.12288   0.00000  Uiso   1.00
C552   C     0.41552   0.45433   0.12852   0.00000  Uiso   1.00
H553   H     0.42809   0.44093   0.15927   0.00000  Uiso   1.00
H554   H     0.42649   0.43156   0.10034   0.00000  Uiso   1.00
C555   C     0.36926   0.45074   0.13311   0.00000  Uiso   1.00
H556   H     0.35632   0.45815   0.10091   0.00000  Uiso   1.00
H557   H     0.36041   0.41537   0.14353   0.00000  Uiso   1.00
H558   H     0.35649   0.47583   0.15798   0.00000  Uiso   1.00
O559   O     0.41921   0.50727   0.39272   0.00000  Uiso   1.00
C560   C     0.41531   0.53565   0.35540   0.00000  Uiso   1.00
H561   H     0.42587   0.51565   0.32651   0.00000  Uiso   1.00
H562   H     0.43250   0.56845   0.35722   0.00000  Uiso   1.00
C563   C     0.37080   0.54694   0.34786   0.00000  Uiso   1.00
H564   H     0.35478   0.56348   0.37644   0.00000  Uiso   1.00
H565   H     0.36967   0.57229   0.32075   0.00000  Uiso   1.00
H566   H     0.35428   0.51527   0.33945   0.00000  Uiso   1.00
O567   O     0.57371   0.49943   0.11023   0.00000  Uiso   1.00
C568   C     0.58427   0.54601   0.11642   0.00000  Uiso   1.00
H569   H     0.56132   0.56383   0.13888   0.00000  Uiso   1.00
H570   H     0.58709   0.56500   0.08449   0.00000  Uiso   1.00
C571   C     0.62465   0.54788   0.13831   0.00000  Uiso   1.00
H572   H     0.65053   0.54063   0.11421   0.00000  Uiso   1.00
H573   H     0.62866   0.58244   0.15318   0.00000  Uiso   1.00
H574   H     0.62501   0.52132   0.16429   0.00000  Uiso   1.00
S575   S     0.38134   0.55942   0.46543   0.00000  Uiso   1.00
O576   O     0.35522   0.52382   0.44514   0.00000  Uiso   1.00
O577   O     0.35496   0.58492   0.49965   0.00000  Uiso   1.00
O578   O     0.39831   0.59871   0.42822   0.00000  Uiso   1.00
H579   H     0.41711   0.61837   0.44424   0.00000  Uiso   1.00
S580   S     0.61693   0.46255   0.02895   0.00000  Uiso   1.00
O581   O     0.60864   0.42970   0.06664   0.00000  Uiso   1.00
O582   O     0.63344   0.43550   0.48933   0.00000  Uiso   1.00
O583   O     0.65251   0.50046   0.04206   0.00000  Uiso   1.00
H584   H     0.64003   0.53101   0.03717   0.00000  Uiso   1.00
O585   O     0.39577   0.54830   0.05992   0.00000  Uiso   1.00
C586   C     0.40734   0.59366   0.07097   0.00000  Uiso   1.00
H587   H     0.41452   0.61482   0.04090   0.00000  Uiso   1.00
H588   H     0.43470   0.59292   0.09055   0.00000  Uiso   1.00
C589   C     0.37277   0.61740   0.09830   0.00000  Uiso   1.00
H590   H     0.36716   0.59906   0.13009   0.00000  Uiso   1.00
H591   H     0.38114   0.65356   0.10530   0.00000  Uiso   1.00
H592   H     0.34431   0.61768   0.08017   0.00000  Uiso   1.00
O593   O     0.60252   0.52792   0.45037   0.00000  Uiso   1.00
C594   C     0.59491   0.57612   0.45556   0.00000  Uiso   1.00
H595   H     0.60536   0.58786   0.48794   0.00000  Uiso   1.00
H596   H     0.56191   0.58586   0.45438   0.00000  Uiso   1.00
C597   C     0.61722   0.60298   0.41865   0.00000  Uiso   1.00
H598   H     0.61539   0.58469   0.38666   0.00000  Uiso   1.00
H599   H     0.60318   0.63780   0.41598   0.00000  Uiso   1.00
H600   H     0.64953   0.60778   0.42591   0.00000  Uiso   1.00
S601   S     0.54596   0.37337   0.16864   0.00000  Uiso   1.00
O602   O     0.57041   0.41492   0.17901   0.00000  Uiso   1.00
O603   O     0.57540   0.33372   0.16083   0.00000  Uiso   1.00
O604   O     0.52319   0.38217   0.12092   0.00000  Uiso   1.00
H605   H     0.49836   0.40069   0.12864   0.00000  Uiso   1.00
S606   S     0.53104   0.62772   0.33399   0.00000  Uiso   1.00
O607   O     0.55210   0.33650   0.35010   0.00000  Uiso   1.00
O608   O     0.50308   0.61054   0.37132   0.00000  Uiso   1.00
O609   O     0.56728   0.58794   0.32100   0.00000  Uiso   1.00
H610   H     0.59093   0.60559   0.30848   0.00000  Uiso   1.00
S611   S     0.45394   0.37374   0.33114   0.00000  Uiso   1.00
O612   O     0.43027   0.41669   0.32188   0.00000  Uiso   1.00
O613   O     0.42386   0.33512   0.33682   0.00000  Uiso   1.00
O614   O     0.47594   0.37970   0.37962   0.00000  Uiso   1.00
H615   H     0.49824   0.40194   0.37412   0.00000  Uiso   1.00
S616   S     0.47000   0.62879   0.16609   0.00000  Uiso   1.00
O617   O     0.44873   0.33803   0.15042   0.00000  Uiso   1.00
O618   O     0.49824   0.61138   0.12877   0.00000  Uiso   1.00
O619   O     0.43396   0.58978   0.17893   0.00000  Uiso   1.00
H620   H     0.41035   0.60836   0.19086   0.00000  Uiso   1.00
C621   C     0.75432   0.50002   0.24732   0.00000  Uiso   1.00
C622   C     0.91253   0.49980   0.25005   0.00000  Uiso   1.00
C623   C     0.76008   0.52890   0.03256   0.00000  Uiso   1.00
C624   C     0.90319   0.50505   0.47108   0.00000  Uiso   1.00
C625   C     0.68836   0.45788   0.24932   0.00000  Uiso   1.00
C626   C     0.97857   0.54116   0.24600   0.00000  Uiso   1.00
C627   C     0.97919   0.45776   0.25031   0.00000  Uiso   1.00
C628   C     0.68762   0.54113   0.24350   0.00000  Uiso   1.00
C629   C     0.95728   0.49950   0.24933   0.00000  Uiso   1.00
C630   C     0.70961   0.49970   0.24625   0.00000  Uiso   1.00
C631   C     0.84344   0.35684   0.21242   0.00000  Uiso   1.00
C632   C     0.83538   0.64333   0.28831   0.00000  Uiso   1.00
C633   C     0.82383   0.35713   0.28776   0.00000  Uiso   1.00
C634   C     0.83202   0.64334   0.21174   0.00000  Uiso   1.00
C635   C     0.83406   0.49985   0.16462   0.00000  Uiso   1.00
C636   C     0.83120   0.50027   0.33565   0.00000  Uiso   1.00
C637   C     0.86534   0.50002   0.40491   0.00000  Uiso   1.00
C638   C     0.79602   0.50334   0.09693   0.00000  Uiso   1.00
C639   C     0.82825   0.50222   0.38451   0.00000  Uiso   1.00
C640   C     0.83353   0.49950   0.11642   0.00000  Uiso   1.00
C641   C     0.79073   0.51105   0.41053   0.00000  Uiso   1.00
C642   C     0.87031   0.49789   0.09008   0.00000  Uiso   1.00
C643   C     0.79185   0.51549   0.45771   0.00000  Uiso   1.00
C644   C     0.86920   0.49634   0.04341   0.00000  Uiso   1.00
C645   C     0.82937   0.50685   0.47748   0.00000  Uiso   1.00
C646   C     0.83124   0.50476   0.02405   0.00000  Uiso   1.00
C647   C     0.86587   0.50335   0.45098   0.00000  Uiso   1.00
C648   C     0.79532   0.51126   0.05115   0.00000  Uiso   1.00
C649   C     0.75772   0.53073   0.48618   0.00000  Uiso   1.00
C650   C     0.90502   0.49197   0.01511   0.00000  Uiso   1.00
Cu651  Cu    0.83333   0.54689   0.25000   0.00000  Uiso   1.00
Cu652  Cu    0.83333   0.45311   0.25000   0.00000  Uiso   1.00
H653   H     0.70447   0.42522   0.25106   0.00000  Uiso   1.00
H654   H     0.96256   0.57387   0.24432   0.00000  Uiso   1.00
H655   H     0.96355   0.42506   0.25251   0.00000  Uiso   1.00
H656   H     0.70296   0.57385   0.24158   0.00000  Uiso   1.00
N657   N     0.83333   0.61736   0.25000   0.00000  Uiso   1.00
N658   N     0.83333   0.38264   0.25000   0.00000  Uiso   1.00
O659   O     0.77321   0.53958   0.24999   0.00000  Uiso   1.00
O660   O     0.89345   0.46042   0.25000   0.00000  Uiso   1.00
O661   O     0.89345   0.53958   0.25000   0.00000  Uiso   1.00
O662   O     0.77321   0.46042   0.24999   0.00000  Uiso   1.00
O663   O     0.83332   0.53960   0.18513   0.00000  Uiso   1.00
O664   O     0.83334   0.46040   0.31487   0.00000  Uiso   1.00
O665   O     0.83334   0.53960   0.31487   0.00000  Uiso   1.00
O666   O     0.83332   0.46040   0.18513   0.00000  Uiso   1.00
O667   O     0.90166   0.49430   0.37942   0.00000  Uiso   1.00
C668   C     0.91293   0.44703   0.37834   0.00000  Uiso   1.00
H669   H     0.89898   0.43001   0.35013   0.00000  Uiso   1.00
H670   H     0.90363   0.42812   0.40934   0.00000  Uiso   1.00
C671   C     0.95908   0.44258   0.37133   0.00000  Uiso   1.00
H672   H     0.97417   0.45895   0.39915   0.00000  Uiso   1.00
H673   H     0.96814   0.40561   0.36935   0.00000  Uiso   1.00
H674   H     0.96938   0.45973   0.34012   0.00000  Uiso   1.00
O675   O     0.75986   0.50113   0.12288   0.00000  Uiso   1.00
C676   C     0.74886   0.45433   0.12852   0.00000  Uiso   1.00
H677   H     0.76142   0.44093   0.15927   0.00000  Uiso   1.00
H678   H     0.75982   0.43156   0.10034   0.00000  Uiso   1.00
C679   C     0.70259   0.45074   0.13311   0.00000  Uiso   1.00
H680   H     0.68965   0.45815   0.10091   0.00000  Uiso   1.00
H681   H     0.69374   0.41537   0.14353   0.00000  Uiso   1.00
H682   H     0.68982   0.47583   0.15798   0.00000  Uiso   1.00
O683   O     0.75255   0.50727   0.39272   0.00000  Uiso   1.00
C684   C     0.74864   0.53565   0.35540   0.00000  Uiso   1.00
H685   H     0.75920   0.51565   0.32651   0.00000  Uiso   1.00
H686   H     0.76583   0.56845   0.35722   0.00000  Uiso   1.00
C687   C     0.70413   0.54694   0.34786   0.00000  Uiso   1.00
H688   H     0.68811   0.56348   0.37644   0.00000  Uiso   1.00
H689   H     0.70300   0.57229   0.32075   0.00000  Uiso   1.00
H690   H     0.68761   0.51527   0.33945   0.00000  Uiso   1.00
O691   O     0.90705   0.49943   0.11023   0.00000  Uiso   1.00
C692   C     0.91760   0.54601   0.11642   0.00000  Uiso   1.00
H693   H     0.89465   0.56383   0.13888   0.00000  Uiso   1.00
H694   H     0.92043   0.56500   0.08449   0.00000  Uiso   1.00
C695   C     0.95799   0.54788   0.13831   0.00000  Uiso   1.00
H696   H     0.98387   0.54063   0.11421   0.00000  Uiso   1.00
H697   H     0.96200   0.58244   0.15318   0.00000  Uiso   1.00
H698   H     0.95835   0.52132   0.16429   0.00000  Uiso   1.00
S699   S     0.71468   0.55942   0.46543   0.00000  Uiso   1.00
O700   O     0.68855   0.52382   0.44514   0.00000  Uiso   1.00
O701   O     0.68829   0.58492   0.49965   0.00000  Uiso   1.00
O702   O     0.73164   0.59871   0.42822   0.00000  Uiso   1.00
H703   H     0.75044   0.61837   0.44424   0.00000  Uiso   1.00
S704   S     0.95027   0.46255   0.02895   0.00000  Uiso   1.00
O705   O     0.94197   0.42970   0.06664   0.00000  Uiso   1.00
O706   O     0.96678   0.43550   0.48933   0.00000  Uiso   1.00
O707   O     0.98584   0.50046   0.04206   0.00000  Uiso   1.00
H708   H     0.97337   0.53101   0.03717   0.00000  Uiso   1.00
O709   O     0.72911   0.54830   0.05992   0.00000  Uiso   1.00
C710   C     0.74067   0.59366   0.07097   0.00000  Uiso   1.00
H711   H     0.74785   0.61482   0.04090   0.00000  Uiso   1.00
H712   H     0.76803   0.59292   0.09055   0.00000  Uiso   1.00
C713   C     0.70611   0.61740   0.09830   0.00000  Uiso   1.00
H714   H     0.70050   0.59906   0.13009   0.00000  Uiso   1.00
H715   H     0.71447   0.65356   0.10530   0.00000  Uiso   1.00
H716   H     0.67765   0.61768   0.08017   0.00000  Uiso   1.00
O717   O     0.93585   0.52792   0.45037   0.00000  Uiso   1.00
C718   C     0.92824   0.57612   0.45556   0.00000  Uiso   1.00
H719   H     0.93869   0.58786   0.48794   0.00000  Uiso   1.00
H720   H     0.89524   0.58586   0.45438   0.00000  Uiso   1.00
C721   C     0.95056   0.60298   0.41865   0.00000  Uiso   1.00
H722   H     0.94872   0.58469   0.38666   0.00000  Uiso   1.00
H723   H     0.93651   0.63780   0.41598   0.00000  Uiso   1.00
H724   H     0.98286   0.60778   0.42591   0.00000  Uiso   1.00
S725   S     0.87929   0.37337   0.16864   0.00000  Uiso   1.00
O726   O     0.90374   0.41492   0.17901   0.00000  Uiso   1.00
O727   O     0.90873   0.33372   0.16083   0.00000  Uiso   1.00
O728   O     0.85653   0.38217   0.12092   0.00000  Uiso   1.00
H729   H     0.83169   0.40069   0.12864   0.00000  Uiso   1.00
S730   S     0.86437   0.62772   0.33399   0.00000  Uiso   1.00
O731   O     0.88543   0.33650   0.35010   0.00000  Uiso   1.00
O732   O     0.83641   0.61054   0.37132   0.00000  Uiso   1.00
O733   O     0.90061   0.58794   0.32100   0.00000  Uiso   1.00
H734   H     0.92426   0.60559   0.30848   0.00000  Uiso   1.00
S735   S     0.78727   0.37374   0.33114   0.00000  Uiso   1.00
O736   O     0.76360   0.41669   0.32188   0.00000  Uiso   1.00
O737   O     0.75719   0.33512   0.33682   0.00000  Uiso   1.00
O738   O     0.80928   0.37970   0.37962   0.00000  Uiso   1.00
H739   H     0.83157   0.40194   0.37412   0.00000  Uiso   1.00
S740   S     0.80334   0.62879   0.16609   0.00000  Uiso   1.00
O741   O     0.78206   0.33803   0.15042   0.00000  Uiso   1.00
O742   O     0.83158   0.61138   0.12877   0.00000  Uiso   1.00
O743   O     0.76729   0.58978   0.17893   0.00000  Uiso   1.00
H744   H     0.74368   0.60836   0.19086   0.00000  Uiso   1.00
C745   C     0.08765   0.83335   0.24732   0.00000  Uiso   1.00
C746   C     0.24587   0.83313   0.25005   0.00000  Uiso   1.00
C747   C     0.09341   0.86223   0.03256   0.00000  Uiso   1.00
C748   C     0.23652   0.83838   0.47108   0.00000  Uiso   1.00
C749   C     0.02169   0.79121   0.24932   0.00000  Uiso   1.00
C750   C     0.31190   0.87450   0.24600   0.00000  Uiso   1.00
C751   C     0.31252   0.79109   0.25031   0.00000  Uiso   1.00
C752   C     0.02096   0.87446   0.24350   0.00000  Uiso   1.00
C753   C     0.29061   0.83283   0.24933   0.00000  Uiso   1.00
C754   C     0.04294   0.83304   0.24625   0.00000  Uiso   1.00
C755   C     0.17677   0.69018   0.21242   0.00000  Uiso   1.00
C756   C     0.16871   0.97666   0.28831   0.00000  Uiso   1.00
C757   C     0.15716   0.69047   0.28776   0.00000  Uiso   1.00
C758   C     0.16536   0.97667   0.21174   0.00000  Uiso   1.00
C759   C     0.16740   0.83318   0.16462   0.00000  Uiso   1.00
C760   C     0.16454   0.83360   0.33565   0.00000  Uiso   1.00
C761   C     0.19868   0.83336   0.40491   0.00000  Uiso   1.00
C762   C     0.12936   0.83667   0.09693   0.00000  Uiso   1.00
C763   C     0.16158   0.83556   0.38451   0.00000  Uiso   1.00
C764   C     0.16687   0.83283   0.11642   0.00000  Uiso   1.00
C765   C     0.12406   0.84438   0.41053   0.00000  Uiso   1.00
C766   C     0.20365   0.83122   0.09008   0.00000  Uiso   1.00
C767   C     0.12518   0.84883   0.45771   0.00000  Uiso   1.00
C768   C     0.20254   0.82968   0.04341   0.00000  Uiso   1.00
C769   C     0.16271   0.84019   0.47748   0.00000  Uiso   1.00
C770   C     0.16458   0.83809   0.02405   0.00000  Uiso   1.00
C771   C     0.19920   0.83668   0.45098   0.00000  Uiso   1.00
C772   C     0.12865   0.84460   0.05115   0.00000  Uiso   1.00
C773   C     0.09106   0.86407   0.48618   0.00000  Uiso   1.00
C774   C     0.23835   0.82531   0.01511   0.00000  Uiso   1.00
Cu775  Cu    0.16667   0.88022   0.25000   0.00000  Uiso   1.00
Cu776  Cu    0.16667   0.78645   0.25000   0.00000  Uiso   1.00
H777   H     0.03781   0.75856   0.25106   0.00000  Uiso   1.00
H778   H     0.29590   0.90720   0.24432   0.00000  Uiso   1.00
H779   H     0.29688   0.75840   0.25251   0.00000  Uiso   1.00
H780   H     0.03630   0.90718   0.24158   0.00000  Uiso   1.00
N781   N     0.16667   0.95069   0.25000   0.00000  Uiso   1.00
N782   N     0.16667   0.71598   0.25000   0.00000  Uiso   1.00
O783   O     0.10655   0.87291   0.24999   0.00000  Uiso   1.00
O784   O     0.22679   0.79375   0.25000   0.00000  Uiso   1.00
O785   O     0.22679   0.87291   0.25000   0.00000  Uiso   1.00
O786   O     0.10655   0.79375   0.24999   0.00000  Uiso   1.00
O787   O     0.16666   0.87293   0.18513   0.00000  Uiso   1.00
O788   O     0.16668   0.79373   0.31487   0.00000  Uiso   1.00
O789   O     0.16668   0.87293   0.31487   0.00000  Uiso   1.00
O790   O     0.16666   0.79373   0.18513   0.00000  Uiso   1.00
O791   O     0.23499   0.82763   0.37942   0.00000  Uiso   1.00
C792   C     0.24627   0.78037   0.37834   0.00000  Uiso   1.00
H793   H     0.23232   0.76335   0.35013   0.00000  Uiso   1.00
H794   H     0.23697   0.76146   0.40934   0.00000  Uiso   1.00
C795   C     0.29242   0.77592   0.37133   0.00000  Uiso   1.00
H796   H     0.30750   0.79228   0.39915   0.00000  Uiso   1.00
H797   H     0.30148   0.73895   0.36935   0.00000  Uiso   1.00
H798   H     0.30272   0.79306   0.34012   0.00000  Uiso   1.00
O799   O     0.09319   0.83446   0.12288   0.00000  Uiso   1.00
C800   C     0.08219   0.78766   0.12852   0.00000  Uiso   1.00
H801   H     0.09475   0.77426   0.15927   0.00000  Uiso   1.00
H802   H     0.09315   0.76489   0.10034   0.00000  Uiso   1.00
C803   C     0.03592   0.78408   0.13311   0.00000  Uiso   1.00
H804   H     0.02298   0.79149   0.10091   0.00000  Uiso   1.00
H805   H     0.02708   0.74870   0.14353   0.00000  Uiso   1.00
H806   H     0.02315   0.80916   0.15798   0.00000  Uiso   1.00
O807   O     0.08588   0.84060   0.39272   0.00000  Uiso   1.00
C808   C     0.08197   0.86898   0.35540   0.00000  Uiso   1.00
H809   H     0.09254   0.84899   0.32651   0.00000  Uiso   1.00
H810   H     0.09916   0.90178   0.35722   0.00000  Uiso   1.00
C811   C     0.03746   0.88027   0.34786   0.00000  Uiso   1.00
H812   H     0.02145   0.89682   0.37644   0.00000  Uiso   1.00
H813   H     0.03634   0.90562   0.32075   0.00000  Uiso   1.00
H814   H     0.02095   0.84861   0.33945   0.00000  Uiso   1.00
O815   O     0.24038   0.83276   0.11023   0.00000  Uiso   1.00
C816   C     0.25093   0.87935   0.11642   0.00000  Uiso   1.00
H817   H     0.22799   0.89716   0.13888   0.00000  Uiso   1.00
H818   H     0.25376   0.89833   0.08449   0.00000  Uiso   1.00
C819   C     0.29132   0.88121   0.13831   0.00000  Uiso   1.00
H820   H     0.31720   0.87397   0.11421   0.00000  Uiso   1.00
H821   H     0.29533   0.91577   0.15318   0.00000  Uiso   1.00
H822   H     0.29168   0.85465   0.16429   0.00000  Uiso   1.00
S823   S     0.04801   0.89275   0.46543   0.00000  Uiso   1.00
O824   O     0.02189   0.85716   0.44514   0.00000  Uiso   1.00
O825   O     0.02162   0.91825   0.49965   0.00000  Uiso   1.00
O826   O     0.06498   0.93204   0.42822   0.00000  Uiso   1.00
H827   H     0.08378   0.95171   0.44424   0.00000  Uiso   1.00
S828   S     0.28360   0.79588   0.02895   0.00000  Uiso   1.00
O829   O     0.27531   0.76303   0.06664   0.00000  Uiso   1.00
O830   O     0.30011   0.76883   0.48933   0.00000  Uiso   1.00
O831   O     0.31917   0.83379   0.04206   0.00000  Uiso   1.00
H832   H     0.30670   0.86435   0.03717   0.00000  Uiso   1.00
O833   O     0.06244   0.88163   0.05992   0.00000  Uiso   1.00
C834   C     0.07401   0.92699   0.07097   0.00000  Uiso   1.00
H835   H     0.08119   0.94815   0.04090   0.00000  Uiso   1.00
H836   H     0.10136   0.92625   0.09055   0.00000  Uiso   1.00
C837   C     0.03944   0.95073   0.09830   0.00000  Uiso   1.00
H838   H     0.03383   0.93240   0.13009   0.00000  Uiso   1.00
H839   H     0.04781   0.98689   0.10530   0.00000  Uiso   1.00
H840   H     0.01098   0.95101   0.08017   0.00000  Uiso   1.00
O841   O     0.26918   0.86125   0.45037   0.00000  Uiso   1.00
C842   C     0.26157   0.90945   0.45556   0.00000  Uiso   1.00
H843   H     0.27203   0.92120   0.48794   0.00000  Uiso   1.00
H844   H     0.22857   0.91919   0.45438   0.00000  Uiso   1.00
C845   C     0.28389   0.93632   0.41865   0.00000  Uiso   1.00
H846   H     0.28206   0.91802   0.38666   0.00000  Uiso   1.00
H847   H     0.26984   0.97113   0.41598   0.00000  Uiso   1.00
H848   H     0.31620   0.94111   0.42591   0.00000  Uiso   1.00
S849   S     0.21262   0.70670   0.16864   0.00000  Uiso   1.00
O850   O     0.23707   0.74825   0.17901   0.00000  Uiso   1.00
O851   O     0.24207   0.66705   0.16083   0.00000  Uiso   1.00
O852   O     0.18986   0.71551   0.12092   0.00000  Uiso   1.00
H853   H     0.16503   0.73402   0.12864   0.00000  Uiso   1.00
S854   S     0.19770   0.96106   0.33399   0.00000  Uiso   1.00
O855   O     0.21876   0.66984   0.35010   0.00000  Uiso   1.00
O856   O     0.16975   0.94387   0.37132   0.00000  Uiso   1.00
O857   O     0.23395   0.92128   0.32100   0.00000  Uiso   1.00
H858   H     0.25759   0.93892   0.30848   0.00000  Uiso   1.00
S859   S     0.12061   0.70707   0.33114   0.00000  Uiso   1.00
O860   O     0.09694   0.75002   0.32188   0.00000  Uiso   1.00
O861   O     0.09052   0.66845   0.33682   0.00000  Uiso   1.00
O862   O     0.14261   0.71304   0.37962   0.00000  Uiso   1.00
H863   H     0.16491   0.73527   0.37412   0.00000  Uiso   1.00
S864   S     0.13667   0.96212   0.16609   0.00000  Uiso   1.00
O865   O     0.11540   0.67136   0.15042   0.00000  Uiso   1.00
O866   O     0.16491   0.94471   0.12877   0.00000  Uiso   1.00
O867   O     0.10062   0.92311   0.17893   0.00000  Uiso   1.00
H868   H     0.07702   0.94169   0.19086   0.00000  Uiso   1.00
C869   C     0.42098   0.83335   0.24732   0.00000  Uiso   1.00
C870   C     0.57920   0.83313   0.25005   0.00000  Uiso   1.00
C871   C     0.42675   0.86223   0.03256   0.00000  Uiso   1.00
C872   C     0.56986   0.83838   0.47108   0.00000  Uiso   1.00
C873   C     0.35503   0.79121   0.24932   0.00000  Uiso   1.00
C874   C     0.64523   0.87450   0.24600   0.00000  Uiso   1.00
C875   C     0.64585   0.79109   0.25031   0.00000  Uiso   1.00
C876   C     0.35429   0.87446   0.24350   0.00000  Uiso   1.00
C877   C     0.62395   0.83283   0.24933   0.00000  Uiso   1.00
C878   C     0.37627   0.83304   0.24625   0.00000  Uiso   1.00
C879   C     0.51011   0.69018   0.21242   0.00000  Uiso   1.00
C880   C     0.50205   0.97666   0.28831   0.00000  Uiso   1.00
C881   C     0.49050   0.69047   0.28776   0.00000  Uiso   1.00
C882   C     0.49869   0.97667   0.21174   0.00000  Uiso   1.00
C883   C     0.50073   0.83318   0.16462   0.00000  Uiso   1.00
C884   C     0.49787   0.83360   0.33565   0.00000  Uiso   1.00
C885   C     0.53201   0.83336   0.40491   0.00000  Uiso   1.00
C886   C     0.46269   0.83667   0.09693   0.00000  Uiso   1.00
C887   C     0.49491   0.83556   0.38451   0.00000  Uiso   1.00
C888   C     0.50020   0.83283   0.11642   0.00000  Uiso   1.00
C889   C     0.45739   0.84438   0.41053   0.00000  Uiso   1.00
C890   C     0.53698   0.83122   0.09008   0.00000  Uiso   1.00
C891   C     0.45851   0.84883   0.45771   0.00000  Uiso   1.00
C892   C     0.53587   0.82968   0.04341   0.00000  Uiso   1.00
C893   C     0.49604   0.84019   0.47748   0.00000  Uiso   1.00
C894   C     0.49791   0.83809   0.02405   0.00000  Uiso   1.00
C895   C     0.53254   0.83668   0.45098   0.00000  Uiso   1.00
C896   C     0.46199   0.84460   0.05115   0.00000  Uiso   1.00
C897   C     0.42439   0.86407   0.48618   0.00000  Uiso   1.00
C898   C     0.57169   0.82531   0.01511   0.00000  Uiso   1.00
Cu899  Cu    0.50000   0.88022   0.25000   0.00000  Uiso   1.00
Cu900  Cu    0.50000   0.78645   0.25000   0.00000  Uiso   1.00
H901   H     0.37114   0.75856   0.25106   0.00000  Uiso   1.00
H902   H     0.62923   0.90720   0.24432   0.00000  Uiso   1.00
H903   H     0.63021   0.75840   0.25251   0.00000  Uiso   1.00
H904   H     0.36963   0.90718   0.24158   0.00000  Uiso   1.00
N905   N     0.50000   0.95069   0.25000   0.00000  Uiso   1.00
N906   N     0.50000   0.71598   0.25000   0.00000  Uiso   1.00
O907   O     0.43988   0.87291   0.24999   0.00000  Uiso   1.00
O908   O     0.56012   0.79375   0.25000   0.00000  Uiso   1.00
O909   O     0.56012   0.87291   0.25000   0.00000  Uiso   1.00
O910   O     0.43988   0.79375   0.24999   0.00000  Uiso   1.00
O911   O     0.49999   0.87293   0.18513   0.00000  Uiso   1.00
O912   O     0.50001   0.79373   0.31487   0.00000  Uiso   1.00
O913   O     0.50001   0.87293   0.31487   0.00000  Uiso   1.00
O914   O     0.49999   0.79373   0.18513   0.00000  Uiso   1.00
O915   O     0.56833   0.82763   0.37942   0.00000  Uiso   1.00
C916   C     0.57960   0.78037   0.37834   0.00000  Uiso   1.00
H917   H     0.56565   0.76335   0.35013   0.00000  Uiso   1.00
H918   H     0.57030   0.76146   0.40934   0.00000  Uiso   1.00
C919   C     0.62575   0.77592   0.37133   0.00000  Uiso   1.00
H920   H     0.64083   0.79228   0.39915   0.00000  Uiso   1.00
H921   H     0.63481   0.73895   0.36935   0.00000  Uiso   1.00
H922   H     0.63605   0.79306   0.34012   0.00000  Uiso   1.00
O923   O     0.42653   0.83446   0.12288   0.00000  Uiso   1.00
C924   C     0.41552   0.78766   0.12852   0.00000  Uiso   1.00
H925   H     0.42809   0.77426   0.15927   0.00000  Uiso   1.00
H926   H     0.42649   0.76489   0.10034   0.00000  Uiso   1.00
C927   C     0.36926   0.78408   0.13311   0.00000  Uiso   1.00
H928   H     0.35632   0.79149   0.10091   0.00000  Uiso   1.00
H929   H     0.36041   0.74870   0.14353   0.00000  Uiso   1.00
H930   H     0.35649   0.80916   0.15798   0.00000  Uiso   1.00
O931   O     0.41921   0.84060   0.39272   0.00000  Uiso   1.00
C932   C     0.41531   0.86898   0.35540   0.00000  Uiso   1.00
H933   H     0.42587   0.84899   0.32651   0.00000  Uiso   1.00
H934   H     0.43250   0.90178   0.35722   0.00000  Uiso   1.00
C935   C     0.37080   0.88027   0.34786   0.00000  Uiso   1.00
H936   H     0.35478   0.89682   0.37644   0.00000  Uiso   1.00
H937   H     0.36967   0.90562   0.32075   0.00000  Uiso   1.00
H938   H     0.35428   0.84861   0.33945   0.00000  Uiso   1.00
O939   O     0.57371   0.83276   0.11023   0.00000  Uiso   1.00
C940   C     0.58427   0.87935   0.11642   0.00000  Uiso   1.00
H941   H     0.56132   0.89716   0.13888   0.00000  Uiso   1.00
H942   H     0.58709   0.89833   0.08449   0.00000  Uiso   1.00
C943   C     0.62465   0.88121   0.13831   0.00000  Uiso   1.00
H944   H     0.65053   0.87397   0.11421   0.00000  Uiso   1.00
H945   H     0.62866   0.91577   0.15318   0.00000  Uiso   1.00
H946   H     0.62501   0.85465   0.16429   0.00000  Uiso   1.00
S947   S     0.38134   0.89275   0.46543   0.00000  Uiso   1.00
O948   O     0.35522   0.85716   0.44514   0.00000  Uiso   1.00
O949   O     0.35496   0.91825   0.49965   0.00000  Uiso   1.00
O950   O     0.39831   0.93204   0.42822   0.00000  Uiso   1.00
H951   H     0.41711   0.95171   0.44424   0.00000  Uiso   1.00
S952   S     0.61693   0.79588   0.02895   0.00000  Uiso   1.00
O953   O     0.60864   0.76303   0.06664   0.00000  Uiso   1.00
O954   O     0.63344   0.76883   0.48933   0.00000  Uiso   1.00
O955   O     0.65251   0.83379   0.04206   0.00000  Uiso   1.00
H956   H     0.64003   0.86435   0.03717   0.00000  Uiso   1.00
O957   O     0.39577   0.88163   0.05992   0.00000  Uiso   1.00
C958   C     0.40734   0.92699   0.07097   0.00000  Uiso   1.00
H959   H     0.41452   0.94815   0.04090   0.00000  Uiso   1.00
H960   H     0.43470   0.92625   0.09055   0.00000  Uiso   1.00
C961   C     0.37277   0.95073   0.09830   0.00000  Uiso   1.00
H962   H     0.36716   0.93240   0.13009   0.00000  Uiso   1.00
H963   H     0.38114   0.98689   0.10530   0.00000  Uiso   1.00
H964   H     0.34431   0.95101   0.08017   0.00000  Uiso   1.00
O965   O     0.60252   0.86125   0.45037   0.00000  Uiso   1.00
C966   C     0.59491   0.90945   0.45556   0.00000  Uiso   1.00
H967   H     0.60536   0.92120   0.48794   0.00000  Uiso   1.00
H968   H     0.56191   0.91919   0.45438   0.00000  Uiso   1.00
C969   C     0.61722   0.93632   0.41865   0.00000  Uiso   1.00
H970   H     0.61539   0.91802   0.38666   0.00000  Uiso   1.00
H971   H     0.60318   0.97113   0.41598   0.00000  Uiso   1.00
H972   H     0.64953   0.94111   0.42591   0.00000  Uiso   1.00
S973   S     0.54596   0.70670   0.16864   0.00000  Uiso   1.00
O974   O     0.57041   0.74825   0.17901   0.00000  Uiso   1.00
O975   O     0.57540   0.66705   0.16083   0.00000  Uiso   1.00
O976   O     0.52319   0.71551   0.12092   0.00000  Uiso   1.00
H977   H     0.49836   0.73402   0.12864   0.00000  Uiso   1.00
S978   S     0.53104   0.96106   0.33399   0.00000  Uiso   1.00
O979   O     0.55210   0.66984   0.35010   0.00000  Uiso   1.00
O980   O     0.50308   0.94387   0.37132   0.00000  Uiso   1.00
O981   O     0.56728   0.92128   0.32100   0.00000  Uiso   1.00
H982   H     0.59093   0.93892   0.30848   0.00000  Uiso   1.00
S983   S     0.45394   0.70707   0.33114   0.00000  Uiso   1.00
O984   O     0.43027   0.75002   0.32188   0.00000  Uiso   1.00
O985   O     0.42386   0.66845   0.33682   0.00000  Uiso   1.00
O986   O     0.47594   0.71304   0.37962   0.00000  Uiso   1.00
H987   H     0.49824   0.73527   0.37412   0.00000  Uiso   1.00
S988   S     0.47000   0.96212   0.16609   0.00000  Uiso   1.00
O989   O     0.44873   0.67136   0.15042   0.00000  Uiso   1.00
O990   O     0.49824   0.94471   0.12877   0.00000  Uiso   1.00
O991   O     0.43396   0.92311   0.17893   0.00000  Uiso   1.00
H992   H     0.41035   0.94169   0.19086   0.00000  Uiso   1.00
C993   C     0.75432   0.83335   0.24732   0.00000  Uiso   1.00
C994   C     0.91253   0.83313   0.25005   0.00000  Uiso   1.00
C995   C     0.76008   0.86223   0.03256   0.00000  Uiso   1.00
C996   C     0.90319   0.83838   0.47108   0.00000  Uiso   1.00
C997   C     0.68836   0.79121   0.24932   0.00000  Uiso   1.00
C998   C     0.97857   0.87450   0.24600   0.00000  Uiso   1.00
C999   C     0.97919   0.79109   0.25031   0.00000  Uiso   1.00
C1000  C     0.68762   0.87446   0.24350   0.00000  Uiso   1.00
C1001  C     0.95728   0.83283   0.24933   0.00000  Uiso   1.00
C1002  C     0.70961   0.83304   0.24625   0.00000  Uiso   1.00
C1003  C     0.84344   0.69018   0.21242   0.00000  Uiso   1.00
C1004  C     0.83538   0.97666   0.28831   0.00000  Uiso   1.00
C1005  C     0.82383   0.69047   0.28776   0.00000  Uiso   1.00
C1006  C     0.83202   0.97667   0.21174   0.00000  Uiso   1.00
C1007  C     0.83406   0.83318   0.16462   0.00000  Uiso   1.00
C1008  C     0.83120   0.83360   0.33565   0.00000  Uiso   1.00
C1009  C     0.86534   0.83336   0.40491   0.00000  Uiso   1.00
C1010  C     0.79602   0.83667   0.09693   0.00000  Uiso   1.00
C1011  C     0.82825   0.83556   0.38451   0.00000  Uiso   1.00
C1012  C     0.83353   0.83283   0.11642   0.00000  Uiso   1.00
C1013  C     0.79073   0.84438   0.41053   0.00000  Uiso   1.00
C1014  C     0.87031   0.83122   0.09008   0.00000  Uiso   1.00
C1015  C     0.79185   0.84883   0.45771   0.00000  Uiso   1.00
C1016  C     0.86920   0.82968   0.04341   0.00000  Uiso   1.00
C1017  C     0.82937   0.84019   0.47748   0.00000  Uiso   1.00
C1018  C     0.83124   0.83809   0.02405   0.00000  Uiso   1.00
C1019  C     0.86587   0.83668   0.45098   0.00000  Uiso   1.00
C1020  C     0.79532   0.84460   0.05115   0.00000  Uiso   1.00
C1021  C     0.75772   0.86407   0.48618   0.00000  Uiso   1.00
C1022  C     0.90502   0.82531   0.01511   0.00000  Uiso   1.00
Cu1023 Cu    0.83333   0.88022   0.25000   0.00000  Uiso   1.00
Cu1024 Cu    0.83333   0.78645   0.25000   0.00000  Uiso   1.00
H1025  H     0.70447   0.75856   0.25106   0.00000  Uiso   1.00
H1026  H     0.96256   0.90720   0.24432   0.00000  Uiso   1.00
H1027  H     0.96355   0.75840   0.25251   0.00000  Uiso   1.00
H1028  H     0.70296   0.90718   0.24158   0.00000  Uiso   1.00
N1029  N     0.83333   0.95069   0.25000   0.00000  Uiso   1.00
N1030  N     0.83333   0.71598   0.25000   0.00000  Uiso   1.00
O1031  O     0.77321   0.87291   0.24999   0.00000  Uiso   1.00
O1032  O     0.89345   0.79375   0.25000   0.00000  Uiso   1.00
O1033  O     0.89345   0.87291   0.25000   0.00000  Uiso   1.00
O1034  O     0.77321   0.79375   0.24999   0.00000  Uiso   1.00
O1035  O     0.83332   0.87293   0.18513   0.00000  Uiso   1.00
O1036  O     0.83334   0.79373   0.31487   0.00000  Uiso   1.00
O1037  O     0.83334   0.87293   0.31487   0.00000  Uiso   1.00
O1038  O     0.83332   0.79373   0.18513   0.00000  Uiso   1.00
O1039  O     0.90166   0.82763   0.37942   0.00000  Uiso   1.00
C1040  C     0.91293   0.78037   0.37834   0.00000  Uiso   1.00
H1041  H     0.89898   0.76335   0.35013   0.00000  Uiso   1.00
H1042  H     0.90363   0.76146   0.40934   0.00000  Uiso   1.00
C1043  C     0.95908   0.77592   0.37133   0.00000  Uiso   1.00
H1044  H     0.97417   0.79228   0.39915   0.00000  Uiso   1.00
H1045  H     0.96814   0.73895   0.36935   0.00000  Uiso   1.00
H1046  H     0.96938   0.79306   0.34012   0.00000  Uiso   1.00
O1047  O     0.75986   0.83446   0.12288   0.00000  Uiso   1.00
C1048  C     0.74886   0.78766   0.12852   0.00000  Uiso   1.00
H1049  H     0.76142   0.77426   0.15927   0.00000  Uiso   1.00
H1050  H     0.75982   0.76489   0.10034   0.00000  Uiso   1.00
C1051  C     0.70259   0.78408   0.13311   0.00000  Uiso   1.00
H1052  H     0.68965   0.79149   0.10091   0.00000  Uiso   1.00
H1053  H     0.69374   0.74870   0.14353   0.00000  Uiso   1.00
H1054  H     0.68982   0.80916   0.15798   0.00000  Uiso   1.00
O1055  O     0.75255   0.84060   0.39272   0.00000  Uiso   1.00
C1056  C     0.74864   0.86898   0.35540   0.00000  Uiso   1.00
H1057  H     0.75920   0.84899   0.32651   0.00000  Uiso   1.00
H1058  H     0.76583   0.90178   0.35722   0.00000  Uiso   1.00
C1059  C     0.70413   0.88027   0.34786   0.00000  Uiso   1.00
H1060  H     0.68811   0.89682   0.37644   0.00000  Uiso   1.00
H1061  H     0.70300   0.90562   0.32075   0.00000  Uiso   1.00
H1062  H     0.68761   0.84861   0.33945   0.00000  Uiso   1.00
O1063  O     0.90705   0.83276   0.11023   0.00000  Uiso   1.00
C1064  C     0.91760   0.87935   0.11642   0.00000  Uiso   1.00
H1065  H     0.89465   0.89716   0.13888   0.00000  Uiso   1.00
H1066  H     0.92043   0.89833   0.08449   0.00000  Uiso   1.00
C1067  C     0.95799   0.88121   0.13831   0.00000  Uiso   1.00
H1068  H     0.98387   0.87397   0.11421   0.00000  Uiso   1.00
H1069  H     0.96200   0.91577   0.15318   0.00000  Uiso   1.00
H1070  H     0.95835   0.85465   0.16429   0.00000  Uiso   1.00
S1071  S     0.71468   0.89275   0.46543   0.00000  Uiso   1.00
O1072  O     0.68855   0.85716   0.44514   0.00000  Uiso   1.00
O1073  O     0.68829   0.91825   0.49965   0.00000  Uiso   1.00
O1074  O     0.73164   0.93204   0.42822   0.00000  Uiso   1.00
H1075  H     0.75044   0.95171   0.44424   0.00000  Uiso   1.00
S1076  S     0.95027   0.79588   0.02895   0.00000  Uiso   1.00
O1077  O     0.94197   0.76303   0.06664   0.00000  Uiso   1.00
O1078  O     0.96678   0.76883   0.48933   0.00000  Uiso   1.00
O1079  O     0.98584   0.83379   0.04206   0.00000  Uiso   1.00
H1080  H     0.97337   0.86435   0.03717   0.00000  Uiso   1.00
O1081  O     0.72911   0.88163   0.05992   0.00000  Uiso   1.00
C1082  C     0.74067   0.92699   0.07097   0.00000  Uiso   1.00
H1083  H     0.74785   0.94815   0.04090   0.00000  Uiso   1.00
H1084  H     0.76803   0.92625   0.09055   0.00000  Uiso   1.00
C1085  C     0.70611   0.95073   0.09830   0.00000  Uiso   1.00
H1086  H     0.70050   0.93240   0.13009   0.00000  Uiso   1.00
H1087  H     0.71447   0.98689   0.10530   0.00000  Uiso   1.00
H1088  H     0.67765   0.95101   0.08017   0.00000  Uiso   1.00
O1089  O     0.93585   0.86125   0.45037   0.00000  Uiso   1.00
C1090  C     0.92824   0.90945   0.45556   0.00000  Uiso   1.00
H1091  H     0.93869   0.92120   0.48794   0.00000  Uiso   1.00
H1092  H     0.89524   0.91919   0.45438   0.00000  Uiso   1.00
C1093  C     0.95056   0.93632   0.41865   0.00000  Uiso   1.00
H1094  H     0.94872   0.91802   0.38666   0.00000  Uiso   1.00
H1095  H     0.93651   0.97113   0.41598   0.00000  Uiso   1.00
H1096  H     0.98286   0.94111   0.42591   0.00000  Uiso   1.00
S1097  S     0.87929   0.70670   0.16864   0.00000  Uiso   1.00
O1098  O     0.90374   0.74825   0.17901   0.00000  Uiso   1.00
O1099  O     0.90873   0.66705   0.16083   0.00000  Uiso   1.00
O1100  O     0.85653   0.71551   0.12092   0.00000  Uiso   1.00
H1101  H     0.83169   0.73402   0.12864   0.00000  Uiso   1.00
S1102  S     0.86437   0.96106   0.33399   0.00000  Uiso   1.00
O1103  O     0.88543   0.66984   0.35010   0.00000  Uiso   1.00
O1104  O     0.83641   0.94387   0.37132   0.00000  Uiso   1.00
O1105  O     0.90061   0.92128   0.32100   0.00000  Uiso   1.00
H1106  H     0.92426   0.93892   0.30848   0.00000  Uiso   1.00
S1107  S     0.78727   0.70707   0.33114   0.00000  Uiso   1.00
O1108  O     0.76360   0.75002   0.32188   0.00000  Uiso   1.00
O1109  O     0.75719   0.66845   0.33682   0.00000  Uiso   1.00
O1110  O     0.80928   0.71304   0.37962   0.00000  Uiso   1.00
H1111  H     0.83157   0.73527   0.37412   0.00000  Uiso   1.00
S1112  S     0.80334   0.96212   0.16609   0.00000  Uiso   1.00
O1113  O     0.78206   0.67136   0.15042   0.00000  Uiso   1.00
O1114  O     0.83158   0.94471   0.12877   0.00000  Uiso   1.00
O1115  O     0.76729   0.92311   0.17893   0.00000  Uiso   1.00
H1116  H     0.74368   0.94169   0.19086   0.00000  Uiso   1.00
C1117  C     0.08765   0.16669   0.74732   0.00000  Uiso   1.00
C1118  C     0.24587   0.16647   0.75005   0.00000  Uiso   1.00
C1119  C     0.09341   0.19556   0.53256   0.00000  Uiso   1.00
C1120  C     0.23652   0.17172   0.97108   0.00000  Uiso   1.00
C1121  C     0.02169   0.12455   0.74932   0.00000  Uiso   1.00
C1122  C     0.31190   0.20783   0.74600   0.00000  Uiso   1.00
C1123  C     0.31252   0.12442   0.75031   0.00000  Uiso   1.00
C1124  C     0.02096   0.20780   0.74350   0.00000  Uiso   1.00
C1125  C     0.29061   0.16617   0.74933   0.00000  Uiso   1.00
C1126  C     0.04294   0.16637   0.74625   0.00000  Uiso   1.00
C1127  C     0.17677   0.02351   0.71242   0.00000  Uiso   1.00
C1128  C     0.16871   0.31000   0.78831   0.00000  Uiso   1.00
C1129  C     0.15716   0.02380   0.78776   0.00000  Uiso   1.00
C1130  C     0.16536   0.31000   0.71174   0.00000  Uiso   1.00
C1131  C     0.16740   0.16652   0.66462   0.00000  Uiso   1.00
C1132  C     0.16454   0.16694   0.83565   0.00000  Uiso   1.00
C1133  C     0.19868   0.16669   0.90491   0.00000  Uiso   1.00
C1134  C     0.12936   0.17000   0.59693   0.00000  Uiso   1.00
C1135  C     0.16158   0.16889   0.88451   0.00000  Uiso   1.00
C1136  C     0.16687   0.16617   0.61642   0.00000  Uiso   1.00
C1137  C     0.12406   0.17771   0.91053   0.00000  Uiso   1.00
C1138  C     0.20365   0.16455   0.59008   0.00000  Uiso   1.00
C1139  C     0.12518   0.18216   0.95771   0.00000  Uiso   1.00
C1140  C     0.20254   0.16301   0.54341   0.00000  Uiso   1.00
C1141  C     0.16271   0.17352   0.97748   0.00000  Uiso   1.00
C1142  C     0.16458   0.17142   0.52405   0.00000  Uiso   1.00
C1143  C     0.19920   0.17001   0.95098   0.00000  Uiso   1.00
C1144  C     0.12865   0.17793   0.55115   0.00000  Uiso   1.00
C1145  C     0.09106   0.19740   0.98618   0.00000  Uiso   1.00
C1146  C     0.23835   0.15864   0.51511   0.00000  Uiso   1.00
Cu1147 Cu    0.16667   0.21355   0.75000   0.00000  Uiso   1.00
Cu1148 Cu    0.16667   0.11978   0.75000   0.00000  Uiso   1.00
H1149  H     0.03781   0.09189   0.75106   0.00000  Uiso   1.00
H1150  H     0.29590   0.24054   0.74432   0.00000  Uiso   1.00
H1151  H     0.29688   0.09173   0.75251   0.00000  Uiso   1.00
H1152  H     0.03630   0.24051   0.74158   0.00000  Uiso   1.00
N1153  N     0.16667   0.28402   0.75000   0.00000  Uiso   1.00
N1154  N     0.16667   0.04931   0.75000   0.00000  Uiso   1.00
O1155  O     0.10655   0.20625   0.74999   0.00000  Uiso   1.00
O1156  O     0.22679   0.12709   0.75000   0.00000  Uiso   1.00
O1157  O     0.22679   0.20625   0.75000   0.00000  Uiso   1.00
O1158  O     0.10655   0.12709   0.74999   0.00000  Uiso   1.00
O1159  O     0.16666   0.20627   0.68513   0.00000  Uiso   1.00
O1160  O     0.16668   0.12707   0.81487   0.00000  Uiso   1.00
O1161  O     0.16668   0.20627   0.81487   0.00000  Uiso   1.00
O1162  O     0.16666   0.12707   0.68513   0.00000  Uiso   1.00
O1163  O     0.23499   0.16097   0.87942   0.00000  Uiso   1.00
C1164  C     0.24627   0.11370   0.87834   0.00000  Uiso   1.00
H1165  H     0.23232   0.09668   0.85013   0.00000  Uiso   1.00
H1166  H     0.23697   0.09479   0.90934   0.00000  Uiso   1.00
C1167  C     0.29242   0.10925   0.87133   0.00000  Uiso   1.00
H1168  H     0.30750   0.12561   0.89915   0.00000  Uiso   1.00
H1169  H     0.30148   0.07228   0.86935   0.00000  Uiso   1.00
H1170  H     0.30272   0.12640   0.84012   0.00000  Uiso   1.00
O1171  O     0.09319   0.16780   0.62288   0.00000  Uiso   1.00
C1172  C     0.08219   0.12099   0.62852   0.00000  Uiso   1.00
H1173  H     0.09475   0.10760   0.65927   0.00000  Uiso   1.00
H1174  H     0.09315   0.09822   0.60034   0.00000  Uiso   1.00
C1175  C     0.03592   0.11741   0.63311   0.00000  Uiso   1.00
H1176  H     0.02298   0.12482   0.60091   0.00000  Uiso   1.00
H1177  H     0.02708   0.08204   0.64353   0.00000  Uiso   1.00
H1178  H     0.02315   0.14250   0.65798   0.00000  Uiso   1.00
O1179  O     0.08588   0.17394   0.89272   0.00000  Uiso   1.00
C1180  C     0.08197   0.20232   0.85540   0.00000  Uiso   1.00
H1181  H     0.09254   0.18232   0.82651   0.00000  Uiso   1.00
H1182  H     0.09916   0.23511   0.85722   0.00000  Uiso   1.00
C1183  C     0.03746   0.21360   0.84786   0.00000  Uiso   1.00
H1184  H     0.02145   0.23015   0.87644   0.00000  Uiso   1.00
H1185  H     0.03634   0.23895   0.82075   0.00000  Uiso   1.00
H1186  H     0.02095   0.18194   0.83945   0.00000  Uiso   1.00
O1187  O     0.24038   0.16610   0.61023   0.00000  Uiso   1.00
C1188  C     0.25093   0.21268   0.61642   0.00000  Uiso   1.00
H1189  H     0.22799   0.23050   0.63888   0.00000  Uiso   1.00
H1190  H     0.25376   0.23167   0.58449   0.00000  Uiso   1.00
C1191  C     0.29132   0.21454   0.63831   0.00000  Uiso   1.00
H1192  H     0.31720   0.20730   0.61421   0.00000  Uiso   1.00
H1193  H     0.29533   0.24910   0.65318   0.00000  Uiso   1.00
H1194  H     0.29168   0.18798   0.66429   0.00000  Uiso   1.00
S1195  S     0.04801   0.22609   0.96543   0.00000  Uiso   1.00
O1196  O     0.02189   0.19049   0.94514   0.00000  Uiso   1.00
O1197  O     0.02162   0.25158   0.99965   0.00000  Uiso   1.00
O1198  O     0.06498   0.26537   0.92822   0.00000  Uiso   1.00
H1199  H     0.08378   0.28504   0.94424   0.00000  Uiso   1.00
S1200  S     0.28360   0.12921   0.52895   0.00000  Uiso   1.00
O1201  O     0.27531   0.09636   0.56664   0.00000  Uiso   1.00
O1202  O     0.30011   0.10217   0.98933   0.00000  Uiso   1.00
O1203  O     0.31917   0.16712   0.54206   0.00000  Uiso   1.00
H1204  H     0.30670   0.19768   0.53717   0.00000  Uiso   1.00
O1205  O     0.06244   0.21496   0.55992   0.00000  Uiso   1.00
C1206  C     0.07401   0.26033   0.57097   0.00000  Uiso   1.00
H1207  H     0.08119   0.28149   0.54090   0.00000  Uiso   1.00
H1208  H     0.10136   0.25958   0.59055   0.00000  Uiso   1.00
C1209  C     0.03944   0.28406   0.59830   0.00000  Uiso   1.00
H1210  H     0.03383   0.26573   0.63009   0.00000  Uiso   1.00
H1211  H     0.04781   0.32022   0.60530   0.00000  Uiso   1.00
H1212  H     0.01098   0.28435   0.58017   0.00000  Uiso   1.00
O1213  O     0.26918   0.19458   0.95037   0.00000  Uiso   1.00
C1214  C     0.26157   0.24279   0.95556   0.00000  Uiso   1.00
H1215  H     0.27203   0.25453   0.98794   0.00000  Uiso   1.00
H1216  H     0.22857   0.25253   0.95438   0.00000  Uiso   1.00
C1217  C     0.28389   0.26965   0.91865   0.00000  Uiso   1.00
H1218  H     0.28206   0.25136   0.88666   0.00000  Uiso   1.00
H1219  H     0.26984   0.30446   0.91598   0.00000  Uiso   1.00
H1220  H     0.31620   0.27444   0.92591   0.00000  Uiso   1.00
S1221  S     0.21262   0.04004   0.66864   0.00000  Uiso   1.00
O1222  O     0.23707   0.08159   0.67901   0.00000  Uiso   1.00
O1223  O     0.24207   0.00038   0.66083   0.00000  Uiso   1.00
O1224  O     0.18986   0.04884   0.62092   0.00000  Uiso   1.00
H1225  H     0.16503   0.06735   0.62864   0.00000  Uiso   1.00
S1226  S     0.19770   0.29439   0.83399   0.00000  Uiso   1.00
O1227  O     0.21876   0.00317   0.85010   0.00000  Uiso   1.00
O1228  O     0.16975   0.27720   0.87132   0.00000  Uiso   1.00
O1229  O     0.23395   0.25461   0.82100   0.00000  Uiso   1.00
H1230  H     0.25759   0.27225   0.80848   0.00000  Uiso   1.00
S1231  S     0.12061   0.04040   0.83114   0.00000  Uiso   1.00
O1232  O     0.09694   0.08336   0.82188   0.00000  Uiso   1.00
O1233  O     0.09052   0.00178   0.83682   0.00000  Uiso   1.00
O1234  O     0.14261   0.04637   0.87962   0.00000  Uiso   1.00
H1235  H     0.16491   0.06860   0.87412   0.00000  Uiso   1.00
S1236  S     0.13667   0.29545   0.66609   0.00000  Uiso   1.00
O1237  O     0.11540   0.00470   0.65042   0.00000  Uiso   1.00
O1238  O     0.16491   0.27804   0.62877   0.00000  Uiso   1.00
O1239  O     0.10062   0.25644   0.67893   0.00000  Uiso   1.00
H1240  H     0.07702   0.27502   0.69086   0.00000  Uiso   1.00
C1241  C     0.42098   0.16669   0.74732   0.00000  Uiso   1.00
C1242  C     0.57920   0.16647   0.75005   0.00000  Uiso   1.00
C1243  C     0.42675   0.19556   0.53256   0.00000  Uiso   1.00
C1244  C     0.56986   0.17172   0.97108   0.00000  Uiso   1.00
C1245  C     0.35503   0.12455   0.74932   0.00000  Uiso   1.00
C1246  C     0.64523   0.20783   0.74600   0.00000  Uiso   1.00
C1247  C     0.64585   0.12442   0.75031   0.00000  Uiso   1.00
C1248  C     0.35429   0.20780   0.74350   0.00000  Uiso   1.00
C1249  C     0.62395   0.16617   0.74933   0.00000  Uiso   1.00
C1250  C     0.37627   0.16637   0.74625   0.00000  Uiso   1.00
C1251  C     0.51011   0.02351   0.71242   0.00000  Uiso   1.00
C1252  C     0.50205   0.31000   0.78831   0.00000  Uiso   1.00
C1253  C     0.49050   0.02380   0.78776   0.00000  Uiso   1.00
C1254  C     0.49869   0.31000   0.71174   0.00000  Uiso   1.00
C1255  C     0.50073   0.16652   0.66462   0.00000  Uiso   1.00
C1256  C     0.49787   0.16694   0.83565   0.00000  Uiso   1.00
C1257  C     0.53201   0.16669   0.90491   0.00000  Uiso   1.00
C1258  C     0.46269   0.17000   0.59693   0.00000  Uiso   1.00
C1259  C     0.49491   0.16889   0.88451   0.00000  Uiso   1.00
C1260  C     0.50020   0.16617   0.61642   0.00000  Uiso   1.00
C1261  C     0.45739   0.17771   0.91053   0.00000  Uiso   1.00
C1262  C     0.53698   0.16455   0.59008   0.00000  Uiso   1.00
C1263  C     0.45851   0.18216   0.95771   0.00000  Uiso   1.00
C1264  C     0.53587   0.16301   0.54341   0.00000  Uiso   1.00
C1265  C     0.49604   0.17352   0.97748   0.00000  Uiso   1.00
C1266  C     0.49791   0.17142   0.52405   0.00000  Uiso   1.00
C1267  C     0.53254   0.17001   0.95098   0.00000  Uiso   1.00
C1268  C     0.46199   0.17793   0.55115   0.00000  Uiso   1.00
C1269  C     0.42439   0.19740   0.98618   0.00000  Uiso   1.00
C1270  C     0.57169   0.15864   0.51511   0.00000  Uiso   1.00
Cu1271 Cu    0.50000   0.21355   0.75000   0.00000  Uiso   1.00
Cu1272 Cu    0.50000   0.11978   0.75000   0.00000  Uiso   1.00
H1273  H     0.37114   0.09189   0.75106   0.00000  Uiso   1.00
H1274  H     0.62923   0.24054   0.74432   0.00000  Uiso   1.00
H1275  H     0.63021   0.09173   0.75251   0.00000  Uiso   1.00
H1276  H     0.36963   0.24051   0.74158   0.00000  Uiso   1.00
N1277  N     0.50000   0.28402   0.75000   0.00000  Uiso   1.00
N1278  N     0.50000   0.04931   0.75000   0.00000  Uiso   1.00
O1279  O     0.43988   0.20625   0.74999   0.00000  Uiso   1.00
O1280  O     0.56012   0.12709   0.75000   0.00000  Uiso   1.00
O1281  O     0.56012   0.20625   0.75000   0.00000  Uiso   1.00
O1282  O     0.43988   0.12709   0.74999   0.00000  Uiso   1.00
O1283  O     0.49999   0.20627   0.68513   0.00000  Uiso   1.00
O1284  O     0.50001   0.12707   0.81487   0.00000  Uiso   1.00
O1285  O     0.50001   0.20627   0.81487   0.00000  Uiso   1.00
O1286  O     0.49999   0.12707   0.68513   0.00000  Uiso   1.00
O1287  O     0.56833   0.16097   0.87942   0.00000  Uiso   1.00
C1288  C     0.57960   0.11370   0.87834   0.00000  Uiso   1.00
H1289  H     0.56565   0.09668   0.85013   0.00000  Uiso   1.00
H1290  H     0.57030   0.09479   0.90934   0.00000  Uiso   1.00
C1291  C     0.62575   0.10925   0.87133   0.00000  Uiso   1.00
H1292  H     0.64083   0.12561   0.89915   0.00000  Uiso   1.00
H1293  H     0.63481   0.07228   0.86935   0.00000  Uiso   1.00
H1294  H     0.63605   0.12640   0.84012   0.00000  Uiso   1.00
O1295  O     0.42653   0.16780   0.62288   0.00000  Uiso   1.00
C1296  C     0.41552   0.12099   0.62852   0.00000  Uiso   1.00
H1297  H     0.42809   0.10760   0.65927   0.00000  Uiso   1.00
H1298  H     0.42649   0.09822   0.60034   0.00000  Uiso   1.00
C1299  C     0.36926   0.11741   0.63311   0.00000  Uiso   1.00
H1300  H     0.35632   0.12482   0.60091   0.00000  Uiso   1.00
H1301  H     0.36041   0.08204   0.64353   0.00000  Uiso   1.00
H1302  H     0.35649   0.14250   0.65798   0.00000  Uiso   1.00
O1303  O     0.41921   0.17394   0.89272   0.00000  Uiso   1.00
C1304  C     0.41531   0.20232   0.85540   0.00000  Uiso   1.00
H1305  H     0.42587   0.18232   0.82651   0.00000  Uiso   1.00
H1306  H     0.43250   0.23511   0.85722   0.00000  Uiso   1.00
C1307  C     0.37080   0.21360   0.84786   0.00000  Uiso   1.00
H1308  H     0.35478   0.23015   0.87644   0.00000  Uiso   1.00
H1309  H     0.36967   0.23895   0.82075   0.00000  Uiso   1.00
H1310  H     0.35428   0.18194   0.83945   0.00000  Uiso   1.00
O1311  O     0.57371   0.16610   0.61023   0.00000  Uiso   1.00
C1312  C     0.58427   0.21268   0.61642   0.00000  Uiso   1.00
H1313  H     0.56132   0.23050   0.63888   0.00000  Uiso   1.00
H1314  H     0.58709   0.23167   0.58449   0.00000  Uiso   1.00
C1315  C     0.62465   0.21454   0.63831   0.00000  Uiso   1.00
H1316  H     0.65053   0.20730   0.61421   0.00000  Uiso   1.00
H1317  H     0.62866   0.24910   0.65318   0.00000  Uiso   1.00
H1318  H     0.62501   0.18798   0.66429   0.00000  Uiso   1.00
S1319  S     0.38134   0.22609   0.96543   0.00000  Uiso   1.00
O1320  O     0.35522   0.19049   0.94514   0.00000  Uiso   1.00
O1321  O     0.35496   0.25158   0.99965   0.00000  Uiso   1.00
O1322  O     0.39831   0.26537   0.92822   0.00000  Uiso   1.00
H1323  H     0.41711   0.28504   0.94424   0.00000  Uiso   1.00
S1324  S     0.61693   0.12921   0.52895   0.00000  Uiso   1.00
O1325  O     0.60864   0.09636   0.56664   0.00000  Uiso   1.00
O1326  O     0.63344   0.10217   0.98933   0.00000  Uiso   1.00
O1327  O     0.65251   0.16712   0.54206   0.00000  Uiso   1.00
H1328  H     0.64003   0.19768   0.53717   0.00000  Uiso   1.00
O1329  O     0.39577   0.21496   0.55992   0.00000  Uiso   1.00
C1330  C     0.40734   0.26033   0.57097   0.00000  Uiso   1.00
H1331  H     0.41452   0.28149   0.54090   0.00000  Uiso   1.00
H1332  H     0.43470   0.25958   0.59055   0.00000  Uiso   1.00
C1333  C     0.37277   0.28406   0.59830   0.00000  Uiso   1.00
H1334  H     0.36716   0.26573   0.63009   0.00000  Uiso   1.00
H1335  H     0.38114   0.32022   0.60530   0.00000  Uiso   1.00
H1336  H     0.34431   0.28435   0.58017   0.00000  Uiso   1.00
O1337  O     0.60252   0.19458   0.95037   0.00000  Uiso   1.00
C1338  C     0.59491   0.24279   0.95556   0.00000  Uiso   1.00
H1339  H     0.60536   0.25453   0.98794   0.00000  Uiso   1.00
H1340  H     0.56191   0.25253   0.95438   0.00000  Uiso   1.00
C1341  C     0.61722   0.26965   0.91865   0.00000  Uiso   1.00
H1342  H     0.61539   0.25136   0.88666   0.00000  Uiso   1.00
H1343  H     0.60318   0.30446   0.91598   0.00000  Uiso   1.00
H1344  H     0.64953   0.27444   0.92591   0.00000  Uiso   1.00
S1345  S     0.54596   0.04004   0.66864   0.00000  Uiso   1.00
O1346  O     0.57041   0.08159   0.67901   0.00000  Uiso   1.00
O1347  O     0.57540   0.00038   0.66083   0.00000  Uiso   1.00
O1348  O     0.52319   0.04884   0.62092   0.00000  Uiso   1.00
H1349  H     0.49836   0.06735   0.62864   0.00000  Uiso   1.00
S1350  S     0.53104   0.29439   0.83399   0.00000  Uiso   1.00
O1351  O     0.55210   0.00317   0.85010   0.00000  Uiso   1.00
O1352  O     0.50308   0.27720   0.87132   0.00000  Uiso   1.00
O1353  O     0.56728   0.25461   0.82100   0.00000  Uiso   1.00
H1354  H     0.59093   0.27225   0.80848   0.00000  Uiso   1.00
S1355  S     0.45394   0.04040   0.83114   0.00000  Uiso   1.00
O1356  O     0.43027   0.08336   0.82188   0.00000  Uiso   1.00
O1357  O     0.42386   0.00178   0.83682   0.00000  Uiso   1.00
O1358  O     0.47594   0.04637   0.87962   0.00000  Uiso   1.00
H1359  H     0.49824   0.06860   0.87412   0.00000  Uiso   1.00
S1360  S     0.47000   0.29545   0.66609   0.00000  Uiso   1.00
O1361  O     0.44873   0.00470   0.65042   0.00000  Uiso   1.00
O1362  O     0.49824   0.27804   0.62877   0.00000  Uiso   1.00
O1363  O     0.43396   0.25644   0.67893   0.00000  Uiso   1.00
H1364  H     0.41035   0.27502   0.69086   0.00000  Uiso   1.00
C1365  C     0.75432   0.16669   0.74732   0.00000  Uiso   1.00
C1366  C     0.91253   0.16647   0.75005   0.00000  Uiso   1.00
C1367  C     0.76008   0.19556   0.53256   0.00000  Uiso   1.00
C1368  C     0.90319   0.17172   0.97108   0.00000  Uiso   1.00
C1369  C     0.68836   0.12455   0.74932   0.00000  Uiso   1.00
C1370  C     0.97857   0.20783   0.74600   0.00000  Uiso   1.00
C1371  C     0.97919   0.12442   0.75031   0.00000  Uiso   1.00
C1372  C     0.68762   0.20780   0.74350   0.00000  Uiso   1.00
C1373  C     0.95728   0.16617   0.74933   0.00000  Uiso   1.00
C1374  C     0.70961   0.16637   0.74625   0.00000  Uiso   1.00
C1375  C     0.84344   0.02351   0.71242   0.00000  Uiso   1.00
C1376  C     0.83538   0.31000   0.78831   0.00000  Uiso   1.00
C1377  C     0.82383   0.02380   0.78776   0.00000  Uiso   1.00
C1378  C     0.83202   0.31000   0.71174   0.00000  Uiso   1.00
C1379  C     0.83406   0.16652   0.66462   0.00000  Uiso   1.00
C1380  C     0.83120   0.16694   0.83565   0.00000  Uiso   1.00
C1381  C     0.86534   0.16669   0.90491   0.00000  Uiso   1.00
C1382  C     0.79602   0.17000   0.59693   0.00000  Uiso   1.00
C1383  C     0.82825   0.16889   0.88451   0.00000  Uiso   1.00
C1384  C     0.83353   0.16617   0.61642   0.00000  Uiso   1.00
C1385  C     0.79073   0.17771   0.91053   0.00000  Uiso   1.00
C1386  C     0.87031   0.16455   0.59008   0.00000  Uiso   1.00
C1387  C     0.79185   0.18216   0.95771   0.00000  Uiso   1.00
C1388  C     0.86920   0.16301   0.54341   0.00000  Uiso   1.00
C1389  C     0.82937   0.17352   0.97748   0.00000  Uiso   1.00
C1390  C     0.83124   0.17142   0.52405   0.00000  Uiso   1.00
C1391  C     0.86587   0.17001   0.95098   0.00000  Uiso   1.00
C1392  C     0.79532   0.17793   0.55115   0.00000  Uiso   1.00
C1393  C     0.75772   0.19740   0.98618   0.00000  Uiso   1.00
C1394  C     0.90502   0.15864   0.51511   0.00000  Uiso   1.00
Cu1395 Cu    0.83333   0.21355   0.75000   0.00000  Uiso   1.00
Cu1396 Cu    0.83333   0.11978   0.75000   0.00000  Uiso   1.00
H1397  H     0.70447   0.09189   0.75106   0.00000  Uiso   1.00
H1398  H     0.96256   0.24054   0.74432   0.00000  Uiso   1.00
H1399  H     0.96355   0.09173   0.75251   0.00000  Uiso   1.00
H1400  H     0.70296   0.24051   0.74158   0.00000  Uiso   1.00
N1401  N     0.83333   0.28402   0.75000   0.00000  Uiso   1.00
N1402  N     0.83333   0.04931   0.75000   0.00000  Uiso   1.00
O1403  O     0.77321   0.20625   0.74999   0.00000  Uiso   1.00
O1404  O     0.89345   0.12709   0.75000   0.00000  Uiso   1.00
O1405  O     0.89345   0.20625   0.75000   0.00000  Uiso   1.00
O1406  O     0.77321   0.12709   0.74999   0.00000  Uiso   1.00
O1407  O     0.83332   0.20627   0.68513   0.00000  Uiso   1.00
O1408  O     0.83334   0.12707   0.81487   0.00000  Uiso   1.00
O1409  O     0.83334   0.20627   0.81487   0.00000  Uiso   1.00
O1410  O     0.83332   0.12707   0.68513   0.00000  Uiso   1.00
O1411  O     0.90166   0.16097   0.87942   0.00000  Uiso   1.00
C1412  C     0.91293   0.11370   0.87834   0.00000  Uiso   1.00
H1413  H     0.89898   0.09668   0.85013   0.00000  Uiso   1.00
H1414  H     0.90363   0.09479   0.90934   0.00000  Uiso   1.00
C1415  C     0.95908   0.10925   0.87133   0.00000  Uiso   1.00
H1416  H     0.97417   0.12561   0.89915   0.00000  Uiso   1.00
H1417  H     0.96814   0.07228   0.86935   0.00000  Uiso   1.00
H1418  H     0.96938   0.12640   0.84012   0.00000  Uiso   1.00
O1419  O     0.75986   0.16780   0.62288   0.00000  Uiso   1.00
C1420  C     0.74886   0.12099   0.62852   0.00000  Uiso   1.00
H1421  H     0.76142   0.10760   0.65927   0.00000  Uiso   1.00
H1422  H     0.75982   0.09822   0.60034   0.00000  Uiso   1.00
C1423  C     0.70259   0.11741   0.63311   0.00000  Uiso   1.00
H1424  H     0.68965   0.12482   0.60091   0.00000  Uiso   1.00
H1425  H     0.69374   0.08204   0.64353   0.00000  Uiso   1.00
H1426  H     0.68982   0.14250   0.65798   0.00000  Uiso   1.00
O1427  O     0.75255   0.17394   0.89272   0.00000  Uiso   1.00
C1428  C     0.74864   0.20232   0.85540   0.00000  Uiso   1.00
H1429  H     0.75920   0.18232   0.82651   0.00000  Uiso   1.00
H1430  H     0.76583   0.23511   0.85722   0.00000  Uiso   1.00
C1431  C     0.70413   0.21360   0.84786   0.00000  Uiso   1.00
H1432  H     0.68811   0.23015   0.87644   0.00000  Uiso   1.00
H1433  H     0.70300   0.23895   0.82075   0.00000  Uiso   1.00
H1434  H     0.68761   0.18194   0.83945   0.00000  Uiso   1.00
O1435  O     0.90705   0.16610   0.61023   0.00000  Uiso   1.00
C1436  C     0.91760   0.21268   0.61642   0.00000  Uiso   1.00
H1437  H     0.89465   0.23050   0.63888   0.00000  Uiso   1.00
H1438  H     0.92043   0.23167   0.58449   0.00000  Uiso   1.00
C1439  C     0.95799   0.21454   0.63831   0.00000  Uiso   1.00
H1440  H     0.98387   0.20730   0.61421   0.00000  Uiso   1.00
H1441  H     0.96200   0.24910   0.65318   0.00000  Uiso   1.00
H1442  H     0.95835   0.18798   0.66429   0.00000  Uiso   1.00
S1443  S     0.71468   0.22609   0.96543   0.00000  Uiso   1.00
O1444  O     0.68855   0.19049   0.94514   0.00000  Uiso   1.00
O1445  O     0.68829   0.25158   0.99965   0.00000  Uiso   1.00
O1446  O     0.73164   0.26537   0.92822   0.00000  Uiso   1.00
H1447  H     0.75044   0.28504   0.94424   0.00000  Uiso   1.00
S1448  S     0.95027   0.12921   0.52895   0.00000  Uiso   1.00
O1449  O     0.94197   0.09636   0.56664   0.00000  Uiso   1.00
O1450  O     0.96678   0.10217   0.98933   0.00000  Uiso   1.00
O1451  O     0.98584   0.16712   0.54206   0.00000  Uiso   1.00
H1452  H     0.97337   0.19768   0.53717   0.00000  Uiso   1.00
O1453  O     0.72911   0.21496   0.55992   0.00000  Uiso   1.00
C1454  C     0.74067   0.26033   0.57097   0.00000  Uiso   1.00
H1455  H     0.74785   0.28149   0.54090   0.00000  Uiso   1.00
H1456  H     0.76803   0.25958   0.59055   0.00000  Uiso   1.00
C1457  C     0.70611   0.28406   0.59830   0.00000  Uiso   1.00
H1458  H     0.70050   0.26573   0.63009   0.00000  Uiso   1.00
H1459  H     0.71447   0.32022   0.60530   0.00000  Uiso   1.00
H1460  H     0.67765   0.28435   0.58017   0.00000  Uiso   1.00
O1461  O     0.93585   0.19458   0.95037   0.00000  Uiso   1.00
C1462  C     0.92824   0.24279   0.95556   0.00000  Uiso   1.00
H1463  H     0.93869   0.25453   0.98794   0.00000  Uiso   1.00
H1464  H     0.89524   0.25253   0.95438   0.00000  Uiso   1.00
C1465  C     0.95056   0.26965   0.91865   0.00000  Uiso   1.00
H1466  H     0.94872   0.25136   0.88666   0.00000  Uiso   1.00
H1467  H     0.93651   0.30446   0.91598   0.00000  Uiso   1.00
H1468  H     0.98286   0.27444   0.92591   0.00000  Uiso   1.00
S1469  S     0.87929   0.04004   0.66864   0.00000  Uiso   1.00
O1470  O     0.90374   0.08159   0.67901   0.00000  Uiso   1.00
O1471  O     0.90873   0.00038   0.66083   0.00000  Uiso   1.00
O1472  O     0.85653   0.04884   0.62092   0.00000  Uiso   1.00
H1473  H     0.83169   0.06735   0.62864   0.00000  Uiso   1.00
S1474  S     0.86437   0.29439   0.83399   0.00000  Uiso   1.00
O1475  O     0.88543   0.00317   0.85010   0.00000  Uiso   1.00
O1476  O     0.83641   0.27720   0.87132   0.00000  Uiso   1.00
O1477  O     0.90061   0.25461   0.82100   0.00000  Uiso   1.00
H1478  H     0.92426   0.27225   0.80848   0.00000  Uiso   1.00
S1479  S     0.78727   0.04040   0.83114   0.00000  Uiso   1.00
O1480  O     0.76360   0.08336   0.82188   0.00000  Uiso   1.00
O1481  O     0.75719   0.00178   0.83682   0.00000  Uiso   1.00
O1482  O     0.80928   0.04637   0.87962   0.00000  Uiso   1.00
H1483  H     0.83157   0.06860   0.87412   0.00000  Uiso   1.00
S1484  S     0.80334   0.29545   0.66609   0.00000  Uiso   1.00
O1485  O     0.78206   0.00470   0.65042   0.00000  Uiso   1.00
O1486  O     0.83158   0.27804   0.62877   0.00000  Uiso   1.00
O1487  O     0.76729   0.25644   0.67893   0.00000  Uiso   1.00
H1488  H     0.74368   0.27502   0.69086   0.00000  Uiso   1.00
C1489  C     0.08765   0.50002   0.74732   0.00000  Uiso   1.00
C1490  C     0.24587   0.49980   0.75005   0.00000  Uiso   1.00
C1491  C     0.09341   0.52890   0.53256   0.00000  Uiso   1.00
C1492  C     0.23652   0.50505   0.97108   0.00000  Uiso   1.00
C1493  C     0.02169   0.45788   0.74932   0.00000  Uiso   1.00
C1494  C     0.31190   0.54116   0.74600   0.00000  Uiso   1.00
C1495  C     0.31252   0.45776   0.75031   0.00000  Uiso   1.00
C1496  C     0.02096   0.54113   0.74350   0.00000  Uiso   1.00
C1497  C     0.29061   0.49950   0.74933   0.00000  Uiso   1.00
C1498  C     0.04294   0.49970   0.74625   0.00000  Uiso   1.00
C1499  C     0.17677   0.35684   0.71242   0.00000  Uiso   1.00
C1500  C     0.16871   0.64333   0.78831   0.00000  Uiso   1.00
C1501  C     0.15716   0.35713   0.78776   0.00000  Uiso   1.00
C1502  C     0.16536   0.64334   0.71174   0.00000  Uiso   1.00
C1503  C     0.16740   0.49985   0.66462   0.00000  Uiso   1.00
C1504  C     0.16454   0.50027   0.83565   0.00000  Uiso   1.00
C1505  C     0.19868   0.50002   0.90491   0.00000  Uiso   1.00
C1506  C     0.12936   0.50334   0.59693   0.00000  Uiso   1.00
C1507  C     0.16158   0.50222   0.88451   0.00000  Uiso   1.00
C1508  C     0.16687   0.49950   0.61642   0.00000  Uiso   1.00
C1509  C     0.12406   0.51105   0.91053   0.00000  Uiso   1.00
C1510  C     0.20365   0.49789   0.59008   0.00000  Uiso   1.00
C1511  C     0.12518   0.51549   0.95771   0.00000  Uiso   1.00
C1512  C     0.20254   0.49634   0.54341   0.00000  Uiso   1.00
C1513  C     0.16271   0.50685   0.97748   0.00000  Uiso   1.00
C1514  C     0.16458   0.50476   0.52405   0.00000  Uiso   1.00
C1515  C     0.19920   0.50335   0.95098   0.00000  Uiso   1.00
C1516  C     0.12865   0.51126   0.55115   0.00000  Uiso   1.00
C1517  C     0.09106   0.53073   0.98618   0.00000  Uiso   1.00
C1518  C     0.23835   0.49197   0.51511   0.00000  Uiso   1.00
Cu1519 Cu    0.16667   0.54689   0.75000   0.00000  Uiso   1.00
Cu1520 Cu    0.16667   0.45311   0.75000   0.00000  Uiso   1.00
H1521  H     0.03781   0.42522   0.75106   0.00000  Uiso   1.00
H1522  H     0.29590   0.57387   0.74432   0.00000  Uiso   1.00
H1523  H     0.29688   0.42506   0.75251   0.00000  Uiso   1.00
H1524  H     0.03630   0.57385   0.74158   0.00000  Uiso   1.00
N1525  N     0.16667   0.61736   0.75000   0.00000  Uiso   1.00
N1526  N     0.16667   0.38264   0.75000   0.00000  Uiso   1.00
O1527  O     0.10655   0.53958   0.74999   0.00000  Uiso   1.00
O1528  O     0.22679   0.46042   0.75000   0.00000  Uiso   1.00
O1529  O     0.22679   0.53958   0.75000   0.00000  Uiso   1.00
O1530  O     0.10655   0.46042   0.74999   0.00000  Uiso   1.00
O1531  O     0.16666   0.53960   0.68513   0.00000  Uiso   1.00
O1532  O     0.16668   0.46040   0.81487   0.00000  Uiso   1.00
O1533  O     0.16668   0.53960   0.81487   0.00000  Uiso   1.00
O1534  O     0.16666   0.46040   0.68513   0.00000  Uiso   1.00
O1535  O     0.23499   0.49430   0.87942   0.00000  Uiso   1.00
C1536  C     0.24627   0.44703   0.87834   0.00000  Uiso   1.00
H1537  H     0.23232   0.43001   0.85013   0.00000  Uiso   1.00
H1538  H     0.23697   0.42812   0.90934   0.00000  Uiso   1.00
C1539  C     0.29242   0.44258   0.87133   0.00000  Uiso   1.00
H1540  H     0.30750   0.45895   0.89915   0.00000  Uiso   1.00
H1541  H     0.30148   0.40561   0.86935   0.00000  Uiso   1.00
H1542  H     0.30272   0.45973   0.84012   0.00000  Uiso   1.00
O1543  O     0.09319   0.50113   0.62288   0.00000  Uiso   1.00
C1544  C     0.08219   0.45433   0.62852   0.00000  Uiso   1.00
H1545  H     0.09475   0.44093   0.65927   0.00000  Uiso   1.00
H1546  H     0.09315   0.43156   0.60034   0.00000  Uiso   1.00
C1547  C     0.03592   0.45074   0.63311   0.00000  Uiso   1.00
H1548  H     0.02298   0.45815   0.60091   0.00000  Uiso   1.00
H1549  H     0.02708   0.41537   0.64353   0.00000  Uiso   1.00
H1550  H     0.02315   0.47583   0.65798   0.00000  Uiso   1.00
O1551  O     0.08588   0.50727   0.89272   0.00000  Uiso   1.00
C1552  C     0.08197   0.53565   0.85540   0.00000  Uiso   1.00
H1553  H     0.09254   0.51565   0.82651   0.00000  Uiso   1.00
H1554  H     0.09916   0.56845   0.85722   0.00000  Uiso   1.00
C1555  C     0.03746   0.54694   0.84786   0.00000  Uiso   1.00
H1556  H     0.02145   0.56348   0.87644   0.00000  Uiso   1.00
H1557  H     0.03634   0.57229   0.82075   0.00000  Uiso   1.00
H1558  H     0.02095   0.51527   0.83945   0.00000  Uiso   1.00
O1559  O     0.24038   0.49943   0.61023   0.00000  Uiso   1.00
C1560  C     0.25093   0.54601   0.61642   0.00000  Uiso   1.00
H1561  H     0.22799   0.56383   0.63888   0.00000  Uiso   1.00
H1562  H     0.25376   0.56500   0.58449   0.00000  Uiso   1.00
C1563  C     0.29132   0.54788   0.63831   0.00000  Uiso   1.00
H1564  H     0.31720   0.54063   0.61421   0.00000  Uiso   1.00
H1565  H     0.29533   0.58244   0.65318   0.00000  Uiso   1.00
H1566  H     0.29168   0.52132   0.66429   0.00000  Uiso   1.00
S1567  S     0.04801   0.55942   0.96543   0.00000  Uiso   1.00
O1568  O     0.02189   0.52382   0.94514   0.00000  Uiso   1.00
O1569  O     0.02162   0.58492   0.99965   0.00000  Uiso   1.00
O1570  O     0.06498   0.59871   0.92822   0.00000  Uiso   1.00
H1571  H     0.08378   0.61837   0.94424   0.00000  Uiso   1.00
S1572  S     0.28360   0.46255   0.52895   0.00000  Uiso   1.00
O1573  O     0.27531   0.42970   0.56664   0.00000  Uiso   1.00
O1574  O     0.30011   0.43550   0.98933   0.00000  Uiso   1.00
O1575  O     0.31917   0.50046   0.54206   0.00000  Uiso   1.00
H1576  H     0.30670   0.53101   0.53717   0.00000  Uiso   1.00
O1577  O     0.06244   0.54830   0.55992   0.00000  Uiso   1.00
C1578  C     0.07401   0.59366   0.57097   0.00000  Uiso   1.00
H1579  H     0.08119   0.61482   0.54090   0.00000  Uiso   1.00
H1580  H     0.10136   0.59292   0.59055   0.00000  Uiso   1.00
C1581  C     0.03944   0.61740   0.59830   0.00000  Uiso   1.00
H1582  H     0.03383   0.59906   0.63009   0.00000  Uiso   1.00
H1583  H     0.04781   0.65356   0.60530   0.00000  Uiso   1.00
H1584  H     0.01098   0.61768   0.58017   0.00000  Uiso   1.00
O1585  O     0.26918   0.52792   0.95037   0.00000  Uiso   1.00
C1586  C     0.26157   0.57612   0.95556   0.00000  Uiso   1.00
H1587  H     0.27203   0.58786   0.98794   0.00000  Uiso   1.00
H1588  H     0.22857   0.58586   0.95438   0.00000  Uiso   1.00
C1589  C     0.28389   0.60298   0.91865   0.00000  Uiso   1.00
H1590  H     0.28206   0.58469   0.88666   0.00000  Uiso   1.00
H1591  H     0.26984   0.63780   0.91598   0.00000  Uiso   1.00
H1592  H     0.31620   0.60778   0.92591   0.00000  Uiso   1.00
S1593  S     0.21262   0.37337   0.66864   0.00000  Uiso   1.00
O1594  O     0.23707   0.41492   0.67901   0.00000  Uiso   1.00
O1595  O     0.24207   0.33372   0.66083   0.00000  Uiso   1.00
O1596  O     0.18986   0.38217   0.62092   0.00000  Uiso   1.00
H1597  H     0.16503   0.40069   0.62864   0.00000  Uiso   1.00
S1598  S     0.19770   0.62772   0.83399   0.00000  Uiso   1.00
O1599  O     0.21876   0.33650   0.85010   0.00000  Uiso   1.00
O1600  O     0.16975   0.61054   0.87132   0.00000  Uiso   1.00
O1601  O     0.23395   0.58794   0.82100   0.00000  Uiso   1.00
H1602  H     0.25759   0.60559   0.80848   0.00000  Uiso   1.00
S1603  S     0.12061   0.37374   0.83114   0.00000  Uiso   1.00
O1604  O     0.09694   0.41669   0.82188   0.00000  Uiso   1.00
O1605  O     0.09052   0.33512   0.83682   0.00000  Uiso   1.00
O1606  O     0.14261   0.37970   0.87962   0.00000  Uiso   1.00
H1607  H     0.16491   0.40194   0.87412   0.00000  Uiso   1.00
S1608  S     0.13667   0.62879   0.66609   0.00000  Uiso   1.00
O1609  O     0.11540   0.33803   0.65042   0.00000  Uiso   1.00
O1610  O     0.16491   0.61138   0.62877   0.00000  Uiso   1.00
O1611  O     0.10062   0.58978   0.67893   0.00000  Uiso   1.00
H1612  H     0.07702   0.60836   0.69086   0.00000  Uiso   1.00
C1613  C     0.42098   0.50002   0.74732   0.00000  Uiso   1.00
C1614  C     0.57920   0.49980   0.75005   0.00000  Uiso   1.00
C1615  C     0.42675   0.52890   0.53256   0.00000  Uiso   1.00
C1616  C     0.56986   0.50505   0.97108   0.00000  Uiso   1.00
C1617  C     0.35503   0.45788   0.74932   0.00000  Uiso   1.00
C1618  C     0.64523   0.54116   0.74600   0.00000  Uiso   1.00
C1619  C     0.64585   0.45776   0.75031   0.00000  Uiso   1.00
C1620  C     0.35429   0.54113   0.74350   0.00000  Uiso   1.00
C1621  C     0.62395   0.49950   0.74933   0.00000  Uiso   1.00
C1622  C     0.37627   0.49970   0.74625   0.00000  Uiso   1.00
C1623  C     0.51011   0.35684   0.71242   0.00000  Uiso   1.00
C1624  C     0.50205   0.64333   0.78831   0.00000  Uiso   1.00
C1625  C     0.49050   0.35713   0.78776   0.00000  Uiso   1.00
C1626  C     0.49869   0.64334   0.71174   0.00000  Uiso   1.00
C1627  C     0.50073   0.49985   0.66462   0.00000  Uiso   1.00
C1628  C     0.49787   0.50027   0.83565   0.00000  Uiso   1.00
C1629  C     0.53201   0.50002   0.90491   0.00000  Uiso   1.00
C1630  C     0.46269   0.50334   0.59693   0.00000  Uiso   1.00
C1631  C     0.49491   0.50222   0.88451   0.00000  Uiso   1.00
C1632  C     0.50020   0.49950   0.61642   0.00000  Uiso   1.00
C1633  C     0.45739   0.51105   0.91053   0.00000  Uiso   1.00
C1634  C     0.53698   0.49789   0.59008   0.00000  Uiso   1.00
C1635  C     0.45851   0.51549   0.95771   0.00000  Uiso   1.00
C1636  C     0.53587   0.49634   0.54341   0.00000  Uiso   1.00
C1637  C     0.49604   0.50685   0.97748   0.00000  Uiso   1.00
C1638  C     0.49791   0.50476   0.52405   0.00000  Uiso   1.00
C1639  C     0.53254   0.50335   0.95098   0.00000  Uiso   1.00
C1640  C     0.46199   0.51126   0.55115   0.00000  Uiso   1.00
C1641  C     0.42439   0.53073   0.98618   0.00000  Uiso   1.00
C1642  C     0.57169   0.49197   0.51511   0.00000  Uiso   1.00
Cu1643 Cu    0.50000   0.54689   0.75000   0.00000  Uiso   1.00
Cu1644 Cu    0.50000   0.45311   0.75000   0.00000  Uiso   1.00
H1645  H     0.37114   0.42522   0.75106   0.00000  Uiso   1.00
H1646  H     0.62923   0.57387   0.74432   0.00000  Uiso   1.00
H1647  H     0.63021   0.42506   0.75251   0.00000  Uiso   1.00
H1648  H     0.36963   0.57385   0.74158   0.00000  Uiso   1.00
N1649  N     0.50000   0.61736   0.75000   0.00000  Uiso   1.00
N1650  N     0.50000   0.38264   0.75000   0.00000  Uiso   1.00
O1651  O     0.43988   0.53958   0.74999   0.00000  Uiso   1.00
O1652  O     0.56012   0.46042   0.75000   0.00000  Uiso   1.00
O1653  O     0.56012   0.53958   0.75000   0.00000  Uiso   1.00
O1654  O     0.43988   0.46042   0.74999   0.00000  Uiso   1.00
O1655  O     0.49999   0.53960   0.68513   0.00000  Uiso   1.00
O1656  O     0.50001   0.46040   0.81487   0.00000  Uiso   1.00
O1657  O     0.50001   0.53960   0.81487   0.00000  Uiso   1.00
O1658  O     0.49999   0.46040   0.68513   0.00000  Uiso   1.00
O1659  O     0.56833   0.49430   0.87942   0.00000  Uiso   1.00
C1660  C     0.57960   0.44703   0.87834   0.00000  Uiso   1.00
H1661  H     0.56565   0.43001   0.85013   0.00000  Uiso   1.00
H1662  H     0.57030   0.42812   0.90934   0.00000  Uiso   1.00
C1663  C     0.62575   0.44258   0.87133   0.00000  Uiso   1.00
H1664  H     0.64083   0.45895   0.89915   0.00000  Uiso   1.00
H1665  H     0.63481   0.40561   0.86935   0.00000  Uiso   1.00
H1666  H     0.63605   0.45973   0.84012   0.00000  Uiso   1.00
O1667  O     0.42653   0.50113   0.62288   0.00000  Uiso   1.00
C1668  C     0.41552   0.45433   0.62852   0.00000  Uiso   1.00
H1669  H     0.42809   0.44093   0.65927   0.00000  Uiso   1.00
H1670  H     0.42649   0.43156   0.60034   0.00000  Uiso   1.00
C1671  C     0.36926   0.45074   0.63311   0.00000  Uiso   1.00
H1672  H     0.35632   0.45815   0.60091   0.00000  Uiso   1.00
H1673  H     0.36041   0.41537   0.64353   0.00000  Uiso   1.00
H1674  H     0.35649   0.47583   0.65798   0.00000  Uiso   1.00
O1675  O     0.41921   0.50727   0.89272   0.00000  Uiso   1.00
C1676  C     0.41531   0.53565   0.85540   0.00000  Uiso   1.00
H1677  H     0.42587   0.51565   0.82651   0.00000  Uiso   1.00
H1678  H     0.43250   0.56845   0.85722   0.00000  Uiso   1.00
C1679  C     0.37080   0.54694   0.84786   0.00000  Uiso   1.00
H1680  H     0.35478   0.56348   0.87644   0.00000  Uiso   1.00
H1681  H     0.36967   0.57229   0.82075   0.00000  Uiso   1.00
H1682  H     0.35428   0.51527   0.83945   0.00000  Uiso   1.00
O1683  O     0.57371   0.49943   0.61023   0.00000  Uiso   1.00
C1684  C     0.58427   0.54601   0.61642   0.00000  Uiso   1.00
H1685  H     0.56132   0.56383   0.63888   0.00000  Uiso   1.00
H1686  H     0.58709   0.56500   0.58449   0.00000  Uiso   1.00
C1687  C     0.62465   0.54788   0.63831   0.00000  Uiso   1.00
H1688  H     0.65053   0.54063   0.61421   0.00000  Uiso   1.00
H1689  H     0.62866   0.58244   0.65318   0.00000  Uiso   1.00
H1690  H     0.62501   0.52132   0.66429   0.00000  Uiso   1.00
S1691  S     0.38134   0.55942   0.96543   0.00000  Uiso   1.00
O1692  O     0.35522   0.52382   0.94514   0.00000  Uiso   1.00
O1693  O     0.35496   0.58492   0.99965   0.00000  Uiso   1.00
O1694  O     0.39831   0.59871   0.92822   0.00000  Uiso   1.00
H1695  H     0.41711   0.61837   0.94424   0.00000  Uiso   1.00
S1696  S     0.61693   0.46255   0.52895   0.00000  Uiso   1.00
O1697  O     0.60864   0.42970   0.56664   0.00000  Uiso   1.00
O1698  O     0.63344   0.43550   0.98933   0.00000  Uiso   1.00
O1699  O     0.65251   0.50046   0.54206   0.00000  Uiso   1.00
H1700  H     0.64003   0.53101   0.53717   0.00000  Uiso   1.00
O1701  O     0.39577   0.54830   0.55992   0.00000  Uiso   1.00
C1702  C     0.40734   0.59366   0.57097   0.00000  Uiso   1.00
H1703  H     0.41452   0.61482   0.54090   0.00000  Uiso   1.00
H1704  H     0.43470   0.59292   0.59055   0.00000  Uiso   1.00
C1705  C     0.37277   0.61740   0.59830   0.00000  Uiso   1.00
H1706  H     0.36716   0.59906   0.63009   0.00000  Uiso   1.00
H1707  H     0.38114   0.65356   0.60530   0.00000  Uiso   1.00
H1708  H     0.34431   0.61768   0.58017   0.00000  Uiso   1.00
O1709  O     0.60252   0.52792   0.95037   0.00000  Uiso   1.00
C1710  C     0.59491   0.57612   0.95556   0.00000  Uiso   1.00
H1711  H     0.60536   0.58786   0.98794   0.00000  Uiso   1.00
H1712  H     0.56191   0.58586   0.95438   0.00000  Uiso   1.00
C1713  C     0.61722   0.60298   0.91865   0.00000  Uiso   1.00
H1714  H     0.61539   0.58469   0.88666   0.00000  Uiso   1.00
H1715  H     0.60318   0.63780   0.91598   0.00000  Uiso   1.00
H1716  H     0.64953   0.60778   0.92591   0.00000  Uiso   1.00
S1717  S     0.54596   0.37337   0.66864   0.00000  Uiso   1.00
O1718  O     0.57041   0.41492   0.67901   0.00000  Uiso   1.00
O1719  O     0.57540   0.33372   0.66083   0.00000  Uiso   1.00
O1720  O     0.52319   0.38217   0.62092   0.00000  Uiso   1.00
H1721  H     0.49836   0.40069   0.62864   0.00000  Uiso   1.00
S1722  S     0.53104   0.62772   0.83399   0.00000  Uiso   1.00
O1723  O     0.55210   0.33650   0.85010   0.00000  Uiso   1.00
O1724  O     0.50308   0.61054   0.87132   0.00000  Uiso   1.00
O1725  O     0.56728   0.58794   0.82100   0.00000  Uiso   1.00
H1726  H     0.59093   0.60559   0.80848   0.00000  Uiso   1.00
S1727  S     0.45394   0.37374   0.83114   0.00000  Uiso   1.00
O1728  O     0.43027   0.41669   0.82188   0.00000  Uiso   1.00
O1729  O     0.42386   0.33512   0.83682   0.00000  Uiso   1.00
O1730  O     0.47594   0.37970   0.87962   0.00000  Uiso   1.00
H1731  H     0.49824   0.40194   0.87412   0.00000  Uiso   1.00
S1732  S     0.47000   0.62879   0.66609   0.00000  Uiso   1.00
O1733  O     0.44873   0.33803   0.65042   0.00000  Uiso   1.00
O1734  O     0.49824   0.61138   0.62877   0.00000  Uiso   1.00
O1735  O     0.43396   0.58978   0.67893   0.00000  Uiso   1.00
H1736  H     0.41035   0.60836   0.69086   0.00000  Uiso   1.00
C1737  C     0.75432   0.50002   0.74732   0.00000  Uiso   1.00
C1738  C     0.91253   0.49980   0.75005   0.00000  Uiso   1.00
C1739  C     0.76008   0.52890   0.53256   0.00000  Uiso   1.00
C1740  C     0.90319   0.50505   0.97108   0.00000  Uiso   1.00
C1741  C     0.68836   0.45788   0.74932   0.00000  Uiso   1.00
C1742  C     0.97857   0.54116   0.74600   0.00000  Uiso   1.00
C1743  C     0.97919   0.45776   0.75031   0.00000  Uiso   1.00
C1744  C     0.68762   0.54113   0.74350   0.00000  Uiso   1.00
C1745  C     0.95728   0.49950   0.74933   0.00000  Uiso   1.00
C1746  C     0.70961   0.49970   0.74625   0.00000  Uiso   1.00
C1747  C     0.84344   0.35684   0.71242   0.00000  Uiso   1.00
C1748  C     0.83538   0.64333   0.78831   0.00000  Uiso   1.00
C1749  C     0.82383   0.35713   0.78776   0.00000  Uiso   1.00
C1750  C     0.83202   0.64334   0.71174   0.00000  Uiso   1.00
C1751  C     0.83406   0.49985   0.66462   0.00000  Uiso   1.00
C1752  C     0.83120   0.50027   0.83565   0.00000  Uiso   1.00
C1753  C     0.86534   0.50002   0.90491   0.00000  Uiso   1.00
C1754  C     0.79602   0.50334   0.59693   0.00000  Uiso   1.00
C1755  C     0.82825   0.50222   0.88451   0.00000  Uiso   1.00
C1756  C     0.83353   0.49950   0.61642   0.00000  Uiso   1.00
C1757  C     0.79073   0.51105   0.91053   0.00000  Uiso   1.00
C1758  C     0.87031   0.49789   0.59008   0.00000  Uiso   1.00
C1759  C     0.79185   0.51549   0.95771   0.00000  Uiso   1.00
C1760  C     0.86920   0.49634   0.54341   0.00000  Uiso   1.00
C1761  C     0.82937   0.50685   0.97748   0.00000  Uiso   1.00
C1762  C     0.83124   0.50476   0.52405   0.00000  Uiso   1.00
C1763  C     0.86587   0.50335   0.95098   0.00000  Uiso   1.00
C1764  C     0.79532   0.51126   0.55115   0.00000  Uiso   1.00
C1765  C     0.75772   0.53073   0.98618   0.00000  Uiso   1.00
C1766  C     0.90502   0.49197   0.51511   0.00000  Uiso   1.00
Cu1767 Cu    0.83333   0.54689   0.75000   0.00000  Uiso   1.00
Cu1768 Cu    0.83333   0.45311   0.75000   0.00000  Uiso   1.00
H1769  H     0.70447   0.42522   0.75106   0.00000  Uiso   1.00
H1770  H     0.96256   0.57387   0.74432   0.00000  Uiso   1.00
H1771  H     0.96355   0.42506   0.75251   0.00000  Uiso   1.00
H1772  H     0.70296   0.57385   0.74158   0.00000  Uiso   1.00
N1773  N     0.83333   0.61736   0.75000   0.00000  Uiso   1.00
N1774  N     0.83333   0.38264   0.75000   0.00000  Uiso   1.00
O1775  O     0.77321   0.53958   0.74999   0.00000  Uiso   1.00
O1776  O     0.89345   0.46042   0.75000   0.00000  Uiso   1.00
O1777  O     0.89345   0.53958   0.75000   0.00000  Uiso   1.00
O1778  O     0.77321   0.46042   0.74999   0.00000  Uiso   1.00
O1779  O     0.83332   0.53960   0.68513   0.00000  Uiso   1.00
O1780  O     0.83334   0.46040   0.81487   0.00000  Uiso   1.00
O1781  O     0.83334   0.53960   0.81487   0.00000  Uiso   1.00
O1782  O     0.83332   0.46040   0.68513   0.00000  Uiso   1.00
O1783  O     0.90166   0.49430   0.87942   0.00000  Uiso   1.00
C1784  C     0.91293   0.44703   0.87834   0.00000  Uiso   1.00
H1785  H     0.89898   0.43001   0.85013   0.00000  Uiso   1.00
H1786  H     0.90363   0.42812   0.90934   0.00000  Uiso   1.00
C1787  C     0.95908   0.44258   0.87133   0.00000  Uiso   1.00
H1788  H     0.97417   0.45895   0.89915   0.00000  Uiso   1.00
H1789  H     0.96814   0.40561   0.86935   0.00000  Uiso   1.00
H1790  H     0.96938   0.45973   0.84012   0.00000  Uiso   1.00
O1791  O     0.75986   0.50113   0.62288   0.00000  Uiso   1.00
C1792  C     0.74886   0.45433   0.62852   0.00000  Uiso   1.00
H1793  H     0.76142   0.44093   0.65927   0.00000  Uiso   1.00
H1794  H     0.75982   0.43156   0.60034   0.00000  Uiso   1.00
C1795  C     0.70259   0.45074   0.63311   0.00000  Uiso   1.00
H1796  H     0.68965   0.45815   0.60091   0.00000  Uiso   1.00
H1797  H     0.69374   0.41537   0.64353   0.00000  Uiso   1.00
H1798  H     0.68982   0.47583   0.65798   0.00000  Uiso   1.00
O1799  O     0.75255   0.50727   0.89272   0.00000  Uiso   1.00
C1800  C     0.74864   0.53565   0.85540   0.00000  Uiso   1.00
H1801  H     0.75920   0.51565   0.82651   0.00000  Uiso   1.00
H1802  H     0.76583   0.56845   0.85722   0.00000  Uiso   1.00
C1803  C     0.70413   0.54694   0.84786   0.00000  Uiso   1.00
H1804  H     0.68811   0.56348   0.87644   0.00000  Uiso   1.00
H1805  H     0.70300   0.57229   0.82075   0.00000  Uiso   1.00
H1806  H     0.68761   0.51527   0.83945   0.00000  Uiso   1.00
O1807  O     0.90705   0.49943   0.61023   0.00000  Uiso   1.00
C1808  C     0.91760   0.54601   0.61642   0.00000  Uiso   1.00
H1809  H     0.89465   0.56383   0.63888   0.00000  Uiso   1.00
H1810  H     0.92043   0.56500   0.58449   0.00000  Uiso   1.00
C1811  C     0.95799   0.54788   0.63831   0.00000  Uiso   1.00
H1812  H     0.98387   0.54063   0.61421   0.00000  Uiso   1.00
H1813  H     0.96200   0.58244   0.65318   0.00000  Uiso   1.00
H1814  H     0.95835   0.52132   0.66429   0.00000  Uiso   1.00
S1815  S     0.71468   0.55942   0.96543   0.00000  Uiso   1.00
O1816  O     0.68855   0.52382   0.94514   0.00000  Uiso   1.00
O1817  O     0.68829   0.58492   0.99965   0.00000  Uiso   1.00
O1818  O     0.73164   0.59871   0.92822   0.00000  Uiso   1.00
H1819  H     0.75044   0.61837   0.94424   0.00000  Uiso   1.00
S1820  S     0.95027   0.46255   0.52895   0.00000  Uiso   1.00
O1821  O     0.94197   0.42970   0.56664   0.00000  Uiso   1.00
O1822  O     0.96678   0.43550   0.98933   0.00000  Uiso   1.00
O1823  O     0.98584   0.50046   0.54206   0.00000  Uiso   1.00
H1824  H     0.97337   0.53101   0.53717   0.00000  Uiso   1.00
O1825  O     0.72911   0.54830   0.55992   0.00000  Uiso   1.00
C1826  C     0.74067   0.59366   0.57097   0.00000  Uiso   1.00
H1827  H     0.74785   0.61482   0.54090   0.00000  Uiso   1.00
H1828  H     0.76803   0.59292   0.59055   0.00000  Uiso   1.00
C1829  C     0.70611   0.61740   0.59830   0.00000  Uiso   1.00
H1830  H     0.70050   0.59906   0.63009   0.00000  Uiso   1.00
H1831  H     0.71447   0.65356   0.60530   0.00000  Uiso   1.00
H1832  H     0.67765   0.61768   0.58017   0.00000  Uiso   1.00
O1833  O     0.93585   0.52792   0.95037   0.00000  Uiso   1.00
C1834  C     0.92824   0.57612   0.95556   0.00000  Uiso   1.00
H1835  H     0.93869   0.58786   0.98794   0.00000  Uiso   1.00
H1836  H     0.89524   0.58586   0.95438   0.00000  Uiso   1.00
C1837  C     0.95056   0.60298   0.91865   0.00000  Uiso   1.00
H1838  H     0.94872   0.58469   0.88666   0.00000  Uiso   1.00
H1839  H     0.93651   0.63780   0.91598   0.00000  Uiso   1.00
H1840  H     0.98286   0.60778   0.92591   0.00000  Uiso   1.00
S1841  S     0.87929   0.37337   0.66864   0.00000  Uiso   1.00
O1842  O     0.90374   0.41492   0.67901   0.00000  Uiso   1.00
O1843  O     0.90873   0.33372   0.66083   0.00000  Uiso   1.00
O1844  O     0.85653   0.38217   0.62092   0.00000  Uiso   1.00
H1845  H     0.83169   0.40069   0.62864   0.00000  Uiso   1.00
S1846  S     0.86437   0.62772   0.83399   0.00000  Uiso   1.00
O1847  O     0.88543   0.33650   0.85010   0.00000  Uiso   1.00
O1848  O     0.83641   0.61054   0.87132   0.00000  Uiso   1.00
O1849  O     0.90061   0.58794   0.82100   0.00000  Uiso   1.00
H1850  H     0.92426   0.60559   0.80848   0.00000  Uiso   1.00
S1851  S     0.78727   0.37374   0.83114   0.00000  Uiso   1.00
O1852  O     0.76360   0.41669   0.82188   0.00000  Uiso   1.00
O1853  O     0.75719   0.33512   0.83682   0.00000  Uiso   1.00
O1854  O     0.80928   0.37970   0.87962   0.00000  Uiso   1.00
H1855  H     0.83157   0.40194   0.87412   0.00000  Uiso   1.00
S1856  S     0.80334   0.62879   0.66609   0.00000  Uiso   1.00
O1857  O     0.78206   0.33803   0.65042   0.00000  Uiso   1.00
O1858  O     0.83158   0.61138   0.62877   0.00000  Uiso   1.00
O1859  O     0.76729   0.58978   0.67893   0.00000  Uiso   1.00
H1860  H     0.74368   0.60836   0.69086   0.00000  Uiso   1.00
C1861  C     0.08765   0.83335   0.74732   0.00000  Uiso   1.00
C1862  C     0.24587   0.83313   0.75005   0.00000  Uiso   1.00
C1863  C     0.09341   0.86223   0.53256   0.00000  Uiso   1.00
C1864  C     0.23652   0.83838   0.97108   0.00000  Uiso   1.00
C1865  C     0.02169   0.79121   0.74932   0.00000  Uiso   1.00
C1866  C     0.31190   0.87450   0.74600   0.00000  Uiso   1.00
C1867  C     0.31252   0.79109   0.75031   0.00000  Uiso   1.00
C1868  C     0.02096   0.87446   0.74350   0.00000  Uiso   1.00
C1869  C     0.29061   0.83283   0.74933   0.00000  Uiso   1.00
C1870  C     0.04294   0.83304   0.74625   0.00000  Uiso   1.00
C1871  C     0.17677   0.69018   0.71242   0.00000  Uiso   1.00
C1872  C     0.16871   0.97666   0.78831   0.00000  Uiso   1.00
C1873  C     0.15716   0.69047   0.78776   0.00000  Uiso   1.00
C1874  C     0.16536   0.97667   0.71174   0.00000  Uiso   1.00
C1875  C     0.16740   0.83318   0.66462   0.00000  Uiso   1.00
C1876  C     0.16454   0.83360   0.83565   0.00000  Uiso   1.00
C1877  C     0.19868   0.83336   0.90491   0.00000  Uiso   1.00
C1878  C     0.12936   0.83667   0.59693   0.00000  Uiso   1.00
C1879  C     0.16158   0.83556   0.88451   0.00000  Uiso   1.00
C1880  C     0.16687   0.83283   0.61642   0.00000  Uiso   1.00
C1881  C     0.12406   0.84438   0.91053   0.00000  Uiso   1.00
C1882  C     0.20365   0.83122   0.59008   0.00000  Uiso   1.00
C1883  C     0.12518   0.84883   0.95771   0.00000  Uiso   1.00
C1884  C     0.20254   0.82968   0.54341   0.00000  Uiso   1.00
C1885  C     0.16271   0.84019   0.97748   0.00000  Uiso   1.00
C1886  C     0.16458   0.83809   0.52405   0.00000  Uiso   1.00
C1887  C     0.19920   0.83668   0.95098   0.00000  Uiso   1.00
C1888  C     0.12865   0.84460   0.55115   0.00000  Uiso   1.00
C1889  C     0.09106   0.86407   0.98618   0.00000  Uiso   1.00
C1890  C     0.23835   0.82531   0.51511   0.00000  Uiso   1.00
Cu1891 Cu    0.16667   0.88022   0.75000   0.00000  Uiso   1.00
Cu1892 Cu    0.16667   0.78645   0.75000   0.00000  Uiso   1.00
H1893  H     0.03781   0.75856   0.75106   0.00000  Uiso   1.00
H1894  H     0.29590   0.90720   0.74432   0.00000  Uiso   1.00
H1895  H     0.29688   0.75840   0.75251   0.00000  Uiso   1.00
H1896  H     0.03630   0.90718   0.74158   0.00000  Uiso   1.00
N1897  N     0.16667   0.95069   0.75000   0.00000  Uiso   1.00
N1898  N     0.16667   0.71598   0.75000   0.00000  Uiso   1.00
O1899  O     0.10655   0.87291   0.74999   0.00000  Uiso   1.00
O1900  O     0.22679   0.79375   0.75000   0.00000  Uiso   1.00
O1901  O     0.22679   0.87291   0.75000   0.00000  Uiso   1.00
O1902  O     0.10655   0.79375   0.74999   0.00000  Uiso   1.00
O1903  O     0.16666   0.87293   0.68513   0.00000  Uiso   1.00
O1904  O     0.16668   0.79373   0.81487   0.00000  Uiso   1.00
O1905  O     0.16668   0.87293   0.81487   0.00000  Uiso   1.00
O1906  O     0.16666   0.79373   0.68513   0.00000  Uiso   1.00
O1907  O     0.23499   0.82763   0.87942   0.00000  Uiso   1.00
C1908  C     0.24627   0.78037   0.87834   0.00000  Uiso   1.00
H1909  H     0.23232   0.76335   0.85013   0.00000  Uiso   1.00
H1910  H     0.23697   0.76146   0.90934   0.00000  Uiso   1.00
C1911  C     0.29242   0.77592   0.87133   0.00000  Uiso   1.00
H1912  H     0.30750   0.79228   0.89915   0.00000  Uiso   1.00
H1913  H     0.30148   0.73895   0.86935   0.00000  Uiso   1.00
H1914  H     0.30272   0.79306   0.84012   0.00000  Uiso   1.00
O1915  O     0.09319   0.83446   0.62288   0.00000  Uiso   1.00
C1916  C     0.08219   0.78766   0.62852   0.00000  Uiso   1.00
H1917  H     0.09475   0.77426   0.65927   0.00000  Uiso   1.00
H1918  H     0.09315   0.76489   0.60034   0.00000  Uiso   1.00
C1919  C     0.03592   0.78408   0.63311   0.00000  Uiso   1.00
H1920  H     0.02298   0.79149   0.60091   0.00000  Uiso   1.00
H1921  H     0.02708   0.74870   0.64353   0.00000  Uiso   1.00
H1922  H     0.02315   0.80916   0.65798   0.00000  Uiso   1.00
O1923  O     0.08588   0.84060   0.89272   0.00000  Uiso   1.00
C1924  C     0.08197   0.86898   0.85540   0.00000  Uiso   1.00
H1925  H     0.09254   0.84899   0.82651   0.00000  Uiso   1.00
H1926  H     0.09916   0.90178   0.85722   0.00000  Uiso   1.00
C1927  C     0.03746   0.88027   0.84786   0.00000  Uiso   1.00
H1928  H     0.02145   0.89682   0.87644   0.00000  Uiso   1.00
H1929  H     0.03634   0.90562   0.82075   0.00000  Uiso   1.00
H1930  H     0.02095   0.84861   0.83945   0.00000  Uiso   1.00
O1931  O     0.24038   0.83276   0.61023   0.00000  Uiso   1.00
C1932  C     0.25093   0.87935   0.61642   0.00000  Uiso   1.00
H1933  H     0.22799   0.89716   0.63888   0.00000  Uiso   1.00
H1934  H     0.25376   0.89833   0.58449   0.00000  Uiso   1.00
C1935  C     0.29132   0.88121   0.63831   0.00000  Uiso   1.00
H1936  H     0.31720   0.87397   0.61421   0.00000  Uiso   1.00
H1937  H     0.29533   0.91577   0.65318   0.00000  Uiso   1.00
H1938  H     0.29168   0.85465   0.66429   0.00000  Uiso   1.00
S1939  S     0.04801   0.89275   0.96543   0.00000  Uiso   1.00
O1940  O     0.02189   0.85716   0.94514   0.00000  Uiso   1.00
O1941  O     0.02162   0.91825   0.99965   0.00000  Uiso   1.00
O1942  O     0.06498   0.93204   0.92822   0.00000  Uiso   1.00
H1943  H     0.08378   0.95171   0.94424   0.00000  Uiso   1.00
S1944  S     0.28360   0.79588   0.52895   0.00000  Uiso   1.00
O1945  O     0.27531   0.76303   0.56664   0.00000  Uiso   1.00
O1946  O     0.30011   0.76883   0.98933   0.00000  Uiso   1.00
O1947  O     0.31917   0.83379   0.54206   0.00000  Uiso   1.00
H1948  H     0.30670   0.86435   0.53717   0.00000  Uiso   1.00
O1949  O     0.06244   0.88163   0.55992   0.00000  Uiso   1.00
C1950  C     0.07401   0.92699   0.57097   0.00000  Uiso   1.00
H1951  H     0.08119   0.94815   0.54090   0.00000  Uiso   1.00
H1952  H     0.10136   0.92625   0.59055   0.00000  Uiso   1.00
C1953  C     0.03944   0.95073   0.59830   0.00000  Uiso   1.00
H1954  H     0.03383   0.93240   0.63009   0.00000  Uiso   1.00
H1955  H     0.04781   0.98689   0.60530   0.00000  Uiso   1.00
H1956  H     0.01098   0.95101   0.58017   0.00000  Uiso   1.00
O1957  O     0.26918   0.86125   0.95037   0.00000  Uiso   1.00
C1958  C     0.26157   0.90945   0.95556   0.00000  Uiso   1.00
H1959  H     0.27203   0.92120   0.98794   0.00000  Uiso   1.00
H1960  H     0.22857   0.91919   0.95438   0.00000  Uiso   1.00
C1961  C     0.28389   0.93632   0.91865   0.00000  Uiso   1.00
H1962  H     0.28206   0.91802   0.88666   0.00000  Uiso   1.00
H1963  H     0.26984   0.97113   0.91598   0.00000  Uiso   1.00
H1964  H     0.31620   0.94111   0.92591   0.00000  Uiso   1.00
S1965  S     0.21262   0.70670   0.66864   0.00000  Uiso   1.00
O1966  O     0.23707   0.74825   0.67901   0.00000  Uiso   1.00
O1967  O     0.24207   0.66705   0.66083   0.00000  Uiso   1.00
O1968  O     0.18986   0.71551   0.62092   0.00000  Uiso   1.00
H1969  H     0.16503   0.73402   0.62864   0.00000  Uiso   1.00
S1970  S     0.19770   0.96106   0.83399   0.00000  Uiso   1.00
O1971  O     0.21876   0.66984   0.85010   0.00000  Uiso   1.00
O1972  O     0.16975   0.94387   0.87132   0.00000  Uiso   1.00
O1973  O     0.23395   0.92128   0.82100   0.00000  Uiso   1.00
H1974  H     0.25759   0.93892   0.80848   0.00000  Uiso   1.00
S1975  S     0.12061   0.70707   0.83114   0.00000  Uiso   1.00
O1976  O     0.09694   0.75002   0.82188   0.00000  Uiso   1.00
O1977  O     0.09052   0.66845   0.83682   0.00000  Uiso   1.00
O1978  O     0.14261   0.71304   0.87962   0.00000  Uiso   1.00
H1979  H     0.16491   0.73527   0.87412   0.00000  Uiso   1.00
S1980  S     0.13667   0.96212   0.66609   0.00000  Uiso   1.00
O1981  O     0.11540   0.67136   0.65042   0.00000  Uiso   1.00
O1982  O     0.16491   0.94471   0.62877   0.00000  Uiso   1.00
O1983  O     0.10062   0.92311   0.67893   0.00000  Uiso   1.00
H1984  H     0.07702   0.94169   0.69086   0.00000  Uiso   1.00
C1985  C     0.42098   0.83335   0.74732   0.00000  Uiso   1.00
C1986  C     0.57920   0.83313   0.75005   0.00000  Uiso   1.00
C1987  C     0.42675   0.86223   0.53256   0.00000  Uiso   1.00
C1988  C     0.56986   0.83838   0.97108   0.00000  Uiso   1.00
C1989  C     0.35503   0.79121   0.74932   0.00000  Uiso   1.00
C1990  C     0.64523   0.87450   0.74600   0.00000  Uiso   1.00
C1991  C     0.64585   0.79109   0.75031   0.00000  Uiso   1.00
C1992  C     0.35429   0.87446   0.74350   0.00000  Uiso   1.00
C1993  C     0.62395   0.83283   0.74933   0.00000  Uiso   1.00
C1994  C     0.37627   0.83304   0.74625   0.00000  Uiso   1.00
C1995  C     0.51011   0.69018   0.71242   0.00000  Uiso   1.00
C1996  C     0.50205   0.97666   0.78831   0.00000  Uiso   1.00
C1997  C     0.49050   0.69047   0.78776   0.00000  Uiso   1.00
C1998  C     0.49869   0.97667   0.71174   0.00000  Uiso   1.00
C1999  C     0.50073   0.83318   0.66462   0.00000  Uiso   1.00
C2000  C     0.49787   0.83360   0.83565   0.00000  Uiso   1.00
C2001  C     0.53201   0.83336   0.90491   0.00000  Uiso   1.00
C2002  C     0.46269   0.83667   0.59693   0.00000  Uiso   1.00
C2003  C     0.49491   0.83556   0.88451   0.00000  Uiso   1.00
C2004  C     0.50020   0.83283   0.61642   0.00000  Uiso   1.00
C2005  C     0.45739   0.84438   0.91053   0.00000  Uiso   1.00
C2006  C     0.53698   0.83122   0.59008   0.00000  Uiso   1.00
C2007  C     0.45851   0.84883   0.95771   0.00000  Uiso   1.00
C2008  C     0.53587   0.82968   0.54341   0.00000  Uiso   1.00
C2009  C     0.49604   0.84019   0.97748   0.00000  Uiso   1.00
C2010  C     0.49791   0.83809   0.52405   0.00000  Uiso   1.00
C2011  C     0.53254   0.83668   0.95098   0.00000  Uiso   1.00
C2012  C     0.46199   0.84460   0.55115   0.00000  Uiso   1.00
C2013  C     0.42439   0.86407   0.98618   0.00000  Uiso   1.00
C2014  C     0.57169   0.82531   0.51511   0.00000  Uiso   1.00
Cu2015 Cu    0.50000   0.88022   0.75000   0.00000  Uiso   1.00
Cu2016 Cu    0.50000   0.78645   0.75000   0.00000  Uiso   1.00
H2017  H     0.37114   0.75856   0.75106   0.00000  Uiso   1.00
H2018  H     0.62923   0.90720   0.74432   0.00000  Uiso   1.00
H2019  H     0.63021   0.75840   0.75251   0.00000  Uiso   1.00
H2020  H     0.36963   0.90718   0.74158   0.00000  Uiso   1.00
N2021  N     0.50000   0.95069   0.75000   0.00000  Uiso   1.00
N2022  N     0.50000   0.71598   0.75000   0.00000  Uiso   1.00
O2023  O     0.43988   0.87291   0.74999   0.00000  Uiso   1.00
O2024  O     0.56012   0.79375   0.75000   0.00000  Uiso   1.00
O2025  O     0.56012   0.87291   0.75000   0.00000  Uiso   1.00
O2026  O     0.43988   0.79375   0.74999   0.00000  Uiso   1.00
O2027  O     0.49999   0.87293   0.68513   0.00000  Uiso   1.00
O2028  O     0.50001   0.79373   0.81487   0.00000  Uiso   1.00
O2029  O     0.50001   0.87293   0.81487   0.00000  Uiso   1.00
O2030  O     0.49999   0.79373   0.68513   0.00000  Uiso   1.00
O2031  O     0.56833   0.82763   0.87942   0.00000  Uiso   1.00
C2032  C     0.57960   0.78037   0.87834   0.00000  Uiso   1.00
H2033  H     0.56565   0.76335   0.85013   0.00000  Uiso   1.00
H2034  H     0.57030   0.76146   0.90934   0.00000  Uiso   1.00
C2035  C     0.62575   0.77592   0.87133   0.00000  Uiso   1.00
H2036  H     0.64083   0.79228   0.89915   0.00000  Uiso   1.00
H2037  H     0.63481   0.73895   0.86935   0.00000  Uiso   1.00
H2038  H     0.63605   0.79306   0.84012   0.00000  Uiso   1.00
O2039  O     0.42653   0.83446   0.62288   0.00000  Uiso   1.00
C2040  C     0.41552   0.78766   0.62852   0.00000  Uiso   1.00
H2041  H     0.42809   0.77426   0.65927   0.00000  Uiso   1.00
H2042  H     0.42649   0.76489   0.60034   0.00000  Uiso   1.00
C2043  C     0.36926   0.78408   0.63311   0.00000  Uiso   1.00
H2044  H     0.35632   0.79149   0.60091   0.00000  Uiso   1.00
H2045  H     0.36041   0.74870   0.64353   0.00000  Uiso   1.00
H2046  H     0.35649   0.80916   0.65798   0.00000  Uiso   1.00
O2047  O     0.41921   0.84060   0.89272   0.00000  Uiso   1.00
C2048  C     0.41531   0.86898   0.85540   0.00000  Uiso   1.00
H2049  H     0.42587   0.84899   0.82651   0.00000  Uiso   1.00
H2050  H     0.43250   0.90178   0.85722   0.00000  Uiso   1.00
C2051  C     0.37080   0.88027   0.84786   0.00000  Uiso   1.00
H2052  H     0.35478   0.89682   0.87644   0.00000  Uiso   1.00
H2053  H     0.36967   0.90562   0.82075   0.00000  Uiso   1.00
H2054  H     0.35428   0.84861   0.83945   0.00000  Uiso   1.00
O2055  O     0.57371   0.83276   0.61023   0.00000  Uiso   1.00
C2056  C     0.58427   0.87935   0.61642   0.00000  Uiso   1.00
H2057  H     0.56132   0.89716   0.63888   0.00000  Uiso   1.00
H2058  H     0.58709   0.89833   0.58449   0.00000  Uiso   1.00
C2059  C     0.62465   0.88121   0.63831   0.00000  Uiso   1.00
H2060  H     0.65053   0.87397   0.61421   0.00000  Uiso   1.00
H2061  H     0.62866   0.91577   0.65318   0.00000  Uiso   1.00
H2062  H     0.62501   0.85465   0.66429   0.00000  Uiso   1.00
S2063  S     0.38134   0.89275   0.96543   0.00000  Uiso   1.00
O2064  O     0.35522   0.85716   0.94514   0.00000  Uiso   1.00
O2065  O     0.35496   0.91825   0.99965   0.00000  Uiso   1.00
O2066  O     0.39831   0.93204   0.92822   0.00000  Uiso   1.00
H2067  H     0.41711   0.95171   0.94424   0.00000  Uiso   1.00
S2068  S     0.61693   0.79588   0.52895   0.00000  Uiso   1.00
O2069  O     0.60864   0.76303   0.56664   0.00000  Uiso   1.00
O2070  O     0.63344   0.76883   0.98933   0.00000  Uiso   1.00
O2071  O     0.65251   0.83379   0.54206   0.00000  Uiso   1.00
H2072  H     0.64003   0.86435   0.53717   0.00000  Uiso   1.00
O2073  O     0.39577   0.88163   0.55992   0.00000  Uiso   1.00
C2074  C     0.40734   0.92699   0.57097   0.00000  Uiso   1.00
H2075  H     0.41452   0.94815   0.54090   0.00000  Uiso   1.00
H2076  H     0.43470   0.92625   0.59055   0.00000  Uiso   1.00
C2077  C     0.37277   0.95073   0.59830   0.00000  Uiso   1.00
H2078  H     0.36716   0.93240   0.63009   0.00000  Uiso   1.00
H2079  H     0.38114   0.98689   0.60530   0.00000  Uiso   1.00
H2080  H     0.34431   0.95101   0.58017   0.00000  Uiso   1.00
O2081  O     0.60252   0.86125   0.95037   0.00000  Uiso   1.00
C2082  C     0.59491   0.90945   0.95556   0.00000  Uiso   1.00
H2083  H     0.60536   0.92120   0.98794   0.00000  Uiso   1.00
H2084  H     0.56191   0.91919   0.95438   0.00000  Uiso   1.00
C2085  C     0.61722   0.93632   0.91865   0.00000  Uiso   1.00
H2086  H     0.61539   0.91802   0.88666   0.00000  Uiso   1.00
H2087  H     0.60318   0.97113   0.91598   0.00000  Uiso   1.00
H2088  H     0.64953   0.94111   0.92591   0.00000  Uiso   1.00
S2089  S     0.54596   0.70670   0.66864   0.00000  Uiso   1.00
O2090  O     0.57041   0.74825   0.67901   0.00000  Uiso   1.00
O2091  O     0.57540   0.66705   0.66083   0.00000  Uiso   1.00
O2092  O     0.52319   0.71551   0.62092   0.00000  Uiso   1.00
H2093  H     0.49836   0.73402   0.62864   0.00000  Uiso   1.00
S2094  S     0.53104   0.96106   0.83399   0.00000  Uiso   1.00
O2095  O     0.55210   0.66984   0.85010   0.00000  Uiso   1.00
O2096  O     0.50308   0.94387   0.87132   0.00000  Uiso   1.00
O2097  O     0.56728   0.92128   0.82100   0.00000  Uiso   1.00
H2098  H     0.59093   0.93892   0.80848   0.00000  Uiso   1.00
S2099  S     0.45394   0.70707   0.83114   0.00000  Uiso   1.00
O2100  O     0.43027   0.75002   0.82188   0.00000  Uiso   1.00
O2101  O     0.42386   0.66845   0.83682   0.00000  Uiso   1.00
O2102  O     0.47594   0.71304   0.87962   0.00000  Uiso   1.00
H2103  H     0.49824   0.73527   0.87412   0.00000  Uiso   1.00
S2104  S     0.47000   0.96212   0.66609   0.00000  Uiso   1.00
O2105  O     0.44873   0.67136   0.65042   0.00000  Uiso   1.00
O2106  O     0.49824   0.94471   0.62877   0.00000  Uiso   1.00
O2107  O     0.43396   0.92311   0.67893   0.00000  Uiso   1.00
H2108  H     0.41035   0.94169   0.69086   0.00000  Uiso   1.00
C2109  C     0.75432   0.83335   0.74732   0.00000  Uiso   1.00
C2110  C     0.91253   0.83313   0.75005   0.00000  Uiso   1.00
C2111  C     0.76008   0.86223   0.53256   0.00000  Uiso   1.00
C2112  C     0.90319   0.83838   0.97108   0.00000  Uiso   1.00
C2113  C     0.68836   0.79121   0.74932   0.00000  Uiso   1.00
C2114  C     0.97857   0.87450   0.74600   0.00000  Uiso   1.00
C2115  C     0.97919   0.79109   0.75031   0.00000  Uiso   1.00
C2116  C     0.68762   0.87446   0.74350   0.00000  Uiso   1.00
C2117  C     0.95728   0.83283   0.74933   0.00000  Uiso   1.00
C2118  C     0.70961   0.83304   0.74625   0.00000  Uiso   1.00
C2119  C     0.84344   0.69018   0.71242   0.00000  Uiso   1.00
C2120  C     0.83538   0.97666   0.78831   0.00000  Uiso   1.00
C2121  C     0.82383   0.69047   0.78776   0.00000  Uiso   1.00
C2122  C     0.83202   0.97667   0.71174   0.00000  Uiso   1.00
C2123  C     0.83406   0.83318   0.66462   0.00000  Uiso   1.00
C2124  C     0.83120   0.83360   0.83565   0.00000  Uiso   1.00
C2125  C     0.86534   0.83336   0.90491   0.00000  Uiso   1.00
C2126  C     0.79602   0.83667   0.59693   0.00000  Uiso   1.00
C2127  C     0.82825   0.83556   0.88451   0.00000  Uiso   1.00
C2128  C     0.83353   0.83283   0.61642   0.00000  Uiso   1.00
C2129  C     0.79073   0.84438   0.91053   0.00000  Uiso   1.00
C2130  C     0.87031   0.83122   0.59008   0.00000  Uiso   1.00
C2131  C     0.79185   0.84883   0.95771   0.00000  Uiso   1.00
C2132  C     0.86920   0.82968   0.54341   0.00000  Uiso   1.00
C2133  C     0.82937   0.84019   0.97748   0.00000  Uiso   1.00
C2134  C     0.83124   0.83809   0.52405   0.00000  Uiso   1.00
C2135  C     0.86587   0.83668   0.95098   0.00000  Uiso   1.00
C2136  C     0.79532   0.84460   0.55115   0.00000  Uiso   1.00
C2137  C     0.75772   0.86407   0.98618   0.00000  Uiso   1.00
C2138  C     0.90502   0.82531   0.51511   0.00000  Uiso   1.00
Cu2139 Cu    0.83333   0.88022   0.75000   0.00000  Uiso   1.00
Cu2140 Cu    0.83333   0.78645   0.75000   0.00000  Uiso   1.00
H2141  H     0.70447   0.75856   0.75106   0.00000  Uiso   1.00
H2142  H     0.96256   0.90720   0.74432   0.00000  Uiso   1.00
H2143  H     0.96355   0.75840   0.75251   0.00000  Uiso   1.00
H2144  H     0.70296   0.90718   0.74158   0.00000  Uiso   1.00
N2145  N     0.83333   0.95069   0.75000   0.00000  Uiso   1.00
N2146  N     0.83333   0.71598   0.75000   0.00000  Uiso   1.00
O2147  O     0.77321   0.87291   0.74999   0.00000  Uiso   1.00
O2148  O     0.89345   0.79375   0.75000   0.00000  Uiso   1.00
O2149  O     0.89345   0.87291   0.75000   0.00000  Uiso   1.00
O2150  O     0.77321   0.79375   0.74999   0.00000  Uiso   1.00
O2151  O     0.83332   0.87293   0.68513   0.00000  Uiso   1.00
O2152  O     0.83334   0.79373   0.81487   0.00000  Uiso   1.00
O2153  O     0.83334   0.87293   0.81487   0.00000  Uiso   1.00
O2154  O     0.83332   0.79373   0.68513   0.00000  Uiso   1.00
O2155  O     0.90166   0.82763   0.87942   0.00000  Uiso   1.00
C2156  C     0.91293   0.78037   0.87834   0.00000  Uiso   1.00
H2157  H     0.89898   0.76335   0.85013   0.00000  Uiso   1.00
H2158  H     0.90363   0.76146   0.90934   0.00000  Uiso   1.00
C2159  C     0.95908   0.77592   0.87133   0.00000  Uiso   1.00
H2160  H     0.97417   0.79228   0.89915   0.00000  Uiso   1.00
H2161  H     0.96814   0.73895   0.86935   0.00000  Uiso   1.00
H2162  H     0.96938   0.79306   0.84012   0.00000  Uiso   1.00
O2163  O     0.75986   0.83446   0.62288   0.00000  Uiso   1.00
C2164  C     0.74886   0.78766   0.62852   0.00000  Uiso   1.00
H2165  H     0.76142   0.77426   0.65927   0.00000  Uiso   1.00
H2166  H     0.75982   0.76489   0.60034   0.00000  Uiso   1.00
C2167  C     0.70259   0.78408   0.63311   0.00000  Uiso   1.00
H2168  H     0.68965   0.79149   0.60091   0.00000  Uiso   1.00
H2169  H     0.69374   0.74870   0.64353   0.00000  Uiso   1.00
H2170  H     0.68982   0.80916   0.65798   0.00000  Uiso   1.00
O2171  O     0.75255   0.84060   0.89272   0.00000  Uiso   1.00
C2172  C     0.74864   0.86898   0.85540   0.00000  Uiso   1.00
H2173  H     0.75920   0.84899   0.82651   0.00000  Uiso   1.00
H2174  H     0.76583   0.90178   0.85722   0.00000  Uiso   1.00
C2175  C     0.70413   0.88027   0.84786   0.00000  Uiso   1.00
H2176  H     0.68811   0.89682   0.87644   0.00000  Uiso   1.00
H2177  H     0.70300   0.90562   0.82075   0.00000  Uiso   1.00
H2178  H     0.68761   0.84861   0.83945   0.00000  Uiso   1.00
O2179  O     0.90705   0.83276   0.61023   0.00000  Uiso   1.00
C2180  C     0.91760   0.87935   0.61642   0.00000  Uiso   1.00
H2181  H     0.89465   0.89716   0.63888   0.00000  Uiso   1.00
H2182  H     0.92043   0.89833   0.58449   0.00000  Uiso   1.00
C2183  C     0.95799   0.88121   0.63831   0.00000  Uiso   1.00
H2184  H     0.98387   0.87397   0.61421   0.00000  Uiso   1.00
H2185  H     0.96200   0.91577   0.65318   0.00000  Uiso   1.00
H2186  H     0.95835   0.85465   0.66429   0.00000  Uiso   1.00
S2187  S     0.71468   0.89275   0.96543   0.00000  Uiso   1.00
O2188  O     0.68855   0.85716   0.94514   0.00000  Uiso   1.00
O2189  O     0.68829   0.91825   0.99965   0.00000  Uiso   1.00
O2190  O     0.73164   0.93204   0.92822   0.00000  Uiso   1.00
H2191  H     0.75044   0.95171   0.94424   0.00000  Uiso   1.00
S2192  S     0.95027   0.79588   0.52895   0.00000  Uiso   1.00
O2193  O     0.94197   0.76303   0.56664   0.00000  Uiso   1.00
O2194  O     0.96678   0.76883   0.98933   0.00000  Uiso   1.00
O2195  O     0.98584   0.83379   0.54206   0.00000  Uiso   1.00
H2196  H     0.97337   0.86435   0.53717   0.00000  Uiso   1.00
O2197  O     0.72911   0.88163   0.55992   0.00000  Uiso   1.00
C2198  C     0.74067   0.92699   0.57097   0.00000  Uiso   1.00
H2199  H     0.74785   0.94815   0.54090   0.00000  Uiso   1.00
H2200  H     0.76803   0.92625   0.59055   0.00000  Uiso   1.00
C2201  C     0.70611   0.95073   0.59830   0.00000  Uiso   1.00
H2202  H     0.70050   0.93240   0.63009   0.00000  Uiso   1.00
H2203  H     0.71447   0.98689   0.60530   0.00000  Uiso   1.00
H2204  H     0.67765   0.95101   0.58017   0.00000  Uiso   1.00
O2205  O     0.93585   0.86125   0.95037   0.00000  Uiso   1.00
C2206  C     0.92824   0.90945   0.95556   0.00000  Uiso   1.00
H2207  H     0.93869   0.92120   0.98794   0.00000  Uiso   1.00
H2208  H     0.89524   0.91919   0.95438   0.00000  Uiso   1.00
C2209  C     0.95056   0.93632   0.91865   0.00000  Uiso   1.00
H2210  H     0.94872   0.91802   0.88666   0.00000  Uiso   1.00
H2211  H     0.93651   0.97113   0.91598   0.00000  Uiso   1.00
H2212  H     0.98286   0.94111   0.92591   0.00000  Uiso   1.00
S2213  S     0.87929   0.70670   0.66864   0.00000  Uiso   1.00
O2214  O     0.90374   0.74825   0.67901   0.00000  Uiso   1.00
O2215  O     0.90873   0.66705   0.66083   0.00000  Uiso   1.00
O2216  O     0.85653   0.71551   0.62092   0.00000  Uiso   1.00
H2217  H     0.83169   0.73402   0.62864   0.00000  Uiso   1.00
S2218  S     0.86437   0.96106   0.83399   0.00000  Uiso   1.00
O2219  O     0.88543   0.66984   0.85010   0.00000  Uiso   1.00
O2220  O     0.83641   0.94387   0.87132   0.00000  Uiso   1.00
O2221  O     0.90061   0.92128   0.82100   0.00000  Uiso   1.00
H2222  H     0.92426   0.93892   0.80848   0.00000  Uiso   1.00
S2223  S     0.78727   0.70707   0.83114   0.00000  Uiso   1.00
O2224  O     0.76360   0.75002   0.82188   0.00000  Uiso   1.00
O2225  O     0.75719   0.66845   0.83682   0.00000  Uiso   1.00
O2226  O     0.80928   0.71304   0.87962   0.00000  Uiso   1.00
H2227  H     0.83157   0.73527   0.87412   0.00000  Uiso   1.00
S2228  S     0.80334   0.96212   0.66609   0.00000  Uiso   1.00
O2229  O     0.78206   0.67136   0.65042   0.00000  Uiso   1.00
O2230  O     0.83158   0.94471   0.62877   0.00000  Uiso   1.00
O2231  O     0.76729   0.92311   0.67893   0.00000  Uiso   1.00
H2232  H     0.74368   0.94169   0.69086   0.00000  Uiso   1.00
loop_
_geom_bond_atom_site_label_1
_geom_bond_atom_site_label_2
_geom_bond_distance
_geom_bond_site_symmetry_2
_ccdc_geom_bond_type
C1     C10     1.467   .     S
C1     O39     1.314   .     A
C1     O42     1.305   .     A
C2     O41     1.307   .     A
C2     O40     1.308   .     A
C2     C9      1.465   .     S
C3     C28     1.407   .     A
C3     O89     1.386   .     S
C3     C1145   1.412   1_554 S
C4     O97     1.384   .     S
C4     C27     1.399   .     A
C4     C1146   1.392   .     S
C5     H33     1.083   .     S
C5     C10     1.405   .     A
C5     C255    1.392   1_455 S
C6     C9      1.403   .     A
C6     H34     1.082   .     S
C6     C132    1.387   .     S
C7     C9      1.403   .     A
C7     H35     1.083   .     S
C7     C129    1.392   .     S
C8     H36     1.079   .     S
C8     C10     1.400   .     A
C8     C254    1.387   1_455 S
C11    S105    1.789   .     S
C11    N38     1.383   .     A
C11    C758    1.413   1_545 S
C12    S110    1.780   .     S
C12    N37     1.387   .     A
C12    C385    1.416   .     S
C13    N38     1.385   .     A
C13    S115    1.787   .     S
C13    C756    1.416   1_545 S
C14    S120    1.769   .     S
C14    N37     1.386   .     A
C14    C383    1.413   .     S
C15    C20     1.461   .     S
C15    O43     1.308   .     A
C15    O46     1.303   .     A
C16    O44     1.315   .     A
C16    O45     1.305   .     A
C16    C19     1.478   .     S
C17    C27     1.399   .     A
C17    O47     1.389   .     S
C17    C19     1.397   .     A
C18    C28     1.407   .     A
C18    O55     1.385   .     S
C18    C20     1.398   .     A
C19    C21     1.441   .     A
C20    C22     1.406   .     A
C21    C23     1.437   .     A
C21    O63     1.396   .     S
C22    C24     1.417   .     A
C22    O71     1.382   .     S
C23    C29     1.437   .     A
C23    C25     1.419   .     A
C24    C26     1.425   .     A
C24    C30     1.417   .     A
C25    C27     1.404   .     A
C25    C1142   1.417   .     S
C26    C28     1.406   .     A
C26    C1141   1.417   1_554 S
C29    S79     1.778   .     S
C29    C1119   1.412   .     S
C30    S84     1.775   .     S
C30    C1120   1.392   1_554 S
Cu31   O43     1.976   .     S
Cu31   O39     1.984   .     S
Cu31   N37     2.044   .     S
Cu31   Cu32    2.720   .     S
Cu31   O41     1.979   .     S
Cu31   O45     1.977   .     S
Cu32   N38     2.044   .     S
Cu32   O46     1.977   .     S
Cu32   O44     1.976   .     S
Cu32   O40     1.984   .     S
Cu32   O42     1.979   .     S
O47    C48     1.416   .     S
C48    C51     1.519   .     S
C48    H50     1.117   .     S
C48    H49     1.110   .     S
C51    H54     1.106   .     S
C51    H52     1.110   .     S
C51    H53     1.111   .     S
O55    C56     1.417   .     S
C56    H57     1.110   .     S
C56    C59     1.519   .     S
C56    H58     1.118   .     S
C59    H60     1.107   .     S
C59    H61     1.111   .     S
C59    H62     1.108   .     S
O63    C64     1.411   .     S
C64    C67     1.522   .     S
C64    H66     1.113   .     S
C64    H65     1.086   .     S
C67    H68     1.093   .     S
C67    H69     1.106   .     S
C67    H70     1.108   .     S
O71    C72     1.413   .     S
C72    C75     1.516   .     S
C72    H74     1.114   .     S
C72    H73     1.107   .     S
C75    H76     1.104   .     S
C75    H77     1.110   .     S
C75    H78     1.103   .     S
S79    O81     1.499   .     D
S79    O80     1.501   .     D
S79    O82     1.680   .     S
O82    H83     0.990   .     S
S84    O87     1.674   .     S
S84    O85     1.503   .     D
S84    O1202   1.503   1_554 S
O86    S1200   1.503   .     S
O87    H88     0.988   .     S
O89    C90     1.418   .     S
C90    H92     1.104   .     S
C90    C93     1.521   .     S
C90    H91     1.114   .     S
C93    H94     1.108   .     S
C93    H96     1.110   .     S
C93    H95     1.110   .     S
O97    C98     1.425   .     S
C98    H99     1.112   .     S
C98    C101    1.520   .     S
C98    H100    1.118   .     S
C101   H102    1.109   .     S
C101   H103    1.111   .     S
C101   H104    1.104   .     S
S105   O107    1.503   .     D
S105   O108    1.684   .     S
S105   O106    1.497   .     D
O108   H109    0.987   .     S
S110   O112    1.502   .     D
S110   O113    1.677   .     S
S110   O483    1.504   .     S
O111   S854    1.504   1_545 S
O113   H114    0.990   .     S
S115   O116    1.497   .     D
S115   O117    1.503   .     D
S115   O118    1.683   .     S
O118   H119    0.987   .     S
S120   O123    1.674   .     S
S120   O122    1.502   .     D
S120   O493    1.504   .     S
O121   S864    1.504   1_545 S
O123   H124    0.989   .     S
C125   C134    1.467   .     S
C125   O163    1.314   .     A
C125   O166    1.305   .     A
C126   O165    1.307   .     A
C126   O164    1.308   .     A
C126   C133    1.465   .     S
C127   C152    1.407   .     A
C127   O213    1.386   .     S
C127   C1269   1.412   1_554 S
C128   O221    1.384   .     S
C128   C151    1.399   .     A
C128   C1270   1.392   .     S
C129   H157    1.083   .     S
C129   C134    1.405   .     A
C130   C133    1.403   .     A
C130   H158    1.082   .     S
C130   C256    1.387   .     S
C131   C133    1.403   .     A
C131   H159    1.083   .     S
C131   C253    1.392   .     S
C132   H160    1.079   .     S
C132   C134    1.400   .     A
C135   S229    1.789   .     S
C135   N162    1.383   .     A
C135   C882    1.413   1_545 S
C136   S234    1.780   .     S
C136   N161    1.387   .     A
C136   C509    1.416   .     S
C137   N162    1.385   .     A
C137   S239    1.787   .     S
C137   C880    1.416   1_545 S
C138   S244    1.769   .     S
C138   N161    1.386   .     A
C138   C507    1.413   .     S
C139   C144    1.461   .     S
C139   O167    1.308   .     A
C139   O170    1.303   .     A
C140   O168    1.315   .     A
C140   O169    1.305   .     A
C140   C143    1.478   .     S
C141   C151    1.399   .     A
C141   O171    1.389   .     S
C141   C143    1.397   .     A
C142   C152    1.407   .     A
C142   O179    1.385   .     S
C142   C144    1.398   .     A
C143   C145    1.441   .     A
C144   C146    1.406   .     A
C145   C147    1.437   .     A
C145   O187    1.396   .     S
C146   C148    1.417   .     A
C146   O195    1.382   .     S
C147   C153    1.437   .     A
C147   C149    1.419   .     A
C148   C150    1.425   .     A
C148   C154    1.417   .     A
C149   C151    1.404   .     A
C149   C1266   1.417   .     S
C150   C152    1.406   .     A
C150   C1265   1.417   1_554 S
C153   S203    1.778   .     S
C153   C1243   1.412   .     S
C154   S208    1.775   .     S
C154   C1244   1.392   1_554 S
Cu155  O167    1.976   .     S
Cu155  O163    1.984   .     S
Cu155  N161    2.044   .     S
Cu155  Cu156   2.720   .     S
Cu155  O165    1.979   .     S
Cu155  O169    1.977   .     S
Cu156  N162    2.044   .     S
Cu156  O170    1.977   .     S
Cu156  O168    1.976   .     S
Cu156  O164    1.984   .     S
Cu156  O166    1.979   .     S
O171   C172    1.416   .     S
C172   C175    1.519   .     S
C172   H174    1.117   .     S
C172   H173    1.110   .     S
C175   H178    1.106   .     S
C175   H176    1.110   .     S
C175   H177    1.111   .     S
O179   C180    1.417   .     S
C180   H181    1.110   .     S
C180   C183    1.519   .     S
C180   H182    1.118   .     S
C183   H184    1.107   .     S
C183   H185    1.111   .     S
C183   H186    1.108   .     S
O187   C188    1.411   .     S
C188   C191    1.522   .     S
C188   H190    1.113   .     S
C188   H189    1.086   .     S
C191   H192    1.093   .     S
C191   H193    1.106   .     S
C191   H194    1.108   .     S
O195   C196    1.413   .     S
C196   C199    1.516   .     S
C196   H198    1.114   .     S
C196   H197    1.107   .     S
C199   H200    1.104   .     S
C199   H201    1.110   .     S
C199   H202    1.103   .     S
S203   O205    1.499   .     D
S203   O204    1.501   .     D
S203   O206    1.680   .     S
O206   H207    0.990   .     S
S208   O211    1.674   .     S
S208   O209    1.503   .     D
S208   O1326   1.503   1_554 S
O210   S1324   1.503   .     S
O211   H212    0.988   .     S
O213   C214    1.418   .     S
C214   H216    1.104   .     S
C214   C217    1.521   .     S
C214   H215    1.114   .     S
C217   H218    1.108   .     S
C217   H220    1.110   .     S
C217   H219    1.110   .     S
O221   C222    1.425   .     S
C222   H223    1.112   .     S
C222   C225    1.520   .     S
C222   H224    1.118   .     S
C225   H226    1.109   .     S
C225   H227    1.111   .     S
C225   H228    1.104   .     S
S229   O231    1.503   .     D
S229   O232    1.684   .     S
S229   O230    1.497   .     D
O232   H233    0.987   .     S
S234   O236    1.502   .     D
S234   O237    1.677   .     S
S234   O607    1.504   .     S
O235   S978    1.504   1_545 S
O237   H238    0.990   .     S
S239   O240    1.497   .     D
S239   O241    1.503   .     D
S239   O242    1.683   .     S
O242   H243    0.987   .     S
S244   O247    1.674   .     S
S244   O246    1.502   .     D
S244   O617    1.504   .     S
O245   S988    1.504   1_545 S
O247   H248    0.989   .     S
C249   C258    1.467   .     S
C249   O287    1.314   .     A
C249   O290    1.305   .     A
C250   O289    1.307   .     A
C250   O288    1.308   .     A
C250   C257    1.465   .     S
C251   C276    1.407   .     A
C251   O337    1.386   .     S
C251   C1393   1.412   1_554 S
C252   O345    1.384   .     S
C252   C275    1.399   .     A
C252   C1394   1.392   .     S
C253   H281    1.083   .     S
C253   C258    1.405   .     A
C254   C257    1.403   .     A
C254   H282    1.082   .     S
C254   C8      1.387   1_655 S
C255   C257    1.403   .     A
C255   H283    1.083   .     S
C255   C5      1.392   1_655 S
C256   H284    1.079   .     S
C256   C258    1.400   .     A
C259   S353    1.789   .     S
C259   N286    1.383   .     A
C259   C1006   1.413   1_545 S
C260   S358    1.780   .     S
C260   N285    1.387   .     A
C260   C633    1.416   .     S
C261   N286    1.385   .     A
C261   S363    1.787   .     S
C261   C1004   1.416   1_545 S
C262   S368    1.769   .     S
C262   N285    1.386   .     A
C262   C631    1.413   .     S
C263   C268    1.461   .     S
C263   O291    1.308   .     A
C263   O294    1.303   .     A
C264   O292    1.315   .     A
C264   O293    1.305   .     A
C264   C267    1.478   .     S
C265   C275    1.399   .     A
C265   O295    1.389   .     S
C265   C267    1.397   .     A
C266   C276    1.407   .     A
C266   O303    1.385   .     S
C266   C268    1.398   .     A
C267   C269    1.441   .     A
C268   C270    1.406   .     A
C269   C271    1.437   .     A
C269   O311    1.396   .     S
C270   C272    1.417   .     A
C270   O319    1.382   .     S
C271   C277    1.437   .     A
C271   C273    1.419   .     A
C272   C274    1.425   .     A
C272   C278    1.417   .     A
C273   C275    1.404   .     A
C273   C1390   1.417   .     S
C274   C276    1.406   .     A
C274   C1389   1.417   1_554 S
C277   S327    1.778   .     S
C277   C1367   1.412   .     S
C278   S332    1.775   .     S
C278   C1368   1.392   1_554 S
Cu279  O291    1.976   .     S
Cu279  O287    1.984   .     S
Cu279  N285    2.044   .     S
Cu279  Cu280   2.720   .     S
Cu279  O289    1.979   .     S
Cu279  O293    1.977   .     S
Cu280  N286    2.044   .     S
Cu280  O294    1.977   .     S
Cu280  O292    1.976   .     S
Cu280  O288    1.984   .     S
Cu280  O290    1.979   .     S
O295   C296    1.416   .     S
C296   C299    1.519   .     S
C296   H298    1.117   .     S
C296   H297    1.110   .     S
C299   H302    1.106   .     S
C299   H300    1.110   .     S
C299   H301    1.111   .     S
O303   C304    1.417   .     S
C304   H305    1.110   .     S
C304   C307    1.519   .     S
C304   H306    1.118   .     S
C307   H308    1.107   .     S
C307   H309    1.111   .     S
C307   H310    1.108   .     S
O311   C312    1.411   .     S
C312   C315    1.522   .     S
C312   H314    1.113   .     S
C312   H313    1.086   .     S
C315   H316    1.093   .     S
C315   H317    1.106   .     S
C315   H318    1.108   .     S
O319   C320    1.413   .     S
C320   C323    1.516   .     S
C320   H322    1.114   .     S
C320   H321    1.107   .     S
C323   H324    1.104   .     S
C323   H325    1.110   .     S
C323   H326    1.103   .     S
S327   O329    1.499   .     D
S327   O328    1.501   .     D
S327   O330    1.680   .     S
O330   H331    0.990   .     S
S332   O335    1.674   .     S
S332   O333    1.503   .     D
S332   O1450   1.503   1_554 S
O334   S1448   1.503   .     S
O335   H336    0.988   .     S
O337   C338    1.418   .     S
C338   H340    1.104   .     S
C338   C341    1.521   .     S
C338   H339    1.114   .     S
C341   H342    1.108   .     S
C341   H344    1.110   .     S
C341   H343    1.110   .     S
O345   C346    1.425   .     S
C346   H347    1.112   .     S
C346   C349    1.520   .     S
C346   H348    1.118   .     S
C349   H350    1.109   .     S
C349   H351    1.111   .     S
C349   H352    1.104   .     S
S353   O355    1.503   .     D
S353   O356    1.684   .     S
S353   O354    1.497   .     D
O356   H357    0.987   .     S
S358   O360    1.502   .     D
S358   O361    1.677   .     S
S358   O731    1.504   .     S
O359   S1102   1.504   1_545 S
O361   H362    0.990   .     S
S363   O364    1.497   .     D
S363   O365    1.503   .     D
S363   O366    1.683   .     S
O366   H367    0.987   .     S
S368   O371    1.674   .     S
S368   O370    1.502   .     D
S368   O741    1.504   .     S
O369   S1112   1.504   1_545 S
O371   H372    0.989   .     S
C373   C382    1.467   .     S
C373   O411    1.314   .     A
C373   O414    1.305   .     A
C374   O413    1.307   .     A
C374   O412    1.308   .     A
C374   C381    1.465   .     S
C375   C400    1.407   .     A
C375   O461    1.386   .     S
C375   C1517   1.412   1_554 S
C376   O469    1.384   .     S
C376   C399    1.399   .     A
C376   C1518   1.392   .     S
C377   H405    1.083   .     S
C377   C382    1.405   .     A
C377   C627    1.392   1_455 S
C378   C381    1.403   .     A
C378   H406    1.082   .     S
C378   C504    1.387   .     S
C379   C381    1.403   .     A
C379   H407    1.083   .     S
C379   C501    1.392   .     S
C380   H408    1.079   .     S
C380   C382    1.400   .     A
C380   C626    1.387   1_455 S
C383   S477    1.789   .     S
C383   N410    1.383   .     A
C384   S482    1.780   .     S
C384   N409    1.387   .     A
C384   C757    1.416   .     S
C385   N410    1.385   .     A
C385   S487    1.787   .     S
C386   S492    1.769   .     S
C386   N409    1.386   .     A
C386   C755    1.413   .     S
C387   C392    1.461   .     S
C387   O415    1.308   .     A
C387   O418    1.303   .     A
C388   O416    1.315   .     A
C388   O417    1.305   .     A
C388   C391    1.478   .     S
C389   C399    1.399   .     A
C389   O419    1.389   .     S
C389   C391    1.397   .     A
C390   C400    1.407   .     A
C390   O427    1.385   .     S
C390   C392    1.398   .     A
C391   C393    1.441   .     A
C392   C394    1.406   .     A
C393   C395    1.437   .     A
C393   O435    1.396   .     S
C394   C396    1.417   .     A
C394   O443    1.382   .     S
C395   C401    1.437   .     A
C395   C397    1.419   .     A
C396   C398    1.425   .     A
C396   C402    1.417   .     A
C397   C399    1.404   .     A
C397   C1514   1.417   .     S
C398   C400    1.406   .     A
C398   C1513   1.417   1_554 S
C401   S451    1.778   .     S
C401   C1491   1.412   .     S
C402   S456    1.775   .     S
C402   C1492   1.392   1_554 S
Cu403  O415    1.976   .     S
Cu403  O411    1.984   .     S
Cu403  N409    2.044   .     S
Cu403  Cu404   2.720   .     S
Cu403  O413    1.979   .     S
Cu403  O417    1.977   .     S
Cu404  N410    2.044   .     S
Cu404  O418    1.977   .     S
Cu404  O416    1.976   .     S
Cu404  O412    1.984   .     S
Cu404  O414    1.979   .     S
O419   C420    1.416   .     S
C420   C423    1.519   .     S
C420   H422    1.117   .     S
C420   H421    1.110   .     S
C423   H426    1.106   .     S
C423   H424    1.110   .     S
C423   H425    1.111   .     S
O427   C428    1.417   .     S
C428   H429    1.110   .     S
C428   C431    1.519   .     S
C428   H430    1.118   .     S
C431   H432    1.107   .     S
C431   H433    1.111   .     S
C431   H434    1.108   .     S
O435   C436    1.411   .     S
C436   C439    1.522   .     S
C436   H438    1.113   .     S
C436   H437    1.086   .     S
C439   H440    1.093   .     S
C439   H441    1.106   .     S
C439   H442    1.108   .     S
O443   C444    1.413   .     S
C444   C447    1.516   .     S
C444   H446    1.114   .     S
C444   H445    1.107   .     S
C447   H448    1.104   .     S
C447   H449    1.110   .     S
C447   H450    1.103   .     S
S451   O453    1.499   .     D
S451   O452    1.501   .     D
S451   O454    1.680   .     S
O454   H455    0.990   .     S
S456   O459    1.674   .     S
S456   O457    1.503   .     D
S456   O1574   1.503   1_554 S
O458   S1572   1.503   .     S
O459   H460    0.988   .     S
O461   C462    1.418   .     S
C462   H464    1.104   .     S
C462   C465    1.521   .     S
C462   H463    1.114   .     S
C465   H466    1.108   .     S
C465   H468    1.110   .     S
C465   H467    1.110   .     S
O469   C470    1.425   .     S
C470   H471    1.112   .     S
C470   C473    1.520   .     S
C470   H472    1.118   .     S
C473   H474    1.109   .     S
C473   H475    1.111   .     S
C473   H476    1.104   .     S
S477   O479    1.503   .     D
S477   O480    1.684   .     S
S477   O478    1.497   .     D
O480   H481    0.987   .     S
S482   O484    1.502   .     D
S482   O485    1.677   .     S
S482   O855    1.504   .     S
O485   H486    0.990   .     S
S487   O488    1.497   .     D
S487   O489    1.503   .     D
S487   O490    1.683   .     S
O490   H491    0.987   .     S
S492   O495    1.674   .     S
S492   O494    1.502   .     D
S492   O865    1.504   .     S
O495   H496    0.989   .     S
C497   C506    1.467   .     S
C497   O535    1.314   .     A
C497   O538    1.305   .     A
C498   O537    1.307   .     A
C498   O536    1.308   .     A
C498   C505    1.465   .     S
C499   C524    1.407   .     A
C499   O585    1.386   .     S
C499   C1641   1.412   1_554 S
C500   O593    1.384   .     S
C500   C523    1.399   .     A
C500   C1642   1.392   .     S
C501   H529    1.083   .     S
C501   C506    1.405   .     A
C502   C505    1.403   .     A
C502   H530    1.082   .     S
C502   C628    1.387   .     S
C503   C505    1.403   .     A
C503   H531    1.083   .     S
C503   C625    1.392   .     S
C504   H532    1.079   .     S
C504   C506    1.400   .     A
C507   S601    1.789   .     S
C507   N534    1.383   .     A
C508   S606    1.780   .     S
C508   N533    1.387   .     A
C508   C881    1.416   .     S
C509   N534    1.385   .     A
C509   S611    1.787   .     S
C510   S616    1.769   .     S
C510   N533    1.386   .     A
C510   C879    1.413   .     S
C511   C516    1.461   .     S
C511   O539    1.308   .     A
C511   O542    1.303   .     A
C512   O540    1.315   .     A
C512   O541    1.305   .     A
C512   C515    1.478   .     S
C513   C523    1.399   .     A
C513   O543    1.389   .     S
C513   C515    1.397   .     A
C514   C524    1.407   .     A
C514   O551    1.385   .     S
C514   C516    1.398   .     A
C515   C517    1.441   .     A
C516   C518    1.406   .     A
C517   C519    1.437   .     A
C517   O559    1.396   .     S
C518   C520    1.417   .     A
C518   O567    1.382   .     S
C519   C525    1.437   .     A
C519   C521    1.419   .     A
C520   C522    1.425   .     A
C520   C526    1.417   .     A
C521   C523    1.404   .     A
C521   C1638   1.417   .     S
C522   C524    1.406   .     A
C522   C1637   1.417   1_554 S
C525   S575    1.778   .     S
C525   C1615   1.412   .     S
C526   S580    1.775   .     S
C526   C1616   1.392   1_554 S
Cu527  O539    1.976   .     S
Cu527  O535    1.984   .     S
Cu527  N533    2.044   .     S
Cu527  Cu528   2.720   .     S
Cu527  O537    1.979   .     S
Cu527  O541    1.977   .     S
Cu528  N534    2.044   .     S
Cu528  O542    1.977   .     S
Cu528  O540    1.976   .     S
Cu528  O536    1.984   .     S
Cu528  O538    1.979   .     S
O543   C544    1.416   .     S
C544   C547    1.519   .     S
C544   H546    1.117   .     S
C544   H545    1.110   .     S
C547   H550    1.106   .     S
C547   H548    1.110   .     S
C547   H549    1.111   .     S
O551   C552    1.417   .     S
C552   H553    1.110   .     S
C552   C555    1.519   .     S
C552   H554    1.118   .     S
C555   H556    1.107   .     S
C555   H557    1.111   .     S
C555   H558    1.108   .     S
O559   C560    1.411   .     S
C560   C563    1.522   .     S
C560   H562    1.113   .     S
C560   H561    1.086   .     S
C563   H564    1.093   .     S
C563   H565    1.106   .     S
C563   H566    1.108   .     S
O567   C568    1.413   .     S
C568   C571    1.516   .     S
C568   H570    1.114   .     S
C568   H569    1.107   .     S
C571   H572    1.104   .     S
C571   H573    1.110   .     S
C571   H574    1.103   .     S
S575   O577    1.499   .     D
S575   O576    1.501   .     D
S575   O578    1.680   .     S
O578   H579    0.990   .     S
S580   O583    1.674   .     S
S580   O581    1.503   .     D
S580   O1698   1.503   1_554 S
O582   S1696   1.503   .     S
O583   H584    0.988   .     S
O585   C586    1.418   .     S
C586   H588    1.104   .     S
C586   C589    1.521   .     S
C586   H587    1.114   .     S
C589   H590    1.108   .     S
C589   H592    1.110   .     S
C589   H591    1.110   .     S
O593   C594    1.425   .     S
C594   H595    1.112   .     S
C594   C597    1.520   .     S
C594   H596    1.118   .     S
C597   H598    1.109   .     S
C597   H599    1.111   .     S
C597   H600    1.104   .     S
S601   O603    1.503   .     D
S601   O604    1.684   .     S
S601   O602    1.497   .     D
O604   H605    0.987   .     S
S606   O608    1.502   .     D
S606   O609    1.677   .     S
S606   O979    1.504   .     S
O609   H610    0.990   .     S
S611   O612    1.497   .     D
S611   O613    1.503   .     D
S611   O614    1.683   .     S
O614   H615    0.987   .     S
S616   O619    1.674   .     S
S616   O618    1.502   .     D
S616   O989    1.504   .     S
O619   H620    0.989   .     S
C621   C630    1.467   .     S
C621   O659    1.314   .     A
C621   O662    1.305   .     A
C622   O661    1.307   .     A
C622   O660    1.308   .     A
C622   C629    1.465   .     S
C623   C648    1.407   .     A
C623   O709    1.386   .     S
C623   C1765   1.412   1_554 S
C624   O717    1.384   .     S
C624   C647    1.399   .     A
C624   C1766   1.392   .     S
C625   H653    1.083   .     S
C625   C630    1.405   .     A
C626   C629    1.403   .     A
C626   H654    1.082   .     S
C626   C380    1.387   1_655 S
C627   C629    1.403   .     A
C627   H655    1.083   .     S
C627   C377    1.392   1_655 S
C628   H656    1.079   .     S
C628   C630    1.400   .     A
C631   S725    1.789   .     S
C631   N658    1.383   .     A
C632   S730    1.780   .     S
C632   N657    1.387   .     A
C632   C1005   1.416   .     S
C633   N658    1.385   .     A
C633   S735    1.787   .     S
C634   S740    1.769   .     S
C634   N657    1.386   .     A
C634   C1003   1.413   .     S
C635   C640    1.461   .     S
C635   O663    1.308   .     A
C635   O666    1.303   .     A
C636   O664    1.315   .     A
C636   O665    1.305   .     A
C636   C639    1.478   .     S
C637   C647    1.399   .     A
C637   O667    1.389   .     S
C637   C639    1.397   .     A
C638   C648    1.407   .     A
C638   O675    1.385   .     S
C638   C640    1.398   .     A
C639   C641    1.441   .     A
C640   C642    1.406   .     A
C641   C643    1.437   .     A
C641   O683    1.396   .     S
C642   C644    1.417   .     A
C642   O691    1.382   .     S
C643   C649    1.437   .     A
C643   C645    1.419   .     A
C644   C646    1.425   .     A
C644   C650    1.417   .     A
C645   C647    1.404   .     A
C645   C1762   1.417   .     S
C646   C648    1.406   .     A
C646   C1761   1.417   1_554 S
C649   S699    1.778   .     S
C649   C1739   1.412   .     S
C650   S704    1.775   .     S
C650   C1740   1.392   1_554 S
Cu651  O663    1.976   .     S
Cu651  O659    1.984   .     S
Cu651  N657    2.044   .     S
Cu651  Cu652   2.720   .     S
Cu651  O661    1.979   .     S
Cu651  O665    1.977   .     S
Cu652  N658    2.044   .     S
Cu652  O666    1.977   .     S
Cu652  O664    1.976   .     S
Cu652  O660    1.984   .     S
Cu652  O662    1.979   .     S
O667   C668    1.416   .     S
C668   C671    1.519   .     S
C668   H670    1.117   .     S
C668   H669    1.110   .     S
C671   H674    1.106   .     S
C671   H672    1.110   .     S
C671   H673    1.111   .     S
O675   C676    1.417   .     S
C676   H677    1.110   .     S
C676   C679    1.519   .     S
C676   H678    1.118   .     S
C679   H680    1.107   .     S
C679   H681    1.111   .     S
C679   H682    1.108   .     S
O683   C684    1.411   .     S
C684   C687    1.522   .     S
C684   H686    1.113   .     S
C684   H685    1.086   .     S
C687   H688    1.093   .     S
C687   H689    1.106   .     S
C687   H690    1.108   .     S
O691   C692    1.413   .     S
C692   C695    1.516   .     S
C692   H694    1.114   .     S
C692   H693    1.107   .     S
C695   H696    1.104   .     S
C695   H697    1.110   .     S
C695   H698    1.103   .     S
S699   O701    1.499   .     D
S699   O700    1.501   .     D
S699   O702    1.680   .     S
O702   H703    0.990   .     S
S704   O707    1.674   .     S
S704   O705    1.503   .     D
S704   O1822   1.503   1_554 S
O706   S1820   1.503   .     S
O707   H708    0.988   .     S
O709   C710    1.418   .     S
C710   H712    1.104   .     S
C710   C713    1.521   .     S
C710   H711    1.114   .     S
C713   H714    1.108   .     S
C713   H716    1.110   .     S
C713   H715    1.110   .     S
O717   C718    1.425   .     S
C718   H719    1.112   .     S
C718   C721    1.520   .     S
C718   H720    1.118   .     S
C721   H722    1.109   .     S
C721   H723    1.111   .     S
C721   H724    1.104   .     S
S725   O727    1.503   .     D
S725   O728    1.684   .     S
S725   O726    1.497   .     D
O728   H729    0.987   .     S
S730   O732    1.502   .     D
S730   O733    1.677   .     S
S730   O1103   1.504   .     S
O733   H734    0.990   .     S
S735   O736    1.497   .     D
S735   O737    1.503   .     D
S735   O738    1.683   .     S
O738   H739    0.987   .     S
S740   O743    1.674   .     S
S740   O742    1.502   .     D
S740   O1113   1.504   .     S
O743   H744    0.989   .     S
C745   C754    1.467   .     S
C745   O783    1.314   .     A
C745   O786    1.305   .     A
C746   O785    1.307   .     A
C746   O784    1.308   .     A
C746   C753    1.465   .     S
C747   C772    1.407   .     A
C747   O833    1.386   .     S
C747   C1889   1.412   1_554 S
C748   O841    1.384   .     S
C748   C771    1.399   .     A
C748   C1890   1.392   .     S
C749   H777    1.083   .     S
C749   C754    1.405   .     A
C749   C999    1.392   1_455 S
C750   C753    1.403   .     A
C750   H778    1.082   .     S
C750   C876    1.387   .     S
C751   C753    1.403   .     A
C751   H779    1.083   .     S
C751   C873    1.392   .     S
C752   H780    1.079   .     S
C752   C754    1.400   .     A
C752   C998    1.387   1_455 S
C755   S849    1.789   .     S
C755   N782    1.383   .     A
C756   S854    1.780   .     S
C756   N781    1.387   .     A
C756   C13     1.416   1_565 S
C757   N782    1.385   .     A
C757   S859    1.787   .     S
C758   S864    1.769   .     S
C758   N781    1.386   .     A
C758   C11     1.413   1_565 S
C759   C764    1.461   .     S
C759   O787    1.308   .     A
C759   O790    1.303   .     A
C760   O788    1.315   .     A
C760   O789    1.305   .     A
C760   C763    1.478   .     S
C761   C771    1.399   .     A
C761   O791    1.389   .     S
C761   C763    1.397   .     A
C762   C772    1.407   .     A
C762   O799    1.385   .     S
C762   C764    1.398   .     A
C763   C765    1.441   .     A
C764   C766    1.406   .     A
C765   C767    1.437   .     A
C765   O807    1.396   .     S
C766   C768    1.417   .     A
C766   O815    1.382   .     S
C767   C773    1.437   .     A
C767   C769    1.419   .     A
C768   C770    1.425   .     A
C768   C774    1.417   .     A
C769   C771    1.404   .     A
C769   C1886   1.417   .     S
C770   C772    1.406   .     A
C770   C1885   1.417   1_554 S
C773   S823    1.778   .     S
C773   C1863   1.412   .     S
C774   S828    1.775   .     S
C774   C1864   1.392   1_554 S
Cu775  O787    1.976   .     S
Cu775  O783    1.984   .     S
Cu775  N781    2.044   .     S
Cu775  Cu776   2.720   .     S
Cu775  O785    1.979   .     S
Cu775  O789    1.977   .     S
Cu776  N782    2.044   .     S
Cu776  O790    1.977   .     S
Cu776  O788    1.976   .     S
Cu776  O784    1.984   .     S
Cu776  O786    1.979   .     S
O791   C792    1.416   .     S
C792   C795    1.519   .     S
C792   H794    1.117   .     S
C792   H793    1.110   .     S
C795   H798    1.106   .     S
C795   H796    1.110   .     S
C795   H797    1.111   .     S
O799   C800    1.417   .     S
C800   H801    1.110   .     S
C800   C803    1.519   .     S
C800   H802    1.118   .     S
C803   H804    1.107   .     S
C803   H805    1.111   .     S
C803   H806    1.108   .     S
O807   C808    1.411   .     S
C808   C811    1.522   .     S
C808   H810    1.113   .     S
C808   H809    1.086   .     S
C811   H812    1.093   .     S
C811   H813    1.106   .     S
C811   H814    1.108   .     S
O815   C816    1.413   .     S
C816   C819    1.516   .     S
C816   H818    1.114   .     S
C816   H817    1.107   .     S
C819   H820    1.104   .     S
C819   H821    1.110   .     S
C819   H822    1.103   .     S
S823   O825    1.499   .     D
S823   O824    1.501   .     D
S823   O826    1.680   .     S
O826   H827    0.990   .     S
S828   O831    1.674   .     S
S828   O829    1.503   .     D
S828   O1946   1.503   1_554 S
O830   S1944   1.503   .     S
O831   H832    0.988   .     S
O833   C834    1.418   .     S
C834   H836    1.104   .     S
C834   C837    1.521   .     S
C834   H835    1.114   .     S
C837   H838    1.108   .     S
C837   H840    1.110   .     S
C837   H839    1.110   .     S
O841   C842    1.425   .     S
C842   H843    1.112   .     S
C842   C845    1.520   .     S
C842   H844    1.118   .     S
C845   H846    1.109   .     S
C845   H847    1.111   .     S
C845   H848    1.104   .     S
S849   O851    1.503   .     D
S849   O852    1.684   .     S
S849   O850    1.497   .     D
O852   H853    0.987   .     S
S854   O856    1.502   .     D
S854   O857    1.677   .     S
S854   O111    1.504   1_565 S
O857   H858    0.990   .     S
S859   O860    1.497   .     D
S859   O861    1.503   .     D
S859   O862    1.683   .     S
O862   H863    0.987   .     S
S864   O867    1.674   .     S
S864   O866    1.502   .     D
S864   O121    1.504   1_565 S
O867   H868    0.989   .     S
C869   C878    1.467   .     S
C869   O907    1.314   .     A
C869   O910    1.305   .     A
C870   O909    1.307   .     A
C870   O908    1.308   .     A
C870   C877    1.465   .     S
C871   C896    1.407   .     A
C871   O957    1.386   .     S
C871   C2013   1.412   1_554 S
C872   O965    1.384   .     S
C872   C895    1.399   .     A
C872   C2014   1.392   .     S
C873   H901    1.083   .     S
C873   C878    1.405   .     A
C874   C877    1.403   .     A
C874   H902    1.082   .     S
C874   C1000   1.387   .     S
C875   C877    1.403   .     A
C875   H903    1.083   .     S
C875   C997    1.392   .     S
C876   H904    1.079   .     S
C876   C878    1.400   .     A
C879   S973    1.789   .     S
C879   N906    1.383   .     A
C880   S978    1.780   .     S
C880   N905    1.387   .     A
C880   C137    1.416   1_565 S
C881   N906    1.385   .     A
C881   S983    1.787   .     S
C882   S988    1.769   .     S
C882   N905    1.386   .     A
C882   C135    1.413   1_565 S
C883   C888    1.461   .     S
C883   O911    1.308   .     A
C883   O914    1.303   .     A
C884   O912    1.315   .     A
C884   O913    1.305   .     A
C884   C887    1.478   .     S
C885   C895    1.399   .     A
C885   O915    1.389   .     S
C885   C887    1.397   .     A
C886   C896    1.407   .     A
C886   O923    1.385   .     S
C886   C888    1.398   .     A
C887   C889    1.441   .     A
C888   C890    1.406   .     A
C889   C891    1.437   .     A
C889   O931    1.396   .     S
C890   C892    1.417   .     A
C890   O939    1.382   .     S
C891   C897    1.437   .     A
C891   C893    1.419   .     A
C892   C894    1.425   .     A
C892   C898    1.417   .     A
C893   C895    1.404   .     A
C893   C2010   1.417   .     S
C894   C896    1.406   .     A
C894   C2009   1.417   1_554 S
C897   S947    1.778   .     S
C897   C1987   1.412   .     S
C898   S952    1.775   .     S
C898   C1988   1.392   1_554 S
Cu899  O911    1.976   .     S
Cu899  O907    1.984   .     S
Cu899  N905    2.044   .     S
Cu899  Cu900   2.720   .     S
Cu899  O909    1.979   .     S
Cu899  O913    1.977   .     S
Cu900  N906    2.044   .     S
Cu900  O914    1.977   .     S
Cu900  O912    1.976   .     S
Cu900  O908    1.984   .     S
Cu900  O910    1.979   .     S
O915   C916    1.416   .     S
C916   C919    1.519   .     S
C916   H918    1.117   .     S
C916   H917    1.110   .     S
C919   H922    1.106   .     S
C919   H920    1.110   .     S
C919   H921    1.111   .     S
O923   C924    1.417   .     S
C924   H925    1.110   .     S
C924   C927    1.519   .     S
C924   H926    1.118   .     S
C927   H928    1.107   .     S
C927   H929    1.111   .     S
C927   H930    1.108   .     S
O931   C932    1.411   .     S
C932   C935    1.522   .     S
C932   H934    1.113   .     S
C932   H933    1.086   .     S
C935   H936    1.093   .     S
C935   H937    1.106   .     S
C935   H938    1.108   .     S
O939   C940    1.413   .     S
C940   C943    1.516   .     S
C940   H942    1.114   .     S
C940   H941    1.107   .     S
C943   H944    1.104   .     S
C943   H945    1.110   .     S
C943   H946    1.103   .     S
S947   O949    1.499   .     D
S947   O948    1.501   .     D
S947   O950    1.680   .     S
O950   H951    0.990   .     S
S952   O955    1.674   .     S
S952   O953    1.503   .     D
S952   O2070   1.503   1_554 S
O954   S2068   1.503   .     S
O955   H956    0.988   .     S
O957   C958    1.418   .     S
C958   H960    1.104   .     S
C958   C961    1.521   .     S
C958   H959    1.114   .     S
C961   H962    1.108   .     S
C961   H964    1.110   .     S
C961   H963    1.110   .     S
O965   C966    1.425   .     S
C966   H967    1.112   .     S
C966   C969    1.520   .     S
C966   H968    1.118   .     S
C969   H970    1.109   .     S
C969   H971    1.111   .     S
C969   H972    1.104   .     S
S973   O975    1.503   .     D
S973   O976    1.684   .     S
S973   O974    1.497   .     D
O976   H977    0.987   .     S
S978   O980    1.502   .     D
S978   O981    1.677   .     S
S978   O235    1.504   1_565 S
O981   H982    0.990   .     S
S983   O984    1.497   .     D
S983   O985    1.503   .     D
S983   O986    1.683   .     S
O986   H987    0.987   .     S
S988   O991    1.674   .     S
S988   O990    1.502   .     D
S988   O245    1.504   1_565 S
O991   H992    0.989   .     S
C993   C1002   1.467   .     S
C993   O1031   1.314   .     A
C993   O1034   1.305   .     A
C994   O1033   1.307   .     A
C994   O1032   1.308   .     A
C994   C1001   1.465   .     S
C995   C1020   1.407   .     A
C995   O1081   1.386   .     S
C995   C2137   1.412   1_554 S
C996   O1089   1.384   .     S
C996   C1019   1.399   .     A
C996   C2138   1.392   .     S
C997   H1025   1.083   .     S
C997   C1002   1.405   .     A
C998   C1001   1.403   .     A
C998   H1026   1.082   .     S
C998   C752    1.387   1_655 S
C999   C1001   1.403   .     A
C999   H1027   1.083   .     S
C999   C749    1.392   1_655 S
C1000  H1028   1.079   .     S
C1000  C1002   1.400   .     A
C1003  S1097   1.789   .     S
C1003  N1030   1.383   .     A
C1004  S1102   1.780   .     S
C1004  N1029   1.387   .     A
C1004  C261    1.416   1_565 S
C1005  N1030   1.385   .     A
C1005  S1107   1.787   .     S
C1006  S1112   1.769   .     S
C1006  N1029   1.386   .     A
C1006  C259    1.413   1_565 S
C1007  C1012   1.461   .     S
C1007  O1035   1.308   .     A
C1007  O1038   1.303   .     A
C1008  O1036   1.315   .     A
C1008  O1037   1.305   .     A
C1008  C1011   1.478   .     S
C1009  C1019   1.399   .     A
C1009  O1039   1.389   .     S
C1009  C1011   1.397   .     A
C1010  C1020   1.407   .     A
C1010  O1047   1.385   .     S
C1010  C1012   1.398   .     A
C1011  C1013   1.441   .     A
C1012  C1014   1.406   .     A
C1013  C1015   1.437   .     A
C1013  O1055   1.396   .     S
C1014  C1016   1.417   .     A
C1014  O1063   1.382   .     S
C1015  C1021   1.437   .     A
C1015  C1017   1.419   .     A
C1016  C1018   1.425   .     A
C1016  C1022   1.417   .     A
C1017  C1019   1.404   .     A
C1017  C2134   1.417   .     S
C1018  C1020   1.406   .     A
C1018  C2133   1.417   1_554 S
C1021  S1071   1.778   .     S
C1021  C2111   1.412   .     S
C1022  S1076   1.775   .     S
C1022  C2112   1.392   1_554 S
Cu1023 O1035   1.976   .     S
Cu1023 O1031   1.984   .     S
Cu1023 N1029   2.044   .     S
Cu1023 Cu1024  2.720   .     S
Cu1023 O1033   1.979   .     S
Cu1023 O1037   1.977   .     S
Cu1024 N1030   2.044   .     S
Cu1024 O1038   1.977   .     S
Cu1024 O1036   1.976   .     S
Cu1024 O1032   1.984   .     S
Cu1024 O1034   1.979   .     S
O1039  C1040   1.416   .     S
C1040  C1043   1.519   .     S
C1040  H1042   1.117   .     S
C1040  H1041   1.110   .     S
C1043  H1046   1.106   .     S
C1043  H1044   1.110   .     S
C1043  H1045   1.111   .     S
O1047  C1048   1.417   .     S
C1048  H1049   1.110   .     S
C1048  C1051   1.519   .     S
C1048  H1050   1.118   .     S
C1051  H1052   1.107   .     S
C1051  H1053   1.111   .     S
C1051  H1054   1.108   .     S
O1055  C1056   1.411   .     S
C1056  C1059   1.522   .     S
C1056  H1058   1.113   .     S
C1056  H1057   1.086   .     S
C1059  H1060   1.093   .     S
C1059  H1061   1.106   .     S
C1059  H1062   1.108   .     S
O1063  C1064   1.413   .     S
C1064  C1067   1.516   .     S
C1064  H1066   1.114   .     S
C1064  H1065   1.107   .     S
C1067  H1068   1.104   .     S
C1067  H1069   1.110   .     S
C1067  H1070   1.103   .     S
S1071  O1073   1.499   .     D
S1071  O1072   1.501   .     D
S1071  O1074   1.680   .     S
O1074  H1075   0.990   .     S
S1076  O1079   1.674   .     S
S1076  O1077   1.503   .     D
S1076  O2194   1.503   1_554 S
O1078  S2192   1.503   .     S
O1079  H1080   0.988   .     S
O1081  C1082   1.418   .     S
C1082  H1084   1.104   .     S
C1082  C1085   1.521   .     S
C1082  H1083   1.114   .     S
C1085  H1086   1.108   .     S
C1085  H1088   1.110   .     S
C1085  H1087   1.110   .     S
O1089  C1090   1.425   .     S
C1090  H1091   1.112   .     S
C1090  C1093   1.520   .     S
C1090  H1092   1.118   .     S
C1093  H1094   1.109   .     S
C1093  H1095   1.111   .     S
C1093  H1096   1.104   .     S
S1097  O1099   1.503   .     D
S1097  O1100   1.684   .     S
S1097  O1098   1.497   .     D
O1100  H1101   0.987   .     S
S1102  O1104   1.502   .     D
S1102  O1105   1.677   .     S
S1102  O359    1.504   1_565 S
O1105  H1106   0.990   .     S
S1107  O1108   1.497   .     D
S1107  O1109   1.503   .     D
S1107  O1110   1.683   .     S
O1110  H1111   0.987   .     S
S1112  O1115   1.674   .     S
S1112  O1114   1.502   .     D
S1112  O369    1.504   1_565 S
O1115  H1116   0.989   .     S
C1117  C1126   1.467   .     S
C1117  O1155   1.314   .     A
C1117  O1158   1.305   .     A
C1118  O1157   1.307   .     A
C1118  O1156   1.308   .     A
C1118  C1125   1.465   .     S
C1119  C1144   1.407   .     A
C1119  O1205   1.386   .     S
C1120  O1213   1.384   .     S
C1120  C1143   1.399   .     A
C1120  C30     1.392   1_556 S
C1121  H1149   1.083   .     S
C1121  C1126   1.405   .     A
C1121  C1371   1.392   1_455 S
C1122  C1125   1.403   .     A
C1122  H1150   1.082   .     S
C1122  C1248   1.387   .     S
C1123  C1125   1.403   .     A
C1123  H1151   1.083   .     S
C1123  C1245   1.392   .     S
C1124  H1152   1.079   .     S
C1124  C1126   1.400   .     A
C1124  C1370   1.387   1_455 S
C1127  S1221   1.789   .     S
C1127  N1154   1.383   .     A
C1127  C1874   1.413   1_545 S
C1128  S1226   1.780   .     S
C1128  N1153   1.387   .     A
C1128  C1501   1.416   .     S
C1129  N1154   1.385   .     A
C1129  S1231   1.787   .     S
C1129  C1872   1.416   1_545 S
C1130  S1236   1.769   .     S
C1130  N1153   1.386   .     A
C1130  C1499   1.413   .     S
C1131  C1136   1.461   .     S
C1131  O1159   1.308   .     A
C1131  O1162   1.303   .     A
C1132  O1160   1.315   .     A
C1132  O1161   1.305   .     A
C1132  C1135   1.478   .     S
C1133  C1143   1.399   .     A
C1133  O1163   1.389   .     S
C1133  C1135   1.397   .     A
C1134  C1144   1.407   .     A
C1134  O1171   1.385   .     S
C1134  C1136   1.398   .     A
C1135  C1137   1.441   .     A
C1136  C1138   1.406   .     A
C1137  C1139   1.437   .     A
C1137  O1179   1.396   .     S
C1138  C1140   1.417   .     A
C1138  O1187   1.382   .     S
C1139  C1145   1.437   .     A
C1139  C1141   1.419   .     A
C1140  C1142   1.425   .     A
C1140  C1146   1.417   .     A
C1141  C1143   1.404   .     A
C1141  C26     1.417   1_556 S
C1142  C1144   1.406   .     A
C1145  S1195   1.778   .     S
C1145  C3      1.412   1_556 S
C1146  S1200   1.775   .     S
Cu1147 O1159   1.976   .     S
Cu1147 O1155   1.984   .     S
Cu1147 N1153   2.044   .     S
Cu1147 Cu1148  2.720   .     S
Cu1147 O1157   1.979   .     S
Cu1147 O1161   1.977   .     S
Cu1148 N1154   2.044   .     S
Cu1148 O1162   1.977   .     S
Cu1148 O1160   1.976   .     S
Cu1148 O1156   1.984   .     S
Cu1148 O1158   1.979   .     S
O1163  C1164   1.416   .     S
C1164  C1167   1.519   .     S
C1164  H1166   1.117   .     S
C1164  H1165   1.110   .     S
C1167  H1170   1.106   .     S
C1167  H1168   1.110   .     S
C1167  H1169   1.111   .     S
O1171  C1172   1.417   .     S
C1172  H1173   1.110   .     S
C1172  C1175   1.519   .     S
C1172  H1174   1.118   .     S
C1175  H1176   1.107   .     S
C1175  H1177   1.111   .     S
C1175  H1178   1.108   .     S
O1179  C1180   1.411   .     S
C1180  C1183   1.522   .     S
C1180  H1182   1.113   .     S
C1180  H1181   1.086   .     S
C1183  H1184   1.093   .     S
C1183  H1185   1.106   .     S
C1183  H1186   1.108   .     S
O1187  C1188   1.413   .     S
C1188  C1191   1.516   .     S
C1188  H1190   1.114   .     S
C1188  H1189   1.107   .     S
C1191  H1192   1.104   .     S
C1191  H1193   1.110   .     S
C1191  H1194   1.103   .     S
S1195  O1197   1.499   .     D
S1195  O1196   1.501   .     D
S1195  O1198   1.680   .     S
O1198  H1199   0.990   .     S
S1200  O1203   1.674   .     S
S1200  O1201   1.503   .     D
O1202  S84     1.503   1_556 S
O1203  H1204   0.988   .     S
O1205  C1206   1.418   .     S
C1206  H1208   1.104   .     S
C1206  C1209   1.521   .     S
C1206  H1207   1.114   .     S
C1209  H1210   1.108   .     S
C1209  H1212   1.110   .     S
C1209  H1211   1.110   .     S
O1213  C1214   1.425   .     S
C1214  H1215   1.112   .     S
C1214  C1217   1.520   .     S
C1214  H1216   1.118   .     S
C1217  H1218   1.109   .     S
C1217  H1219   1.111   .     S
C1217  H1220   1.104   .     S
S1221  O1223   1.503   .     D
S1221  O1224   1.684   .     S
S1221  O1222   1.497   .     D
O1224  H1225   0.987   .     S
S1226  O1228   1.502   .     D
S1226  O1229   1.677   .     S
S1226  O1599   1.504   .     S
O1227  S1970   1.504   1_545 S
O1229  H1230   0.990   .     S
S1231  O1232   1.497   .     D
S1231  O1233   1.503   .     D
S1231  O1234   1.683   .     S
O1234  H1235   0.987   .     S
S1236  O1239   1.674   .     S
S1236  O1238   1.502   .     D
S1236  O1609   1.504   .     S
O1237  S1980   1.504   1_545 S
O1239  H1240   0.989   .     S
C1241  C1250   1.467   .     S
C1241  O1279   1.314   .     A
C1241  O1282   1.305   .     A
C1242  O1281   1.307   .     A
C1242  O1280   1.308   .     A
C1242  C1249   1.465   .     S
C1243  C1268   1.407   .     A
C1243  O1329   1.386   .     S
C1244  O1337   1.384   .     S
C1244  C1267   1.399   .     A
C1244  C154    1.392   1_556 S
C1245  H1273   1.083   .     S
C1245  C1250   1.405   .     A
C1246  C1249   1.403   .     A
C1246  H1274   1.082   .     S
C1246  C1372   1.387   .     S
C1247  C1249   1.403   .     A
C1247  H1275   1.083   .     S
C1247  C1369   1.392   .     S
C1248  H1276   1.079   .     S
C1248  C1250   1.400   .     A
C1251  S1345   1.789   .     S
C1251  N1278   1.383   .     A
C1251  C1998   1.413   1_545 S
C1252  S1350   1.780   .     S
C1252  N1277   1.387   .     A
C1252  C1625   1.416   .     S
C1253  N1278   1.385   .     A
C1253  S1355   1.787   .     S
C1253  C1996   1.416   1_545 S
C1254  S1360   1.769   .     S
C1254  N1277   1.386   .     A
C1254  C1623   1.413   .     S
C1255  C1260   1.461   .     S
C1255  O1283   1.308   .     A
C1255  O1286   1.303   .     A
C1256  O1284   1.315   .     A
C1256  O1285   1.305   .     A
C1256  C1259   1.478   .     S
C1257  C1267   1.399   .     A
C1257  O1287   1.389   .     S
C1257  C1259   1.397   .     A
C1258  C1268   1.407   .     A
C1258  O1295   1.385   .     S
C1258  C1260   1.398   .     A
C1259  C1261   1.441   .     A
C1260  C1262   1.406   .     A
C1261  C1263   1.437   .     A
C1261  O1303   1.396   .     S
C1262  C1264   1.417   .     A
C1262  O1311   1.382   .     S
C1263  C1269   1.437   .     A
C1263  C1265   1.419   .     A
C1264  C1266   1.425   .     A
C1264  C1270   1.417   .     A
C1265  C1267   1.404   .     A
C1265  C150    1.417   1_556 S
C1266  C1268   1.406   .     A
C1269  S1319   1.778   .     S
C1269  C127    1.412   1_556 S
C1270  S1324   1.775   .     S
Cu1271 O1283   1.976   .     S
Cu1271 O1279   1.984   .     S
Cu1271 N1277   2.044   .     S
Cu1271 Cu1272  2.720   .     S
Cu1271 O1281   1.979   .     S
Cu1271 O1285   1.977   .     S
Cu1272 N1278   2.044   .     S
Cu1272 O1286   1.977   .     S
Cu1272 O1284   1.976   .     S
Cu1272 O1280   1.984   .     S
Cu1272 O1282   1.979   .     S
O1287  C1288   1.416   .     S
C1288  C1291   1.519   .     S
C1288  H1290   1.117   .     S
C1288  H1289   1.110   .     S
C1291  H1294   1.106   .     S
C1291  H1292   1.110   .     S
C1291  H1293   1.111   .     S
O1295  C1296   1.417   .     S
C1296  H1297   1.110   .     S
C1296  C1299   1.519   .     S
C1296  H1298   1.118   .     S
C1299  H1300   1.107   .     S
C1299  H1301   1.111   .     S
C1299  H1302   1.108   .     S
O1303  C1304   1.411   .     S
C1304  C1307   1.522   .     S
C1304  H1306   1.113   .     S
C1304  H1305   1.086   .     S
C1307  H1308   1.093   .     S
C1307  H1309   1.106   .     S
C1307  H1310   1.108   .     S
O1311  C1312   1.413   .     S
C1312  C1315   1.516   .     S
C1312  H1314   1.114   .     S
C1312  H1313   1.107   .     S
C1315  H1316   1.104   .     S
C1315  H1317   1.110   .     S
C1315  H1318   1.103   .     S
S1319  O1321   1.499   .     D
S1319  O1320   1.501   .     D
S1319  O1322   1.680   .     S
O1322  H1323   0.990   .     S
S1324  O1327   1.674   .     S
S1324  O1325   1.503   .     D
O1326  S208    1.503   1_556 S
O1327  H1328   0.988   .     S
O1329  C1330   1.418   .     S
C1330  H1332   1.104   .     S
C1330  C1333   1.521   .     S
C1330  H1331   1.114   .     S
C1333  H1334   1.108   .     S
C1333  H1336   1.110   .     S
C1333  H1335   1.110   .     S
O1337  C1338   1.425   .     S
C1338  H1339   1.112   .     S
C1338  C1341   1.520   .     S
C1338  H1340   1.118   .     S
C1341  H1342   1.109   .     S
C1341  H1343   1.111   .     S
C1341  H1344   1.104   .     S
S1345  O1347   1.503   .     D
S1345  O1348   1.684   .     S
S1345  O1346   1.497   .     D
O1348  H1349   0.987   .     S
S1350  O1352   1.502   .     D
S1350  O1353   1.677   .     S
S1350  O1723   1.504   .     S
O1351  S2094   1.504   1_545 S
O1353  H1354   0.990   .     S
S1355  O1356   1.497   .     D
S1355  O1357   1.503   .     D
S1355  O1358   1.683   .     S
O1358  H1359   0.987   .     S
S1360  O1363   1.674   .     S
S1360  O1362   1.502   .     D
S1360  O1733   1.504   .     S
O1361  S2104   1.504   1_545 S
O1363  H1364   0.989   .     S
C1365  C1374   1.467   .     S
C1365  O1403   1.314   .     A
C1365  O1406   1.305   .     A
C1366  O1405   1.307   .     A
C1366  O1404   1.308   .     A
C1366  C1373   1.465   .     S
C1367  C1392   1.407   .     A
C1367  O1453   1.386   .     S
C1368  O1461   1.384   .     S
C1368  C1391   1.399   .     A
C1368  C278    1.392   1_556 S
C1369  H1397   1.083   .     S
C1369  C1374   1.405   .     A
C1370  C1373   1.403   .     A
C1370  H1398   1.082   .     S
C1370  C1124   1.387   1_655 S
C1371  C1373   1.403   .     A
C1371  H1399   1.083   .     S
C1371  C1121   1.392   1_655 S
C1372  H1400   1.079   .     S
C1372  C1374   1.400   .     A
C1375  S1469   1.789   .     S
C1375  N1402   1.383   .     A
C1375  C2122   1.413   1_545 S
C1376  S1474   1.780   .     S
C1376  N1401   1.387   .     A
C1376  C1749   1.416   .     S
C1377  N1402   1.385   .     A
C1377  S1479   1.787   .     S
C1377  C2120   1.416   1_545 S
C1378  S1484   1.769   .     S
C1378  N1401   1.386   .     A
C1378  C1747   1.413   .     S
C1379  C1384   1.461   .     S
C1379  O1407   1.308   .     A
C1379  O1410   1.303   .     A
C1380  O1408   1.315   .     A
C1380  O1409   1.305   .     A
C1380  C1383   1.478   .     S
C1381  C1391   1.399   .     A
C1381  O1411   1.389   .     S
C1381  C1383   1.397   .     A
C1382  C1392   1.407   .     A
C1382  O1419   1.385   .     S
C1382  C1384   1.398   .     A
C1383  C1385   1.441   .     A
C1384  C1386   1.406   .     A
C1385  C1387   1.437   .     A
C1385  O1427   1.396   .     S
C1386  C1388   1.417   .     A
C1386  O1435   1.382   .     S
C1387  C1393   1.437   .     A
C1387  C1389   1.419   .     A
C1388  C1390   1.425   .     A
C1388  C1394   1.417   .     A
C1389  C1391   1.404   .     A
C1389  C274    1.417   1_556 S
C1390  C1392   1.406   .     A
C1393  S1443   1.778   .     S
C1393  C251    1.412   1_556 S
C1394  S1448   1.775   .     S
Cu1395 O1407   1.976   .     S
Cu1395 O1403   1.984   .     S
Cu1395 N1401   2.044   .     S
Cu1395 Cu1396  2.720   .     S
Cu1395 O1405   1.979   .     S
Cu1395 O1409   1.977   .     S
Cu1396 N1402   2.044   .     S
Cu1396 O1410   1.977   .     S
Cu1396 O1408   1.976   .     S
Cu1396 O1404   1.984   .     S
Cu1396 O1406   1.979   .     S
O1411  C1412   1.416   .     S
C1412  C1415   1.519   .     S
C1412  H1414   1.117   .     S
C1412  H1413   1.110   .     S
C1415  H1418   1.106   .     S
C1415  H1416   1.110   .     S
C1415  H1417   1.111   .     S
O1419  C1420   1.417   .     S
C1420  H1421   1.110   .     S
C1420  C1423   1.519   .     S
C1420  H1422   1.118   .     S
C1423  H1424   1.107   .     S
C1423  H1425   1.111   .     S
C1423  H1426   1.108   .     S
O1427  C1428   1.411   .     S
C1428  C1431   1.522   .     S
C1428  H1430   1.113   .     S
C1428  H1429   1.086   .     S
C1431  H1432   1.093   .     S
C1431  H1433   1.106   .     S
C1431  H1434   1.108   .     S
O1435  C1436   1.413   .     S
C1436  C1439   1.516   .     S
C1436  H1438   1.114   .     S
C1436  H1437   1.107   .     S
C1439  H1440   1.104   .     S
C1439  H1441   1.110   .     S
C1439  H1442   1.103   .     S
S1443  O1445   1.499   .     D
S1443  O1444   1.501   .     D
S1443  O1446   1.680   .     S
O1446  H1447   0.990   .     S
S1448  O1451   1.674   .     S
S1448  O1449   1.503   .     D
O1450  S332    1.503   1_556 S
O1451  H1452   0.988   .     S
O1453  C1454   1.418   .     S
C1454  H1456   1.104   .     S
C1454  C1457   1.521   .     S
C1454  H1455   1.114   .     S
C1457  H1458   1.108   .     S
C1457  H1460   1.110   .     S
C1457  H1459   1.110   .     S
O1461  C1462   1.425   .     S
C1462  H1463   1.112   .     S
C1462  C1465   1.520   .     S
C1462  H1464   1.118   .     S
C1465  H1466   1.109   .     S
C1465  H1467   1.111   .     S
C1465  H1468   1.104   .     S
S1469  O1471   1.503   .     D
S1469  O1472   1.684   .     S
S1469  O1470   1.497   .     D
O1472  H1473   0.987   .     S
S1474  O1476   1.502   .     D
S1474  O1477   1.677   .     S
S1474  O1847   1.504   .     S
O1475  S2218   1.504   1_545 S
O1477  H1478   0.990   .     S
S1479  O1480   1.497   .     D
S1479  O1481   1.503   .     D
S1479  O1482   1.683   .     S
O1482  H1483   0.987   .     S
S1484  O1487   1.674   .     S
S1484  O1486   1.502   .     D
S1484  O1857   1.504   .     S
O1485  S2228   1.504   1_545 S
O1487  H1488   0.989   .     S
C1489  C1498   1.467   .     S
C1489  O1527   1.314   .     A
C1489  O1530   1.305   .     A
C1490  O1529   1.307   .     A
C1490  O1528   1.308   .     A
C1490  C1497   1.465   .     S
C1491  C1516   1.407   .     A
C1491  O1577   1.386   .     S
C1492  O1585   1.384   .     S
C1492  C1515   1.399   .     A
C1492  C402    1.392   1_556 S
C1493  H1521   1.083   .     S
C1493  C1498   1.405   .     A
C1493  C1743   1.392   1_455 S
C1494  C1497   1.403   .     A
C1494  H1522   1.082   .     S
C1494  C1620   1.387   .     S
C1495  C1497   1.403   .     A
C1495  H1523   1.083   .     S
C1495  C1617   1.392   .     S
C1496  H1524   1.079   .     S
C1496  C1498   1.400   .     A
C1496  C1742   1.387   1_455 S
C1499  S1593   1.789   .     S
C1499  N1526   1.383   .     A
C1500  S1598   1.780   .     S
C1500  N1525   1.387   .     A
C1500  C1873   1.416   .     S
C1501  N1526   1.385   .     A
C1501  S1603   1.787   .     S
C1502  S1608   1.769   .     S
C1502  N1525   1.386   .     A
C1502  C1871   1.413   .     S
C1503  C1508   1.461   .     S
C1503  O1531   1.308   .     A
C1503  O1534   1.303   .     A
C1504  O1532   1.315   .     A
C1504  O1533   1.305   .     A
C1504  C1507   1.478   .     S
C1505  C1515   1.399   .     A
C1505  O1535   1.389   .     S
C1505  C1507   1.397   .     A
C1506  C1516   1.407   .     A
C1506  O1543   1.385   .     S
C1506  C1508   1.398   .     A
C1507  C1509   1.441   .     A
C1508  C1510   1.406   .     A
C1509  C1511   1.437   .     A
C1509  O1551   1.396   .     S
C1510  C1512   1.417   .     A
C1510  O1559   1.382   .     S
C1511  C1517   1.437   .     A
C1511  C1513   1.419   .     A
C1512  C1514   1.425   .     A
C1512  C1518   1.417   .     A
C1513  C1515   1.404   .     A
C1513  C398    1.417   1_556 S
C1514  C1516   1.406   .     A
C1517  S1567   1.778   .     S
C1517  C375    1.412   1_556 S
C1518  S1572   1.775   .     S
Cu1519 O1531   1.976   .     S
Cu1519 O1527   1.984   .     S
Cu1519 N1525   2.044   .     S
Cu1519 Cu1520  2.720   .     S
Cu1519 O1529   1.979   .     S
Cu1519 O1533   1.977   .     S
Cu1520 N1526   2.044   .     S
Cu1520 O1534   1.977   .     S
Cu1520 O1532   1.976   .     S
Cu1520 O1528   1.984   .     S
Cu1520 O1530   1.979   .     S
O1535  C1536   1.416   .     S
C1536  C1539   1.519   .     S
C1536  H1538   1.117   .     S
C1536  H1537   1.110   .     S
C1539  H1542   1.106   .     S
C1539  H1540   1.110   .     S
C1539  H1541   1.111   .     S
O1543  C1544   1.417   .     S
C1544  H1545   1.110   .     S
C1544  C1547   1.519   .     S
C1544  H1546   1.118   .     S
C1547  H1548   1.107   .     S
C1547  H1549   1.111   .     S
C1547  H1550   1.108   .     S
O1551  C1552   1.411   .     S
C1552  C1555   1.522   .     S
C1552  H1554   1.113   .     S
C1552  H1553   1.086   .     S
C1555  H1556   1.093   .     S
C1555  H1557   1.106   .     S
C1555  H1558   1.108   .     S
O1559  C1560   1.413   .     S
C1560  C1563   1.516   .     S
C1560  H1562   1.114   .     S
C1560  H1561   1.107   .     S
C1563  H1564   1.104   .     S
C1563  H1565   1.110   .     S
C1563  H1566   1.103   .     S
S1567  O1569   1.499   .     D
S1567  O1568   1.501   .     D
S1567  O1570   1.680   .     S
O1570  H1571   0.990   .     S
S1572  O1575   1.674   .     S
S1572  O1573   1.503   .     D
O1574  S456    1.503   1_556 S
O1575  H1576   0.988   .     S
O1577  C1578   1.418   .     S
C1578  H1580   1.104   .     S
C1578  C1581   1.521   .     S
C1578  H1579   1.114   .     S
C1581  H1582   1.108   .     S
C1581  H1584   1.110   .     S
C1581  H1583   1.110   .     S
O1585  C1586   1.425   .     S
C1586  H1587   1.112   .     S
C1586  C1589   1.520   .     S
C1586  H1588   1.118   .     S
C1589  H1590   1.109   .     S
C1589  H1591   1.111   .     S
C1589  H1592   1.104   .     S
S1593  O1595   1.503   .     D
S1593  O1596   1.684   .     S
S1593  O1594   1.497   .     D
O1596  H1597   0.987   .     S
S1598  O1600   1.502   .     D
S1598  O1601   1.677   .     S
S1598  O1971   1.504   .     S
O1601  H1602   0.990   .     S
S1603  O1604   1.497   .     D
S1603  O1605   1.503   .     D
S1603  O1606   1.683   .     S
O1606  H1607   0.987   .     S
S1608  O1611   1.674   .     S
S1608  O1610   1.502   .     D
S1608  O1981   1.504   .     S
O1611  H1612   0.989   .     S
C1613  C1622   1.467   .     S
C1613  O1651   1.314   .     A
C1613  O1654   1.305   .     A
C1614  O1653   1.307   .     A
C1614  O1652   1.308   .     A
C1614  C1621   1.465   .     S
C1615  C1640   1.407   .     A
C1615  O1701   1.386   .     S
C1616  O1709   1.384   .     S
C1616  C1639   1.399   .     A
C1616  C526    1.392   1_556 S
C1617  H1645   1.083   .     S
C1617  C1622   1.405   .     A
C1618  C1621   1.403   .     A
C1618  H1646   1.082   .     S
C1618  C1744   1.387   .     S
C1619  C1621   1.403   .     A
C1619  H1647   1.083   .     S
C1619  C1741   1.392   .     S
C1620  H1648   1.079   .     S
C1620  C1622   1.400   .     A
C1623  S1717   1.789   .     S
C1623  N1650   1.383   .     A
C1624  S1722   1.780   .     S
C1624  N1649   1.387   .     A
C1624  C1997   1.416   .     S
C1625  N1650   1.385   .     A
C1625  S1727   1.787   .     S
C1626  S1732   1.769   .     S
C1626  N1649   1.386   .     A
C1626  C1995   1.413   .     S
C1627  C1632   1.461   .     S
C1627  O1655   1.308   .     A
C1627  O1658   1.303   .     A
C1628  O1656   1.315   .     A
C1628  O1657   1.305   .     A
C1628  C1631   1.478   .     S
C1629  C1639   1.399   .     A
C1629  O1659   1.389   .     S
C1629  C1631   1.397   .     A
C1630  C1640   1.407   .     A
C1630  O1667   1.385   .     S
C1630  C1632   1.398   .     A
C1631  C1633   1.441   .     A
C1632  C1634   1.406   .     A
C1633  C1635   1.437   .     A
C1633  O1675   1.396   .     S
C1634  C1636   1.417   .     A
C1634  O1683   1.382   .     S
C1635  C1641   1.437   .     A
C1635  C1637   1.419   .     A
C1636  C1638   1.425   .     A
C1636  C1642   1.417   .     A
C1637  C1639   1.404   .     A
C1637  C522    1.417   1_556 S
C1638  C1640   1.406   .     A
C1641  S1691   1.778   .     S
C1641  C499    1.412   1_556 S
C1642  S1696   1.775   .     S
Cu1643 O1655   1.976   .     S
Cu1643 O1651   1.984   .     S
Cu1643 N1649   2.044   .     S
Cu1643 Cu1644  2.720   .     S
Cu1643 O1653   1.979   .     S
Cu1643 O1657   1.977   .     S
Cu1644 N1650   2.044   .     S
Cu1644 O1658   1.977   .     S
Cu1644 O1656   1.976   .     S
Cu1644 O1652   1.984   .     S
Cu1644 O1654   1.979   .     S
O1659  C1660   1.416   .     S
C1660  C1663   1.519   .     S
C1660  H1662   1.117   .     S
C1660  H1661   1.110   .     S
C1663  H1666   1.106   .     S
C1663  H1664   1.110   .     S
C1663  H1665   1.111   .     S
O1667  C1668   1.417   .     S
C1668  H1669   1.110   .     S
C1668  C1671   1.519   .     S
C1668  H1670   1.118   .     S
C1671  H1672   1.107   .     S
C1671  H1673   1.111   .     S
C1671  H1674   1.108   .     S
O1675  C1676   1.411   .     S
C1676  C1679   1.522   .     S
C1676  H1678   1.113   .     S
C1676  H1677   1.086   .     S
C1679  H1680   1.093   .     S
C1679  H1681   1.106   .     S
C1679  H1682   1.108   .     S
O1683  C1684   1.413   .     S
C1684  C1687   1.516   .     S
C1684  H1686   1.114   .     S
C1684  H1685   1.107   .     S
C1687  H1688   1.104   .     S
C1687  H1689   1.110   .     S
C1687  H1690   1.103   .     S
S1691  O1693   1.499   .     D
S1691  O1692   1.501   .     D
S1691  O1694   1.680   .     S
O1694  H1695   0.990   .     S
S1696  O1699   1.674   .     S
S1696  O1697   1.503   .     D
O1698  S580    1.503   1_556 S
O1699  H1700   0.988   .     S
O1701  C1702   1.418   .     S
C1702  H1704   1.104   .     S
C1702  C1705   1.521   .     S
C1702  H1703   1.114   .     S
C1705  H1706   1.108   .     S
C1705  H1708   1.110   .     S
C1705  H1707   1.110   .     S
O1709  C1710   1.425   .     S
C1710  H1711   1.112   .     S
C1710  C1713   1.520   .     S
C1710  H1712   1.118   .     S
C1713  H1714   1.109   .     S
C1713  H1715   1.111   .     S
C1713  H1716   1.104   .     S
S1717  O1719   1.503   .     D
S1717  O1720   1.684   .     S
S1717  O1718   1.497   .     D
O1720  H1721   0.987   .     S
S1722  O1724   1.502   .     D
S1722  O1725   1.677   .     S
S1722  O2095   1.504   .     S
O1725  H1726   0.990   .     S
S1727  O1728   1.497   .     D
S1727  O1729   1.503   .     D
S1727  O1730   1.683   .     S
O1730  H1731   0.987   .     S
S1732  O1735   1.674   .     S
S1732  O1734   1.502   .     D
S1732  O2105   1.504   .     S
O1735  H1736   0.989   .     S
C1737  C1746   1.467   .     S
C1737  O1775   1.314   .     A
C1737  O1778   1.305   .     A
C1738  O1777   1.307   .     A
C1738  O1776   1.308   .     A
C1738  C1745   1.465   .     S
C1739  C1764   1.407   .     A
C1739  O1825   1.386   .     S
C1740  O1833   1.384   .     S
C1740  C1763   1.399   .     A
C1740  C650    1.392   1_556 S
C1741  H1769   1.083   .     S
C1741  C1746   1.405   .     A
C1742  C1745   1.403   .     A
C1742  H1770   1.082   .     S
C1742  C1496   1.387   1_655 S
C1743  C1745   1.403   .     A
C1743  H1771   1.083   .     S
C1743  C1493   1.392   1_655 S
C1744  H1772   1.079   .     S
C1744  C1746   1.400   .     A
C1747  S1841   1.789   .     S
C1747  N1774   1.383   .     A
C1748  S1846   1.780   .     S
C1748  N1773   1.387   .     A
C1748  C2121   1.416   .     S
C1749  N1774   1.385   .     A
C1749  S1851   1.787   .     S
C1750  S1856   1.769   .     S
C1750  N1773   1.386   .     A
C1750  C2119   1.413   .     S
C1751  C1756   1.461   .     S
C1751  O1779   1.308   .     A
C1751  O1782   1.303   .     A
C1752  O1780   1.315   .     A
C1752  O1781   1.305   .     A
C1752  C1755   1.478   .     S
C1753  C1763   1.399   .     A
C1753  O1783   1.389   .     S
C1753  C1755   1.397   .     A
C1754  C1764   1.407   .     A
C1754  O1791   1.385   .     S
C1754  C1756   1.398   .     A
C1755  C1757   1.441   .     A
C1756  C1758   1.406   .     A
C1757  C1759   1.437   .     A
C1757  O1799   1.396   .     S
C1758  C1760   1.417   .     A
C1758  O1807   1.382   .     S
C1759  C1765   1.437   .     A
C1759  C1761   1.419   .     A
C1760  C1762   1.425   .     A
C1760  C1766   1.417   .     A
C1761  C1763   1.404   .     A
C1761  C646    1.417   1_556 S
C1762  C1764   1.406   .     A
C1765  S1815   1.778   .     S
C1765  C623    1.412   1_556 S
C1766  S1820   1.775   .     S
Cu1767 O1779   1.976   .     S
Cu1767 O1775   1.984   .     S
Cu1767 N1773   2.044   .     S
Cu1767 Cu1768  2.720   .     S
Cu1767 O1777   1.979   .     S
Cu1767 O1781   1.977   .     S
Cu1768 N1774   2.044   .     S
Cu1768 O1782   1.977   .     S
Cu1768 O1780   1.976   .     S
Cu1768 O1776   1.984   .     S
Cu1768 O1778   1.979   .     S
O1783  C1784   1.416   .     S
C1784  C1787   1.519   .     S
C1784  H1786   1.117   .     S
C1784  H1785   1.110   .     S
C1787  H1790   1.106   .     S
C1787  H1788   1.110   .     S
C1787  H1789   1.111   .     S
O1791  C1792   1.417   .     S
C1792  H1793   1.110   .     S
C1792  C1795   1.519   .     S
C1792  H1794   1.118   .     S
C1795  H1796   1.107   .     S
C1795  H1797   1.111   .     S
C1795  H1798   1.108   .     S
O1799  C1800   1.411   .     S
C1800  C1803   1.522   .     S
C1800  H1802   1.113   .     S
C1800  H1801   1.086   .     S
C1803  H1804   1.093   .     S
C1803  H1805   1.106   .     S
C1803  H1806   1.108   .     S
O1807  C1808   1.413   .     S
C1808  C1811   1.516   .     S
C1808  H1810   1.114   .     S
C1808  H1809   1.107   .     S
C1811  H1812   1.104   .     S
C1811  H1813   1.110   .     S
C1811  H1814   1.103   .     S
S1815  O1817   1.499   .     D
S1815  O1816   1.501   .     D
S1815  O1818   1.680   .     S
O1818  H1819   0.990   .     S
S1820  O1823   1.674   .     S
S1820  O1821   1.503   .     D
O1822  S704    1.503   1_556 S
O1823  H1824   0.988   .     S
O1825  C1826   1.418   .     S
C1826  H1828   1.104   .     S
C1826  C1829   1.521   .     S
C1826  H1827   1.114   .     S
C1829  H1830   1.108   .     S
C1829  H1832   1.110   .     S
C1829  H1831   1.110   .     S
O1833  C1834   1.425   .     S
C1834  H1835   1.112   .     S
C1834  C1837   1.520   .     S
C1834  H1836   1.118   .     S
C1837  H1838   1.109   .     S
C1837  H1839   1.111   .     S
C1837  H1840   1.104   .     S
S1841  O1843   1.503   .     D
S1841  O1844   1.684   .     S
S1841  O1842   1.497   .     D
O1844  H1845   0.987   .     S
S1846  O1848   1.502   .     D
S1846  O1849   1.677   .     S
S1846  O2219   1.504   .     S
O1849  H1850   0.990   .     S
S1851  O1852   1.497   .     D
S1851  O1853   1.503   .     D
S1851  O1854   1.683   .     S
O1854  H1855   0.987   .     S
S1856  O1859   1.674   .     S
S1856  O1858   1.502   .     D
S1856  O2229   1.504   .     S
O1859  H1860   0.989   .     S
C1861  C1870   1.467   .     S
C1861  O1899   1.314   .     A
C1861  O1902   1.305   .     A
C1862  O1901   1.307   .     A
C1862  O1900   1.308   .     A
C1862  C1869   1.465   .     S
C1863  C1888   1.407   .     A
C1863  O1949   1.386   .     S
C1864  O1957   1.384   .     S
C1864  C1887   1.399   .     A
C1864  C774    1.392   1_556 S
C1865  H1893   1.083   .     S
C1865  C1870   1.405   .     A
C1865  C2115   1.392   1_455 S
C1866  C1869   1.403   .     A
C1866  H1894   1.082   .     S
C1866  C1992   1.387   .     S
C1867  C1869   1.403   .     A
C1867  H1895   1.083   .     S
C1867  C1989   1.392   .     S
C1868  H1896   1.079   .     S
C1868  C1870   1.400   .     A
C1868  C2114   1.387   1_455 S
C1871  S1965   1.789   .     S
C1871  N1898   1.383   .     A
C1872  S1970   1.780   .     S
C1872  N1897   1.387   .     A
C1872  C1129   1.416   1_565 S
C1873  N1898   1.385   .     A
C1873  S1975   1.787   .     S
C1874  S1980   1.769   .     S
C1874  N1897   1.386   .     A
C1874  C1127   1.413   1_565 S
C1875  C1880   1.461   .     S
C1875  O1903   1.308   .     A
C1875  O1906   1.303   .     A
C1876  O1904   1.315   .     A
C1876  O1905   1.305   .     A
C1876  C1879   1.478   .     S
C1877  C1887   1.399   .     A
C1877  O1907   1.389   .     S
C1877  C1879   1.397   .     A
C1878  C1888   1.407   .     A
C1878  O1915   1.385   .     S
C1878  C1880   1.398   .     A
C1879  C1881   1.441   .     A
C1880  C1882   1.406   .     A
C1881  C1883   1.437   .     A
C1881  O1923   1.396   .     S
C1882  C1884   1.417   .     A
C1882  O1931   1.382   .     S
C1883  C1889   1.437   .     A
C1883  C1885   1.419   .     A
C1884  C1886   1.425   .     A
C1884  C1890   1.417   .     A
C1885  C1887   1.404   .     A
C1885  C770    1.417   1_556 S
C1886  C1888   1.406   .     A
C1889  S1939   1.778   .     S
C1889  C747    1.412   1_556 S
C1890  S1944   1.775   .     S
Cu1891 O1903   1.976   .     S
Cu1891 O1899   1.984   .     S
Cu1891 N1897   2.044   .     S
Cu1891 Cu1892  2.720   .     S
Cu1891 O1901   1.979   .     S
Cu1891 O1905   1.977   .     S
Cu1892 N1898   2.044   .     S
Cu1892 O1906   1.977   .     S
Cu1892 O1904   1.976   .     S
Cu1892 O1900   1.984   .     S
Cu1892 O1902   1.979   .     S
O1907  C1908   1.416   .     S
C1908  C1911   1.519   .     S
C1908  H1910   1.117   .     S
C1908  H1909   1.110   .     S
C1911  H1914   1.106   .     S
C1911  H1912   1.110   .     S
C1911  H1913   1.111   .     S
O1915  C1916   1.417   .     S
C1916  H1917   1.110   .     S
C1916  C1919   1.519   .     S
C1916  H1918   1.118   .     S
C1919  H1920   1.107   .     S
C1919  H1921   1.111   .     S
C1919  H1922   1.108   .     S
O1923  C1924   1.411   .     S
C1924  C1927   1.522   .     S
C1924  H1926   1.113   .     S
C1924  H1925   1.086   .     S
C1927  H1928   1.093   .     S
C1927  H1929   1.106   .     S
C1927  H1930   1.108   .     S
O1931  C1932   1.413   .     S
C1932  C1935   1.516   .     S
C1932  H1934   1.114   .     S
C1932  H1933   1.107   .     S
C1935  H1936   1.104   .     S
C1935  H1937   1.110   .     S
C1935  H1938   1.103   .     S
S1939  O1941   1.499   .     D
S1939  O1940   1.501   .     D
S1939  O1942   1.680   .     S
O1942  H1943   0.990   .     S
S1944  O1947   1.674   .     S
S1944  O1945   1.503   .     D
O1946  S828    1.503   1_556 S
O1947  H1948   0.988   .     S
O1949  C1950   1.418   .     S
C1950  H1952   1.104   .     S
C1950  C1953   1.521   .     S
C1950  H1951   1.114   .     S
C1953  H1954   1.108   .     S
C1953  H1956   1.110   .     S
C1953  H1955   1.110   .     S
O1957  C1958   1.425   .     S
C1958  H1959   1.112   .     S
C1958  C1961   1.520   .     S
C1958  H1960   1.118   .     S
C1961  H1962   1.109   .     S
C1961  H1963   1.111   .     S
C1961  H1964   1.104   .     S
S1965  O1967   1.503   .     D
S1965  O1968   1.684   .     S
S1965  O1966   1.497   .     D
O1968  H1969   0.987   .     S
S1970  O1972   1.502   .     D
S1970  O1973   1.677   .     S
S1970  O1227   1.504   1_565 S
O1973  H1974   0.990   .     S
S1975  O1976   1.497   .     D
S1975  O1977   1.503   .     D
S1975  O1978   1.683   .     S
O1978  H1979   0.987   .     S
S1980  O1983   1.674   .     S
S1980  O1982   1.502   .     D
S1980  O1237   1.504   1_565 S
O1983  H1984   0.989   .     S
C1985  C1994   1.467   .     S
C1985  O2023   1.314   .     A
C1985  O2026   1.305   .     A
C1986  O2025   1.307   .     A
C1986  O2024   1.308   .     A
C1986  C1993   1.465   .     S
C1987  C2012   1.407   .     A
C1987  O2073   1.386   .     S
C1988  O2081   1.384   .     S
C1988  C2011   1.399   .     A
C1988  C898    1.392   1_556 S
C1989  H2017   1.083   .     S
C1989  C1994   1.405   .     A
C1990  C1993   1.403   .     A
C1990  H2018   1.082   .     S
C1990  C2116   1.387   .     S
C1991  C1993   1.403   .     A
C1991  H2019   1.083   .     S
C1991  C2113   1.392   .     S
C1992  H2020   1.079   .     S
C1992  C1994   1.400   .     A
C1995  S2089   1.789   .     S
C1995  N2022   1.383   .     A
C1996  S2094   1.780   .     S
C1996  N2021   1.387   .     A
C1996  C1253   1.416   1_565 S
C1997  N2022   1.385   .     A
C1997  S2099   1.787   .     S
C1998  S2104   1.769   .     S
C1998  N2021   1.386   .     A
C1998  C1251   1.413   1_565 S
C1999  C2004   1.461   .     S
C1999  O2027   1.308   .     A
C1999  O2030   1.303   .     A
C2000  O2028   1.315   .     A
C2000  O2029   1.305   .     A
C2000  C2003   1.478   .     S
C2001  C2011   1.399   .     A
C2001  O2031   1.389   .     S
C2001  C2003   1.397   .     A
C2002  C2012   1.407   .     A
C2002  O2039   1.385   .     S
C2002  C2004   1.398   .     A
C2003  C2005   1.441   .     A
C2004  C2006   1.406   .     A
C2005  C2007   1.437   .     A
C2005  O2047   1.396   .     S
C2006  C2008   1.417   .     A
C2006  O2055   1.382   .     S
C2007  C2013   1.437   .     A
C2007  C2009   1.419   .     A
C2008  C2010   1.425   .     A
C2008  C2014   1.417   .     A
C2009  C2011   1.404   .     A
C2009  C894    1.417   1_556 S
C2010  C2012   1.406   .     A
C2013  S2063   1.778   .     S
C2013  C871    1.412   1_556 S
C2014  S2068   1.775   .     S
Cu2015 O2027   1.976   .     S
Cu2015 O2023   1.984   .     S
Cu2015 N2021   2.044   .     S
Cu2015 Cu2016  2.720   .     S
Cu2015 O2025   1.979   .     S
Cu2015 O2029   1.977   .     S
Cu2016 N2022   2.044   .     S
Cu2016 O2030   1.977   .     S
Cu2016 O2028   1.976   .     S
Cu2016 O2024   1.984   .     S
Cu2016 O2026   1.979   .     S
O2031  C2032   1.416   .     S
C2032  C2035   1.519   .     S
C2032  H2034   1.117   .     S
C2032  H2033   1.110   .     S
C2035  H2038   1.106   .     S
C2035  H2036   1.110   .     S
C2035  H2037   1.111   .     S
O2039  C2040   1.417   .     S
C2040  H2041   1.110   .     S
C2040  C2043   1.519   .     S
C2040  H2042   1.118   .     S
C2043  H2044   1.107   .     S
C2043  H2045   1.111   .     S
C2043  H2046   1.108   .     S
O2047  C2048   1.411   .     S
C2048  C2051   1.522   .     S
C2048  H2050   1.113   .     S
C2048  H2049   1.086   .     S
C2051  H2052   1.093   .     S
C2051  H2053   1.106   .     S
C2051  H2054   1.108   .     S
O2055  C2056   1.413   .     S
C2056  C2059   1.516   .     S
C2056  H2058   1.114   .     S
C2056  H2057   1.107   .     S
C2059  H2060   1.104   .     S
C2059  H2061   1.110   .     S
C2059  H2062   1.103   .     S
S2063  O2065   1.499   .     D
S2063  O2064   1.501   .     D
S2063  O2066   1.680   .     S
O2066  H2067   0.990   .     S
S2068  O2071   1.674   .     S
S2068  O2069   1.503   .     D
O2070  S952    1.503   1_556 S
O2071  H2072   0.988   .     S
O2073  C2074   1.418   .     S
C2074  H2076   1.104   .     S
C2074  C2077   1.521   .     S
C2074  H2075   1.114   .     S
C2077  H2078   1.108   .     S
C2077  H2080   1.110   .     S
C2077  H2079   1.110   .     S
O2081  C2082   1.425   .     S
C2082  H2083   1.112   .     S
C2082  C2085   1.520   .     S
C2082  H2084   1.118   .     S
C2085  H2086   1.109   .     S
C2085  H2087   1.111   .     S
C2085  H2088   1.104   .     S
S2089  O2091   1.503   .     D
S2089  O2092   1.684   .     S
S2089  O2090   1.497   .     D
O2092  H2093   0.987   .     S
S2094  O2096   1.502   .     D
S2094  O2097   1.677   .     S
S2094  O1351   1.504   1_565 S
O2097  H2098   0.990   .     S
S2099  O2100   1.497   .     D
S2099  O2101   1.503   .     D
S2099  O2102   1.683   .     S
O2102  H2103   0.987   .     S
S2104  O2107   1.674   .     S
S2104  O2106   1.502   .     D
S2104  O1361   1.504   1_565 S
O2107  H2108   0.989   .     S
C2109  C2118   1.467   .     S
C2109  O2147   1.314   .     A
C2109  O2150   1.305   .     A
C2110  O2149   1.307   .     A
C2110  O2148   1.308   .     A
C2110  C2117   1.465   .     S
C2111  C2136   1.407   .     A
C2111  O2197   1.386   .     S
C2112  O2205   1.384   .     S
C2112  C2135   1.399   .     A
C2112  C1022   1.392   1_556 S
C2113  H2141   1.083   .     S
C2113  C2118   1.405   .     A
C2114  C2117   1.403   .     A
C2114  H2142   1.082   .     S
C2114  C1868   1.387   1_655 S
C2115  C2117   1.403   .     A
C2115  H2143   1.083   .     S
C2115  C1865   1.392   1_655 S
C2116  H2144   1.079   .     S
C2116  C2118   1.400   .     A
C2119  S2213   1.789   .     S
C2119  N2146   1.383   .     A
C2120  S2218   1.780   .     S
C2120  N2145   1.387   .     A
C2120  C1377   1.416   1_565 S
C2121  N2146   1.385   .     A
C2121  S2223   1.787   .     S
C2122  S2228   1.769   .     S
C2122  N2145   1.386   .     A
C2122  C1375   1.413   1_565 S
C2123  C2128   1.461   .     S
C2123  O2151   1.308   .     A
C2123  O2154   1.303   .     A
C2124  O2152   1.315   .     A
C2124  O2153   1.305   .     A
C2124  C2127   1.478   .     S
C2125  C2135   1.399   .     A
C2125  O2155   1.389   .     S
C2125  C2127   1.397   .     A
C2126  C2136   1.407   .     A
C2126  O2163   1.385   .     S
C2126  C2128   1.398   .     A
C2127  C2129   1.441   .     A
C2128  C2130   1.406   .     A
C2129  C2131   1.437   .     A
C2129  O2171   1.396   .     S
C2130  C2132   1.417   .     A
C2130  O2179   1.382   .     S
C2131  C2137   1.437   .     A
C2131  C2133   1.419   .     A
C2132  C2134   1.425   .     A
C2132  C2138   1.417   .     A
C2133  C2135   1.404   .     A
C2133  C1018   1.417   1_556 S
C2134  C2136   1.406   .     A
C2137  S2187   1.778   .     S
C2137  C995    1.412   1_556 S
C2138  S2192   1.775   .     S
Cu2139 O2151   1.976   .     S
Cu2139 O2147   1.984   .     S
Cu2139 N2145   2.044   .     S
Cu2139 Cu2140  2.720   .     S
Cu2139 O2149   1.979   .     S
Cu2139 O2153   1.977   .     S
Cu2140 N2146   2.044   .     S
Cu2140 O2154   1.977   .     S
Cu2140 O2152   1.976   .     S
Cu2140 O2148   1.984   .     S
Cu2140 O2150   1.979   .     S
O2155  C2156   1.416   .     S
C2156  C2159   1.519   .     S
C2156  H2158   1.117   .     S
C2156  H2157   1.110   .     S
C2159  H2162   1.106   .     S
C2159  H2160   1.110   .     S
C2159  H2161   1.111   .     S
O2163  C2164   1.417   .     S
C2164  H2165   1.110   .     S
C2164  C2167   1.519   .     S
C2164  H2166   1.118   .     S
C2167  H2168   1.107   .     S
C2167  H2169   1.111   .     S
C2167  H2170   1.108   .     S
O2171  C2172   1.411   .     S
C2172  C2175   1.522   .     S
C2172  H2174   1.113   .     S
C2172  H2173   1.086   .     S
C2175  H2176   1.093   .     S
C2175  H2177   1.106   .     S
C2175  H2178   1.108   .     S
O2179  C2180   1.413   .     S
C2180  C2183   1.516   .     S
C2180  H2182   1.114   .     S
C2180  H2181   1.107   .     S
C2183  H2184   1.104   .     S
C2183  H2185   1.110   .     S
C2183  H2186   1.103   .     S
S2187  O2189   1.499   .     D
S2187  O2188   1.501   .     D
S2187  O2190   1.680   .     S
O2190  H2191   0.990   .     S
S2192  O2195   1.674   .     S
S2192  O2193   1.503   .     D
O2194  S1076   1.503   1_556 S
O2195  H2196   0.988   .     S
O2197  C2198   1.418   .     S
C2198  H2200   1.104   .     S
C2198  C2201   1.521   .     S
C2198  H2199   1.114   .     S
C2201  H2202   1.108   .     S
C2201  H2204   1.110   .     S
C2201  H2203   1.110   .     S
O2205  C2206   1.425   .     S
C2206  H2207   1.112   .     S
C2206  C2209   1.520   .     S
C2206  H2208   1.118   .     S
C2209  H2210   1.109   .     S
C2209  H2211   1.111   .     S
C2209  H2212   1.104   .     S
S2213  O2215   1.503   .     D
S2213  O2216   1.684   .     S
S2213  O2214   1.497   .     D
O2216  H2217   0.987   .     S
S2218  O2220   1.502   .     D
S2218  O2221   1.677   .     S
S2218  O1475   1.504   1_565 S
O2221  H2222   0.990   .     S
S2223  O2224   1.497   .     D
S2223  O2225   1.503   .     D
S2223  O2226   1.683   .     S
O2226  H2227   0.987   .     S
S2228  O2231   1.674   .     S
S2228  O2230   1.502   .     D
S2228  O1485   1.504   1_565 S
O2231  H2232   0.989   .     S
