data_str_m2_o2_o10_pcu_sym.16
_audit_creation_date              2020-01-03
_audit_creation_method            'Materials Studio'
_symmetry_space_group_name_H-M    'P1'
_symmetry_Int_Tables_number       1
_symmetry_cell_setting            triclinic
loop_
_symmetry_equiv_pos_as_xyz
  x,y,z
_cell_length_a                    26.3001
_cell_length_b                    30.1317
_cell_length_c                    27.8620
_cell_angle_alpha                 89.4413
_cell_angle_beta                  96.6980
_cell_angle_gamma                 92.1166
loop_
_atom_site_label
_atom_site_type_symbol
_atom_site_fract_x
_atom_site_fract_y
_atom_site_fract_z
_atom_site_U_iso_or_equiv
_atom_site_adp_type
_atom_site_occupancy
C1     C     0.16578   0.16457   0.25000   0.00000  Uiso   1.00
C2     C     0.20866   0.26954   0.45002   0.00000  Uiso   1.00
C3     C     0.16787   0.24942   0.02754   0.00000  Uiso   1.00
C4     C     0.16806   0.25013   0.47303   0.00000  Uiso   1.00
C5     C     0.06823   0.24891   0.23815   0.00000  Uiso   1.00
C6     C     0.26516   0.25158   0.26193   0.00000  Uiso   1.00
C7     C     0.01370   0.24137   0.23382   0.00000  Uiso   1.00
C8     C     0.31983   0.25968   0.26662   0.00000  Uiso   1.00
C9     C     0.15519   0.04767   0.29923   0.00000  Uiso   1.00
C10    C     0.10687   0.44596   0.24022   0.00000  Uiso   1.00
C11    C     0.16226   0.09378   0.29559   0.00000  Uiso   1.00
C12    C     0.16640   0.33491   0.24976   0.00000  Uiso   1.00
C13    C     0.11454   0.40046   0.23633   0.00000  Uiso   1.00
C14    C     0.16135   0.11541   0.25046   0.00000  Uiso   1.00
C15    C     0.16287   0.38299   0.24917   0.00000  Uiso   1.00
C16    C     0.15276   0.08963   0.20767   0.00000  Uiso   1.00
C17    C     0.20536   0.41119   0.26501   0.00000  Uiso   1.00
C18    C     0.14529   0.04374   0.21135   0.00000  Uiso   1.00
C19    C     0.19789   0.45652   0.26884   0.00000  Uiso   1.00
C20    C     0.14723   0.02261   0.25630   0.00000  Uiso   1.00
C21    C     0.14951   0.47407   0.25666   0.00000  Uiso   1.00
C22    C     0.32609   0.20510   0.20030   0.00000  Uiso   1.00
C23    C     0.19707   0.28081   0.05675   0.00000  Uiso   1.00
C24    C     0.00797   0.29465   0.30203   0.00000  Uiso   1.00
C25    C     0.15603   0.02703   0.34815   0.00000  Uiso   1.00
C26    C     0.05413   0.46243   0.22803   0.00000  Uiso   1.00
C27    C     0.15295   0.10817   0.15840   0.00000  Uiso   1.00
C28    C     0.25815   0.39509   0.27570   0.00000  Uiso   1.00
C29    C     0.23060   0.31352   0.13463   0.00000  Uiso   1.00
C30    C     0.08327   0.20524   0.36578   0.00000  Uiso   1.00
C31    C     0.12671   0.23146   0.44290   0.00000  Uiso   1.00
C32    C     0.19689   0.28036   0.10719   0.00000  Uiso   1.00
C33    C     0.12699   0.23003   0.39252   0.00000  Uiso   1.00
C34    C     0.13719   0.21952   0.10181   0.00000  Uiso   1.00
C35    C     0.20670   0.26986   0.39916   0.00000  Uiso   1.00
C36    C     0.13792   0.21809   0.05134   0.00000  Uiso   1.00
Cu37   Cu    0.16667   0.24999   0.29822   0.00000  Uiso   1.00
Cu38   Cu    0.16667   0.25000   0.20179   0.00000  Uiso   1.00
H39    H     0.28648   0.14661   0.19190   0.00000  Uiso   1.00
H40    H     0.23035   0.47889   0.27980   0.00000  Uiso   1.00
H41    H     0.21995   0.30626   0.04074   0.00000  Uiso   1.00
H42    H     0.09390   0.21714   0.45829   0.00000  Uiso   1.00
H43    H     0.30083   0.32884   0.16881   0.00000  Uiso   1.00
H44    H     0.00665   0.19396   0.35581   0.00000  Uiso   1.00
H45    H     0.11337   0.19566   0.11901   0.00000  Uiso   1.00
H46    H     0.23785   0.28577   0.38269   0.00000  Uiso   1.00
H47    H     0.11538   0.19205   0.03163   0.00000  Uiso   1.00
H48    H     0.24229   0.28415   0.47078   0.00000  Uiso   1.00
H49    H     0.05734   0.34692   0.31713   0.00000  Uiso   1.00
H50    H     0.17540   0.03353   0.42009   0.00000  Uiso   1.00
H51    H     0.31521   0.44968   0.19687   0.00000  Uiso   1.00
H52    H     0.16816   0.11307   0.32849   0.00000  Uiso   1.00
H53    H     0.08249   0.37806   0.22433   0.00000  Uiso   1.00
H54    H     0.19347   0.13886   0.10975   0.00000  Uiso   1.00
H55    H     0.32957   0.40618   0.30959   0.00000  Uiso   1.00
H56    H     0.14037   0.02382   0.17876   0.00000  Uiso   1.00
N57    N     0.16667   0.25001   0.12935   0.00000  Uiso   1.00
N58    N     0.16667   0.24999   0.37066   0.00000  Uiso   1.00
O59    O     0.16667   0.18573   0.29072   0.00000  Uiso   1.00
O60    O     0.29573   0.17053   0.21702   0.00000  Uiso   1.00
O61    O     0.32508   0.29715   0.34125   0.00000  Uiso   1.00
O62    O     0.04506   0.32583   0.28974   0.00000  Uiso   1.00
O63    O     0.13741   0.48972   0.35317   0.00000  Uiso   1.00
O64    O     0.17735   0.05084   0.38892   0.00000  Uiso   1.00
O65    O     0.04320   0.49919   0.24099   0.00000  Uiso   1.00
O66    O     0.01628   0.43521   0.20242   0.00000  Uiso   1.00
O67    O     0.11526   0.10250   0.12870   0.00000  Uiso   1.00
O68    O     0.19723   0.12953   0.14499   0.00000  Uiso   1.00
O69    O     0.27041   0.36135   0.25674   0.00000  Uiso   1.00
O70    O     0.16666   0.31427   0.20929   0.00000  Uiso   1.00
O71    O     0.29461   0.41967   0.30611   0.00000  Uiso   1.00
O72    O     0.21623   0.35133   0.13830   0.00000  Uiso   1.00
O73    O     0.28072   0.30296   0.15191   0.00000  Uiso   1.00
O74    O     0.09036   0.17521   0.33859   0.00000  Uiso   1.00
O75    O     0.03348   0.21358   0.37530   0.00000  Uiso   1.00
O76    O     0.16667   0.18573   0.20928   0.00000  Uiso   1.00
O77    O     0.16666   0.31427   0.29072   0.00000  Uiso   1.00
O78    O     0.09161   0.24999   0.28132   0.00000  Uiso   1.00
O79    O     0.24172   0.25001   0.21868   0.00000  Uiso   1.00
O80    O     0.09161   0.25000   0.19989   0.00000  Uiso   1.00
O81    O     0.24172   0.25000   0.30012   0.00000  Uiso   1.00
O82    O     0.00383   0.20459   0.15888   0.00000  Uiso   1.00
C83    C     0.49911   0.16457   0.25000   0.00000  Uiso   1.00
C84    C     0.54199   0.26954   0.45002   0.00000  Uiso   1.00
C85    C     0.50120   0.24942   0.02754   0.00000  Uiso   1.00
C86    C     0.50139   0.25013   0.47303   0.00000  Uiso   1.00
C87    C     0.40156   0.24891   0.23815   0.00000  Uiso   1.00
C88    C     0.59849   0.25158   0.26193   0.00000  Uiso   1.00
C89    C     0.34703   0.24137   0.23382   0.00000  Uiso   1.00
C90    C     0.65317   0.25968   0.26662   0.00000  Uiso   1.00
C91    C     0.48852   0.04767   0.29923   0.00000  Uiso   1.00
C92    C     0.44020   0.44596   0.24022   0.00000  Uiso   1.00
C93    C     0.49559   0.09378   0.29559   0.00000  Uiso   1.00
C94    C     0.49973   0.33491   0.24976   0.00000  Uiso   1.00
C95    C     0.44788   0.40046   0.23633   0.00000  Uiso   1.00
C96    C     0.49468   0.11541   0.25046   0.00000  Uiso   1.00
C97    C     0.49621   0.38299   0.24917   0.00000  Uiso   1.00
C98    C     0.48609   0.08963   0.20767   0.00000  Uiso   1.00
C99    C     0.53870   0.41119   0.26501   0.00000  Uiso   1.00
C100   C     0.47862   0.04374   0.21135   0.00000  Uiso   1.00
C101   C     0.53123   0.45652   0.26884   0.00000  Uiso   1.00
C102   C     0.48057   0.02261   0.25630   0.00000  Uiso   1.00
C103   C     0.48285   0.47407   0.25666   0.00000  Uiso   1.00
C104   C     0.65943   0.20510   0.20030   0.00000  Uiso   1.00
C105   C     0.53041   0.28081   0.05675   0.00000  Uiso   1.00
C106   C     0.34130   0.29465   0.30203   0.00000  Uiso   1.00
C107   C     0.48936   0.02703   0.34815   0.00000  Uiso   1.00
C108   C     0.38746   0.46243   0.22803   0.00000  Uiso   1.00
C109   C     0.48628   0.10817   0.15840   0.00000  Uiso   1.00
C110   C     0.59148   0.39509   0.27570   0.00000  Uiso   1.00
C111   C     0.56394   0.31352   0.13463   0.00000  Uiso   1.00
C112   C     0.41660   0.20524   0.36578   0.00000  Uiso   1.00
C113   C     0.46005   0.23146   0.44290   0.00000  Uiso   1.00
C114   C     0.53022   0.28036   0.10719   0.00000  Uiso   1.00
C115   C     0.46032   0.23003   0.39252   0.00000  Uiso   1.00
C116   C     0.47052   0.21952   0.10181   0.00000  Uiso   1.00
C117   C     0.54003   0.26986   0.39916   0.00000  Uiso   1.00
C118   C     0.47126   0.21809   0.05134   0.00000  Uiso   1.00
Cu119  Cu    0.50000   0.24999   0.29822   0.00000  Uiso   1.00
Cu120  Cu    0.50000   0.25000   0.20179   0.00000  Uiso   1.00
H121   H     0.61981   0.14661   0.19190   0.00000  Uiso   1.00
H122   H     0.56368   0.47889   0.27980   0.00000  Uiso   1.00
H123   H     0.55328   0.30626   0.04074   0.00000  Uiso   1.00
H124   H     0.42724   0.21714   0.45829   0.00000  Uiso   1.00
H125   H     0.63416   0.32884   0.16881   0.00000  Uiso   1.00
H126   H     0.33999   0.19396   0.35581   0.00000  Uiso   1.00
H127   H     0.44670   0.19566   0.11901   0.00000  Uiso   1.00
H128   H     0.57118   0.28577   0.38269   0.00000  Uiso   1.00
H129   H     0.44872   0.19205   0.03163   0.00000  Uiso   1.00
H130   H     0.57562   0.28415   0.47078   0.00000  Uiso   1.00
H131   H     0.39067   0.34692   0.31713   0.00000  Uiso   1.00
H132   H     0.50874   0.03353   0.42009   0.00000  Uiso   1.00
H133   H     0.64854   0.44968   0.19687   0.00000  Uiso   1.00
H134   H     0.50149   0.11307   0.32849   0.00000  Uiso   1.00
H135   H     0.41582   0.37806   0.22433   0.00000  Uiso   1.00
H136   H     0.52680   0.13886   0.10975   0.00000  Uiso   1.00
H137   H     0.66290   0.40618   0.30959   0.00000  Uiso   1.00
H138   H     0.47371   0.02382   0.17876   0.00000  Uiso   1.00
N139   N     0.50000   0.25001   0.12935   0.00000  Uiso   1.00
N140   N     0.50000   0.24999   0.37066   0.00000  Uiso   1.00
O141   O     0.50000   0.18573   0.29072   0.00000  Uiso   1.00
O142   O     0.62906   0.17053   0.21702   0.00000  Uiso   1.00
O143   O     0.65841   0.29715   0.34125   0.00000  Uiso   1.00
O144   O     0.37839   0.32583   0.28974   0.00000  Uiso   1.00
O145   O     0.47074   0.48972   0.35317   0.00000  Uiso   1.00
O146   O     0.51068   0.05084   0.38892   0.00000  Uiso   1.00
O147   O     0.37654   0.49919   0.24099   0.00000  Uiso   1.00
O148   O     0.34962   0.43521   0.20242   0.00000  Uiso   1.00
O149   O     0.44860   0.10250   0.12870   0.00000  Uiso   1.00
O150   O     0.53057   0.12953   0.14499   0.00000  Uiso   1.00
O151   O     0.60374   0.36135   0.25674   0.00000  Uiso   1.00
O152   O     0.50000   0.31427   0.20929   0.00000  Uiso   1.00
O153   O     0.62794   0.41967   0.30611   0.00000  Uiso   1.00
O154   O     0.54956   0.35133   0.13830   0.00000  Uiso   1.00
O155   O     0.61406   0.30296   0.15191   0.00000  Uiso   1.00
O156   O     0.42369   0.17521   0.33859   0.00000  Uiso   1.00
O157   O     0.36682   0.21358   0.37530   0.00000  Uiso   1.00
O158   O     0.50000   0.18573   0.20928   0.00000  Uiso   1.00
O159   O     0.50000   0.31427   0.29072   0.00000  Uiso   1.00
O160   O     0.42495   0.24999   0.28132   0.00000  Uiso   1.00
O161   O     0.57505   0.25001   0.21868   0.00000  Uiso   1.00
O162   O     0.42495   0.25000   0.19989   0.00000  Uiso   1.00
O163   O     0.57505   0.25000   0.30012   0.00000  Uiso   1.00
O164   O     0.33717   0.20459   0.15888   0.00000  Uiso   1.00
C165   C     0.83244   0.16457   0.25000   0.00000  Uiso   1.00
C166   C     0.87532   0.26954   0.45002   0.00000  Uiso   1.00
C167   C     0.83454   0.24942   0.02754   0.00000  Uiso   1.00
C168   C     0.83472   0.25013   0.47303   0.00000  Uiso   1.00
C169   C     0.73490   0.24891   0.23815   0.00000  Uiso   1.00
C170   C     0.93183   0.25158   0.26193   0.00000  Uiso   1.00
C171   C     0.68036   0.24137   0.23382   0.00000  Uiso   1.00
C172   C     0.98650   0.25968   0.26662   0.00000  Uiso   1.00
C173   C     0.82185   0.04767   0.29923   0.00000  Uiso   1.00
C174   C     0.77354   0.44596   0.24022   0.00000  Uiso   1.00
C175   C     0.82892   0.09378   0.29559   0.00000  Uiso   1.00
C176   C     0.83306   0.33491   0.24976   0.00000  Uiso   1.00
C177   C     0.78121   0.40046   0.23633   0.00000  Uiso   1.00
C178   C     0.82802   0.11541   0.25046   0.00000  Uiso   1.00
C179   C     0.82954   0.38299   0.24917   0.00000  Uiso   1.00
C180   C     0.81943   0.08963   0.20767   0.00000  Uiso   1.00
C181   C     0.87203   0.41119   0.26501   0.00000  Uiso   1.00
C182   C     0.81195   0.04374   0.21135   0.00000  Uiso   1.00
C183   C     0.86456   0.45652   0.26884   0.00000  Uiso   1.00
C184   C     0.81390   0.02261   0.25630   0.00000  Uiso   1.00
C185   C     0.81618   0.47407   0.25666   0.00000  Uiso   1.00
C186   C     0.99276   0.20510   0.20030   0.00000  Uiso   1.00
C187   C     0.86374   0.28081   0.05675   0.00000  Uiso   1.00
C188   C     0.67464   0.29465   0.30203   0.00000  Uiso   1.00
C189   C     0.82269   0.02703   0.34815   0.00000  Uiso   1.00
C190   C     0.72080   0.46243   0.22803   0.00000  Uiso   1.00
C191   C     0.81962   0.10817   0.15840   0.00000  Uiso   1.00
C192   C     0.92481   0.39509   0.27570   0.00000  Uiso   1.00
C193   C     0.89727   0.31352   0.13463   0.00000  Uiso   1.00
C194   C     0.74993   0.20524   0.36578   0.00000  Uiso   1.00
C195   C     0.79338   0.23146   0.44290   0.00000  Uiso   1.00
C196   C     0.86356   0.28036   0.10719   0.00000  Uiso   1.00
C197   C     0.79366   0.23003   0.39252   0.00000  Uiso   1.00
C198   C     0.80385   0.21952   0.10181   0.00000  Uiso   1.00
C199   C     0.87337   0.26986   0.39916   0.00000  Uiso   1.00
C200   C     0.80459   0.21809   0.05134   0.00000  Uiso   1.00
Cu201  Cu    0.83333   0.24999   0.29822   0.00000  Uiso   1.00
Cu202  Cu    0.83333   0.25000   0.20179   0.00000  Uiso   1.00
H203   H     0.95314   0.14661   0.19190   0.00000  Uiso   1.00
H204   H     0.89702   0.47889   0.27980   0.00000  Uiso   1.00
H205   H     0.88661   0.30626   0.04074   0.00000  Uiso   1.00
H206   H     0.76057   0.21714   0.45829   0.00000  Uiso   1.00
H207   H     0.96750   0.32884   0.16881   0.00000  Uiso   1.00
H208   H     0.67332   0.19396   0.35581   0.00000  Uiso   1.00
H209   H     0.78004   0.19566   0.11901   0.00000  Uiso   1.00
H210   H     0.90452   0.28577   0.38269   0.00000  Uiso   1.00
H211   H     0.78205   0.19205   0.03163   0.00000  Uiso   1.00
H212   H     0.90896   0.28415   0.47078   0.00000  Uiso   1.00
H213   H     0.72400   0.34692   0.31713   0.00000  Uiso   1.00
H214   H     0.84207   0.03353   0.42009   0.00000  Uiso   1.00
H215   H     0.98187   0.44968   0.19687   0.00000  Uiso   1.00
H216   H     0.83483   0.11307   0.32849   0.00000  Uiso   1.00
H217   H     0.74916   0.37806   0.22433   0.00000  Uiso   1.00
H218   H     0.86014   0.13886   0.10975   0.00000  Uiso   1.00
H219   H     0.99623   0.40618   0.30959   0.00000  Uiso   1.00
H220   H     0.80704   0.02382   0.17876   0.00000  Uiso   1.00
N221   N     0.83333   0.25001   0.12935   0.00000  Uiso   1.00
N222   N     0.83333   0.24999   0.37066   0.00000  Uiso   1.00
O223   O     0.83334   0.18573   0.29072   0.00000  Uiso   1.00
O224   O     0.96240   0.17053   0.21702   0.00000  Uiso   1.00
O225   O     0.99175   0.29715   0.34125   0.00000  Uiso   1.00
O226   O     0.71172   0.32583   0.28974   0.00000  Uiso   1.00
O227   O     0.80408   0.48972   0.35317   0.00000  Uiso   1.00
O228   O     0.84402   0.05084   0.38892   0.00000  Uiso   1.00
O229   O     0.70987   0.49919   0.24099   0.00000  Uiso   1.00
O230   O     0.68295   0.43521   0.20242   0.00000  Uiso   1.00
O231   O     0.78193   0.10250   0.12870   0.00000  Uiso   1.00
O232   O     0.86390   0.12953   0.14499   0.00000  Uiso   1.00
O233   O     0.93708   0.36135   0.25674   0.00000  Uiso   1.00
O234   O     0.83333   0.31427   0.20929   0.00000  Uiso   1.00
O235   O     0.96128   0.41967   0.30611   0.00000  Uiso   1.00
O236   O     0.88289   0.35133   0.13830   0.00000  Uiso   1.00
O237   O     0.94739   0.30296   0.15191   0.00000  Uiso   1.00
O238   O     0.75702   0.17521   0.33859   0.00000  Uiso   1.00
O239   O     0.70015   0.21358   0.37530   0.00000  Uiso   1.00
O240   O     0.83334   0.18573   0.20928   0.00000  Uiso   1.00
O241   O     0.83333   0.31427   0.29072   0.00000  Uiso   1.00
O242   O     0.75828   0.24999   0.28132   0.00000  Uiso   1.00
O243   O     0.90839   0.25001   0.21868   0.00000  Uiso   1.00
O244   O     0.75828   0.25000   0.19989   0.00000  Uiso   1.00
O245   O     0.90839   0.25000   0.30012   0.00000  Uiso   1.00
O246   O     0.67050   0.20459   0.15888   0.00000  Uiso   1.00
C247   C     0.16578   0.66457   0.25000   0.00000  Uiso   1.00
C248   C     0.20866   0.76954   0.45002   0.00000  Uiso   1.00
C249   C     0.16787   0.74942   0.02754   0.00000  Uiso   1.00
C250   C     0.16806   0.75013   0.47303   0.00000  Uiso   1.00
C251   C     0.06823   0.74891   0.23815   0.00000  Uiso   1.00
C252   C     0.26516   0.75158   0.26193   0.00000  Uiso   1.00
C253   C     0.01370   0.74137   0.23382   0.00000  Uiso   1.00
C254   C     0.31983   0.75968   0.26662   0.00000  Uiso   1.00
C255   C     0.15519   0.54767   0.29923   0.00000  Uiso   1.00
C256   C     0.10687   0.94596   0.24022   0.00000  Uiso   1.00
C257   C     0.16226   0.59378   0.29559   0.00000  Uiso   1.00
C258   C     0.16640   0.83491   0.24976   0.00000  Uiso   1.00
C259   C     0.11454   0.90046   0.23633   0.00000  Uiso   1.00
C260   C     0.16135   0.61541   0.25046   0.00000  Uiso   1.00
C261   C     0.16287   0.88299   0.24917   0.00000  Uiso   1.00
C262   C     0.15276   0.58963   0.20767   0.00000  Uiso   1.00
C263   C     0.20536   0.91119   0.26501   0.00000  Uiso   1.00
C264   C     0.14529   0.54374   0.21135   0.00000  Uiso   1.00
C265   C     0.19789   0.95652   0.26884   0.00000  Uiso   1.00
C266   C     0.14723   0.52261   0.25630   0.00000  Uiso   1.00
C267   C     0.14951   0.97407   0.25666   0.00000  Uiso   1.00
C268   C     0.32609   0.70510   0.20030   0.00000  Uiso   1.00
C269   C     0.19707   0.78081   0.05675   0.00000  Uiso   1.00
C270   C     0.00797   0.79465   0.30203   0.00000  Uiso   1.00
C271   C     0.15603   0.52703   0.34815   0.00000  Uiso   1.00
C272   C     0.05413   0.96243   0.22803   0.00000  Uiso   1.00
C273   C     0.15295   0.60817   0.15840   0.00000  Uiso   1.00
C274   C     0.25815   0.89509   0.27570   0.00000  Uiso   1.00
C275   C     0.23060   0.81352   0.13463   0.00000  Uiso   1.00
C276   C     0.08327   0.70524   0.36578   0.00000  Uiso   1.00
C277   C     0.12671   0.73146   0.44290   0.00000  Uiso   1.00
C278   C     0.19689   0.78036   0.10719   0.00000  Uiso   1.00
C279   C     0.12699   0.73003   0.39252   0.00000  Uiso   1.00
C280   C     0.13719   0.71952   0.10181   0.00000  Uiso   1.00
C281   C     0.20670   0.76986   0.39916   0.00000  Uiso   1.00
C282   C     0.13792   0.71809   0.05134   0.00000  Uiso   1.00
Cu283  Cu    0.16667   0.74999   0.29822   0.00000  Uiso   1.00
Cu284  Cu    0.16667   0.75000   0.20179   0.00000  Uiso   1.00
H285   H     0.28648   0.64661   0.19190   0.00000  Uiso   1.00
H286   H     0.23035   0.97889   0.27980   0.00000  Uiso   1.00
H287   H     0.21995   0.80626   0.04074   0.00000  Uiso   1.00
H288   H     0.09390   0.71714   0.45829   0.00000  Uiso   1.00
H289   H     0.30083   0.82884   0.16881   0.00000  Uiso   1.00
H290   H     0.00665   0.69396   0.35581   0.00000  Uiso   1.00
H291   H     0.11337   0.69566   0.11901   0.00000  Uiso   1.00
H292   H     0.23785   0.78577   0.38269   0.00000  Uiso   1.00
H293   H     0.11538   0.69205   0.03163   0.00000  Uiso   1.00
H294   H     0.24229   0.78415   0.47078   0.00000  Uiso   1.00
H295   H     0.05734   0.84692   0.31713   0.00000  Uiso   1.00
H296   H     0.17540   0.53353   0.42009   0.00000  Uiso   1.00
H297   H     0.31521   0.94968   0.19687   0.00000  Uiso   1.00
H298   H     0.16816   0.61307   0.32849   0.00000  Uiso   1.00
H299   H     0.08249   0.87806   0.22433   0.00000  Uiso   1.00
H300   H     0.19347   0.63886   0.10975   0.00000  Uiso   1.00
H301   H     0.32957   0.90618   0.30959   0.00000  Uiso   1.00
H302   H     0.14037   0.52382   0.17876   0.00000  Uiso   1.00
N303   N     0.16667   0.75001   0.12935   0.00000  Uiso   1.00
N304   N     0.16667   0.74999   0.37066   0.00000  Uiso   1.00
O305   O     0.16667   0.68573   0.29072   0.00000  Uiso   1.00
O306   O     0.29573   0.67053   0.21702   0.00000  Uiso   1.00
O307   O     0.32508   0.79715   0.34125   0.00000  Uiso   1.00
O308   O     0.04506   0.82583   0.28974   0.00000  Uiso   1.00
O309   O     0.13741   0.98972   0.35317   0.00000  Uiso   1.00
O310   O     0.17735   0.55084   0.38892   0.00000  Uiso   1.00
O311   O     0.04320   0.99919   0.24099   0.00000  Uiso   1.00
O312   O     0.01628   0.93521   0.20242   0.00000  Uiso   1.00
O313   O     0.11526   0.60250   0.12870   0.00000  Uiso   1.00
O314   O     0.19723   0.62953   0.14499   0.00000  Uiso   1.00
O315   O     0.27041   0.86135   0.25674   0.00000  Uiso   1.00
O316   O     0.16666   0.81427   0.20929   0.00000  Uiso   1.00
O317   O     0.29461   0.91967   0.30611   0.00000  Uiso   1.00
O318   O     0.21623   0.85133   0.13830   0.00000  Uiso   1.00
O319   O     0.28072   0.80296   0.15191   0.00000  Uiso   1.00
O320   O     0.09036   0.67521   0.33859   0.00000  Uiso   1.00
O321   O     0.03348   0.71358   0.37530   0.00000  Uiso   1.00
O322   O     0.16667   0.68573   0.20928   0.00000  Uiso   1.00
O323   O     0.16666   0.81427   0.29072   0.00000  Uiso   1.00
O324   O     0.09161   0.74999   0.28132   0.00000  Uiso   1.00
O325   O     0.24172   0.75001   0.21868   0.00000  Uiso   1.00
O326   O     0.09161   0.75000   0.19989   0.00000  Uiso   1.00
O327   O     0.24172   0.75000   0.30012   0.00000  Uiso   1.00
O328   O     0.00383   0.70459   0.15888   0.00000  Uiso   1.00
C329   C     0.49911   0.66457   0.25000   0.00000  Uiso   1.00
C330   C     0.54199   0.76954   0.45002   0.00000  Uiso   1.00
C331   C     0.50120   0.74942   0.02754   0.00000  Uiso   1.00
C332   C     0.50139   0.75013   0.47303   0.00000  Uiso   1.00
C333   C     0.40156   0.74891   0.23815   0.00000  Uiso   1.00
C334   C     0.59849   0.75158   0.26193   0.00000  Uiso   1.00
C335   C     0.34703   0.74137   0.23382   0.00000  Uiso   1.00
C336   C     0.65317   0.75968   0.26662   0.00000  Uiso   1.00
C337   C     0.48852   0.54767   0.29923   0.00000  Uiso   1.00
C338   C     0.44020   0.94596   0.24022   0.00000  Uiso   1.00
C339   C     0.49559   0.59378   0.29559   0.00000  Uiso   1.00
C340   C     0.49973   0.83491   0.24976   0.00000  Uiso   1.00
C341   C     0.44788   0.90046   0.23633   0.00000  Uiso   1.00
C342   C     0.49468   0.61541   0.25046   0.00000  Uiso   1.00
C343   C     0.49621   0.88299   0.24917   0.00000  Uiso   1.00
C344   C     0.48609   0.58963   0.20767   0.00000  Uiso   1.00
C345   C     0.53870   0.91119   0.26501   0.00000  Uiso   1.00
C346   C     0.47862   0.54374   0.21135   0.00000  Uiso   1.00
C347   C     0.53123   0.95652   0.26884   0.00000  Uiso   1.00
C348   C     0.48057   0.52261   0.25630   0.00000  Uiso   1.00
C349   C     0.48285   0.97407   0.25666   0.00000  Uiso   1.00
C350   C     0.65943   0.70510   0.20030   0.00000  Uiso   1.00
C351   C     0.53041   0.78081   0.05675   0.00000  Uiso   1.00
C352   C     0.34130   0.79465   0.30203   0.00000  Uiso   1.00
C353   C     0.48936   0.52703   0.34815   0.00000  Uiso   1.00
C354   C     0.38746   0.96243   0.22803   0.00000  Uiso   1.00
C355   C     0.48628   0.60817   0.15840   0.00000  Uiso   1.00
C356   C     0.59148   0.89509   0.27570   0.00000  Uiso   1.00
C357   C     0.56394   0.81352   0.13463   0.00000  Uiso   1.00
C358   C     0.41660   0.70524   0.36578   0.00000  Uiso   1.00
C359   C     0.46005   0.73146   0.44290   0.00000  Uiso   1.00
C360   C     0.53022   0.78036   0.10719   0.00000  Uiso   1.00
C361   C     0.46032   0.73003   0.39252   0.00000  Uiso   1.00
C362   C     0.47052   0.71952   0.10181   0.00000  Uiso   1.00
C363   C     0.54003   0.76986   0.39916   0.00000  Uiso   1.00
C364   C     0.47126   0.71809   0.05134   0.00000  Uiso   1.00
Cu365  Cu    0.50000   0.74999   0.29822   0.00000  Uiso   1.00
Cu366  Cu    0.50000   0.75000   0.20179   0.00000  Uiso   1.00
H367   H     0.61981   0.64661   0.19190   0.00000  Uiso   1.00
H368   H     0.56368   0.97889   0.27980   0.00000  Uiso   1.00
H369   H     0.55328   0.80626   0.04074   0.00000  Uiso   1.00
H370   H     0.42724   0.71714   0.45829   0.00000  Uiso   1.00
H371   H     0.63416   0.82884   0.16881   0.00000  Uiso   1.00
H372   H     0.33999   0.69396   0.35581   0.00000  Uiso   1.00
H373   H     0.44670   0.69566   0.11901   0.00000  Uiso   1.00
H374   H     0.57118   0.78577   0.38269   0.00000  Uiso   1.00
H375   H     0.44872   0.69205   0.03163   0.00000  Uiso   1.00
H376   H     0.57562   0.78415   0.47078   0.00000  Uiso   1.00
H377   H     0.39067   0.84692   0.31713   0.00000  Uiso   1.00
H378   H     0.50874   0.53353   0.42009   0.00000  Uiso   1.00
H379   H     0.64854   0.94968   0.19687   0.00000  Uiso   1.00
H380   H     0.50149   0.61307   0.32849   0.00000  Uiso   1.00
H381   H     0.41582   0.87806   0.22433   0.00000  Uiso   1.00
H382   H     0.52680   0.63886   0.10975   0.00000  Uiso   1.00
H383   H     0.66290   0.90618   0.30959   0.00000  Uiso   1.00
H384   H     0.47371   0.52382   0.17876   0.00000  Uiso   1.00
N385   N     0.50000   0.75001   0.12935   0.00000  Uiso   1.00
N386   N     0.50000   0.74999   0.37066   0.00000  Uiso   1.00
O387   O     0.50000   0.68573   0.29072   0.00000  Uiso   1.00
O388   O     0.62906   0.67053   0.21702   0.00000  Uiso   1.00
O389   O     0.65841   0.79715   0.34125   0.00000  Uiso   1.00
O390   O     0.37839   0.82583   0.28974   0.00000  Uiso   1.00
O391   O     0.47074   0.98972   0.35317   0.00000  Uiso   1.00
O392   O     0.51068   0.55084   0.38892   0.00000  Uiso   1.00
O393   O     0.37654   0.99919   0.24099   0.00000  Uiso   1.00
O394   O     0.34962   0.93521   0.20242   0.00000  Uiso   1.00
O395   O     0.44860   0.60250   0.12870   0.00000  Uiso   1.00
O396   O     0.53057   0.62953   0.14499   0.00000  Uiso   1.00
O397   O     0.60374   0.86135   0.25674   0.00000  Uiso   1.00
O398   O     0.50000   0.81427   0.20929   0.00000  Uiso   1.00
O399   O     0.62794   0.91967   0.30611   0.00000  Uiso   1.00
O400   O     0.54956   0.85133   0.13830   0.00000  Uiso   1.00
O401   O     0.61406   0.80296   0.15191   0.00000  Uiso   1.00
O402   O     0.42369   0.67521   0.33859   0.00000  Uiso   1.00
O403   O     0.36682   0.71358   0.37530   0.00000  Uiso   1.00
O404   O     0.50000   0.68573   0.20928   0.00000  Uiso   1.00
O405   O     0.50000   0.81427   0.29072   0.00000  Uiso   1.00
O406   O     0.42495   0.74999   0.28132   0.00000  Uiso   1.00
O407   O     0.57505   0.75001   0.21868   0.00000  Uiso   1.00
O408   O     0.42495   0.75000   0.19989   0.00000  Uiso   1.00
O409   O     0.57505   0.75000   0.30012   0.00000  Uiso   1.00
O410   O     0.33717   0.70459   0.15888   0.00000  Uiso   1.00
C411   C     0.83244   0.66457   0.25000   0.00000  Uiso   1.00
C412   C     0.87532   0.76954   0.45002   0.00000  Uiso   1.00
C413   C     0.83454   0.74942   0.02754   0.00000  Uiso   1.00
C414   C     0.83472   0.75013   0.47303   0.00000  Uiso   1.00
C415   C     0.73490   0.74891   0.23815   0.00000  Uiso   1.00
C416   C     0.93183   0.75158   0.26193   0.00000  Uiso   1.00
C417   C     0.68036   0.74137   0.23382   0.00000  Uiso   1.00
C418   C     0.98650   0.75968   0.26662   0.00000  Uiso   1.00
C419   C     0.82185   0.54767   0.29923   0.00000  Uiso   1.00
C420   C     0.77354   0.94596   0.24022   0.00000  Uiso   1.00
C421   C     0.82892   0.59378   0.29559   0.00000  Uiso   1.00
C422   C     0.83306   0.83491   0.24976   0.00000  Uiso   1.00
C423   C     0.78121   0.90046   0.23633   0.00000  Uiso   1.00
C424   C     0.82802   0.61541   0.25046   0.00000  Uiso   1.00
C425   C     0.82954   0.88299   0.24917   0.00000  Uiso   1.00
C426   C     0.81943   0.58963   0.20767   0.00000  Uiso   1.00
C427   C     0.87203   0.91119   0.26501   0.00000  Uiso   1.00
C428   C     0.81195   0.54374   0.21135   0.00000  Uiso   1.00
C429   C     0.86456   0.95652   0.26884   0.00000  Uiso   1.00
C430   C     0.81390   0.52261   0.25630   0.00000  Uiso   1.00
C431   C     0.81618   0.97407   0.25666   0.00000  Uiso   1.00
C432   C     0.99276   0.70510   0.20030   0.00000  Uiso   1.00
C433   C     0.86374   0.78081   0.05675   0.00000  Uiso   1.00
C434   C     0.67464   0.79465   0.30203   0.00000  Uiso   1.00
C435   C     0.82269   0.52703   0.34815   0.00000  Uiso   1.00
C436   C     0.72080   0.96243   0.22803   0.00000  Uiso   1.00
C437   C     0.81962   0.60817   0.15840   0.00000  Uiso   1.00
C438   C     0.92481   0.89509   0.27570   0.00000  Uiso   1.00
C439   C     0.89727   0.81352   0.13463   0.00000  Uiso   1.00
C440   C     0.74993   0.70524   0.36578   0.00000  Uiso   1.00
C441   C     0.79338   0.73146   0.44290   0.00000  Uiso   1.00
C442   C     0.86356   0.78036   0.10719   0.00000  Uiso   1.00
C443   C     0.79366   0.73003   0.39252   0.00000  Uiso   1.00
C444   C     0.80385   0.71952   0.10181   0.00000  Uiso   1.00
C445   C     0.87337   0.76986   0.39916   0.00000  Uiso   1.00
C446   C     0.80459   0.71809   0.05134   0.00000  Uiso   1.00
Cu447  Cu    0.83333   0.74999   0.29822   0.00000  Uiso   1.00
Cu448  Cu    0.83333   0.75000   0.20179   0.00000  Uiso   1.00
H449   H     0.95314   0.64661   0.19190   0.00000  Uiso   1.00
H450   H     0.89702   0.97889   0.27980   0.00000  Uiso   1.00
H451   H     0.88661   0.80626   0.04074   0.00000  Uiso   1.00
H452   H     0.76057   0.71714   0.45829   0.00000  Uiso   1.00
H453   H     0.96750   0.82884   0.16881   0.00000  Uiso   1.00
H454   H     0.67332   0.69396   0.35581   0.00000  Uiso   1.00
H455   H     0.78004   0.69566   0.11901   0.00000  Uiso   1.00
H456   H     0.90452   0.78577   0.38269   0.00000  Uiso   1.00
H457   H     0.78205   0.69205   0.03163   0.00000  Uiso   1.00
H458   H     0.90896   0.78415   0.47078   0.00000  Uiso   1.00
H459   H     0.72400   0.84692   0.31713   0.00000  Uiso   1.00
H460   H     0.84207   0.53353   0.42009   0.00000  Uiso   1.00
H461   H     0.98187   0.94968   0.19687   0.00000  Uiso   1.00
H462   H     0.83483   0.61307   0.32849   0.00000  Uiso   1.00
H463   H     0.74916   0.87806   0.22433   0.00000  Uiso   1.00
H464   H     0.86014   0.63886   0.10975   0.00000  Uiso   1.00
H465   H     0.99623   0.90618   0.30959   0.00000  Uiso   1.00
H466   H     0.80704   0.52382   0.17876   0.00000  Uiso   1.00
N467   N     0.83333   0.75001   0.12935   0.00000  Uiso   1.00
N468   N     0.83333   0.74999   0.37066   0.00000  Uiso   1.00
O469   O     0.83334   0.68573   0.29072   0.00000  Uiso   1.00
O470   O     0.96240   0.67053   0.21702   0.00000  Uiso   1.00
O471   O     0.99175   0.79715   0.34125   0.00000  Uiso   1.00
O472   O     0.71172   0.82583   0.28974   0.00000  Uiso   1.00
O473   O     0.80408   0.98972   0.35317   0.00000  Uiso   1.00
O474   O     0.84402   0.55084   0.38892   0.00000  Uiso   1.00
O475   O     0.70987   0.99919   0.24099   0.00000  Uiso   1.00
O476   O     0.68295   0.93521   0.20242   0.00000  Uiso   1.00
O477   O     0.78193   0.60250   0.12870   0.00000  Uiso   1.00
O478   O     0.86390   0.62953   0.14499   0.00000  Uiso   1.00
O479   O     0.93708   0.86135   0.25674   0.00000  Uiso   1.00
O480   O     0.83333   0.81427   0.20929   0.00000  Uiso   1.00
O481   O     0.96128   0.91967   0.30611   0.00000  Uiso   1.00
O482   O     0.88289   0.85133   0.13830   0.00000  Uiso   1.00
O483   O     0.94739   0.80296   0.15191   0.00000  Uiso   1.00
O484   O     0.75702   0.67521   0.33859   0.00000  Uiso   1.00
O485   O     0.70015   0.71358   0.37530   0.00000  Uiso   1.00
O486   O     0.83334   0.68573   0.20928   0.00000  Uiso   1.00
O487   O     0.83333   0.81427   0.29072   0.00000  Uiso   1.00
O488   O     0.75828   0.74999   0.28132   0.00000  Uiso   1.00
O489   O     0.90839   0.75001   0.21868   0.00000  Uiso   1.00
O490   O     0.75828   0.75000   0.19989   0.00000  Uiso   1.00
O491   O     0.90839   0.75000   0.30012   0.00000  Uiso   1.00
O492   O     0.67050   0.70459   0.15888   0.00000  Uiso   1.00
C493   C     0.16578   0.16457   0.75000   0.00000  Uiso   1.00
C494   C     0.20866   0.26954   0.95002   0.00000  Uiso   1.00
C495   C     0.16787   0.24942   0.52754   0.00000  Uiso   1.00
C496   C     0.16806   0.25013   0.97303   0.00000  Uiso   1.00
C497   C     0.06823   0.24891   0.73815   0.00000  Uiso   1.00
C498   C     0.26516   0.25158   0.76193   0.00000  Uiso   1.00
C499   C     0.01370   0.24137   0.73382   0.00000  Uiso   1.00
C500   C     0.31983   0.25968   0.76662   0.00000  Uiso   1.00
C501   C     0.15519   0.04767   0.79923   0.00000  Uiso   1.00
C502   C     0.10687   0.44596   0.74022   0.00000  Uiso   1.00
C503   C     0.16226   0.09378   0.79559   0.00000  Uiso   1.00
C504   C     0.16640   0.33491   0.74976   0.00000  Uiso   1.00
C505   C     0.11454   0.40046   0.73633   0.00000  Uiso   1.00
C506   C     0.16135   0.11541   0.75046   0.00000  Uiso   1.00
C507   C     0.16287   0.38299   0.74917   0.00000  Uiso   1.00
C508   C     0.15276   0.08963   0.70767   0.00000  Uiso   1.00
C509   C     0.20536   0.41119   0.76501   0.00000  Uiso   1.00
C510   C     0.14529   0.04374   0.71135   0.00000  Uiso   1.00
C511   C     0.19789   0.45652   0.76884   0.00000  Uiso   1.00
C512   C     0.14723   0.02261   0.75630   0.00000  Uiso   1.00
C513   C     0.14951   0.47407   0.75666   0.00000  Uiso   1.00
C514   C     0.32609   0.20510   0.70030   0.00000  Uiso   1.00
C515   C     0.19707   0.28081   0.55675   0.00000  Uiso   1.00
C516   C     0.00797   0.29465   0.80203   0.00000  Uiso   1.00
C517   C     0.15603   0.02703   0.84815   0.00000  Uiso   1.00
C518   C     0.05413   0.46243   0.72803   0.00000  Uiso   1.00
C519   C     0.15295   0.10817   0.65840   0.00000  Uiso   1.00
C520   C     0.25815   0.39509   0.77570   0.00000  Uiso   1.00
C521   C     0.23060   0.31352   0.63463   0.00000  Uiso   1.00
C522   C     0.08327   0.20524   0.86578   0.00000  Uiso   1.00
C523   C     0.12671   0.23146   0.94290   0.00000  Uiso   1.00
C524   C     0.19689   0.28036   0.60719   0.00000  Uiso   1.00
C525   C     0.12699   0.23003   0.89252   0.00000  Uiso   1.00
C526   C     0.13719   0.21952   0.60181   0.00000  Uiso   1.00
C527   C     0.20670   0.26986   0.89916   0.00000  Uiso   1.00
C528   C     0.13792   0.21809   0.55134   0.00000  Uiso   1.00
Cu529  Cu    0.16667   0.24999   0.79822   0.00000  Uiso   1.00
Cu530  Cu    0.16667   0.25000   0.70179   0.00000  Uiso   1.00
H531   H     0.28648   0.14661   0.69190   0.00000  Uiso   1.00
H532   H     0.23035   0.47889   0.77980   0.00000  Uiso   1.00
H533   H     0.21995   0.30626   0.54074   0.00000  Uiso   1.00
H534   H     0.09390   0.21714   0.95829   0.00000  Uiso   1.00
H535   H     0.30083   0.32884   0.66881   0.00000  Uiso   1.00
H536   H     0.00665   0.19396   0.85581   0.00000  Uiso   1.00
H537   H     0.11337   0.19566   0.61901   0.00000  Uiso   1.00
H538   H     0.23785   0.28577   0.88269   0.00000  Uiso   1.00
H539   H     0.11538   0.19205   0.53163   0.00000  Uiso   1.00
H540   H     0.24229   0.28415   0.97078   0.00000  Uiso   1.00
H541   H     0.05734   0.34692   0.81713   0.00000  Uiso   1.00
H542   H     0.17540   0.03353   0.92009   0.00000  Uiso   1.00
H543   H     0.31521   0.44968   0.69687   0.00000  Uiso   1.00
H544   H     0.16816   0.11307   0.82849   0.00000  Uiso   1.00
H545   H     0.08249   0.37806   0.72433   0.00000  Uiso   1.00
H546   H     0.19347   0.13886   0.60975   0.00000  Uiso   1.00
H547   H     0.32957   0.40618   0.80959   0.00000  Uiso   1.00
H548   H     0.14037   0.02382   0.67876   0.00000  Uiso   1.00
N549   N     0.16667   0.25001   0.62935   0.00000  Uiso   1.00
N550   N     0.16667   0.24999   0.87066   0.00000  Uiso   1.00
O551   O     0.16667   0.18573   0.79072   0.00000  Uiso   1.00
O552   O     0.29573   0.17053   0.71702   0.00000  Uiso   1.00
O553   O     0.32508   0.29715   0.84125   0.00000  Uiso   1.00
O554   O     0.04506   0.32583   0.78974   0.00000  Uiso   1.00
O555   O     0.13741   0.48972   0.85317   0.00000  Uiso   1.00
O556   O     0.17735   0.05084   0.88892   0.00000  Uiso   1.00
O557   O     0.04320   0.49919   0.74099   0.00000  Uiso   1.00
O558   O     0.01628   0.43521   0.70242   0.00000  Uiso   1.00
O559   O     0.11526   0.10250   0.62870   0.00000  Uiso   1.00
O560   O     0.19723   0.12953   0.64499   0.00000  Uiso   1.00
O561   O     0.27041   0.36135   0.75674   0.00000  Uiso   1.00
O562   O     0.16666   0.31427   0.70929   0.00000  Uiso   1.00
O563   O     0.29461   0.41967   0.80611   0.00000  Uiso   1.00
O564   O     0.21623   0.35133   0.63830   0.00000  Uiso   1.00
O565   O     0.28072   0.30296   0.65191   0.00000  Uiso   1.00
O566   O     0.09036   0.17521   0.83859   0.00000  Uiso   1.00
O567   O     0.03348   0.21358   0.87530   0.00000  Uiso   1.00
O568   O     0.16667   0.18573   0.70928   0.00000  Uiso   1.00
O569   O     0.16666   0.31427   0.79072   0.00000  Uiso   1.00
O570   O     0.09161   0.24999   0.78132   0.00000  Uiso   1.00
O571   O     0.24172   0.25001   0.71868   0.00000  Uiso   1.00
O572   O     0.09161   0.25000   0.69989   0.00000  Uiso   1.00
O573   O     0.24172   0.25000   0.80012   0.00000  Uiso   1.00
O574   O     0.00383   0.20459   0.65888   0.00000  Uiso   1.00
C575   C     0.49911   0.16457   0.75000   0.00000  Uiso   1.00
C576   C     0.54199   0.26954   0.95002   0.00000  Uiso   1.00
C577   C     0.50120   0.24942   0.52754   0.00000  Uiso   1.00
C578   C     0.50139   0.25013   0.97303   0.00000  Uiso   1.00
C579   C     0.40156   0.24891   0.73815   0.00000  Uiso   1.00
C580   C     0.59849   0.25158   0.76193   0.00000  Uiso   1.00
C581   C     0.34703   0.24137   0.73382   0.00000  Uiso   1.00
C582   C     0.65317   0.25968   0.76662   0.00000  Uiso   1.00
C583   C     0.48852   0.04767   0.79923   0.00000  Uiso   1.00
C584   C     0.44020   0.44596   0.74022   0.00000  Uiso   1.00
C585   C     0.49559   0.09378   0.79559   0.00000  Uiso   1.00
C586   C     0.49973   0.33491   0.74976   0.00000  Uiso   1.00
C587   C     0.44788   0.40046   0.73633   0.00000  Uiso   1.00
C588   C     0.49468   0.11541   0.75046   0.00000  Uiso   1.00
C589   C     0.49621   0.38299   0.74917   0.00000  Uiso   1.00
C590   C     0.48609   0.08963   0.70767   0.00000  Uiso   1.00
C591   C     0.53870   0.41119   0.76501   0.00000  Uiso   1.00
C592   C     0.47862   0.04374   0.71135   0.00000  Uiso   1.00
C593   C     0.53123   0.45652   0.76884   0.00000  Uiso   1.00
C594   C     0.48057   0.02261   0.75630   0.00000  Uiso   1.00
C595   C     0.48285   0.47407   0.75666   0.00000  Uiso   1.00
C596   C     0.65943   0.20510   0.70030   0.00000  Uiso   1.00
C597   C     0.53041   0.28081   0.55675   0.00000  Uiso   1.00
C598   C     0.34130   0.29465   0.80203   0.00000  Uiso   1.00
C599   C     0.48936   0.02703   0.84815   0.00000  Uiso   1.00
C600   C     0.38746   0.46243   0.72803   0.00000  Uiso   1.00
C601   C     0.48628   0.10817   0.65840   0.00000  Uiso   1.00
C602   C     0.59148   0.39509   0.77570   0.00000  Uiso   1.00
C603   C     0.56394   0.31352   0.63463   0.00000  Uiso   1.00
C604   C     0.41660   0.20524   0.86578   0.00000  Uiso   1.00
C605   C     0.46005   0.23146   0.94290   0.00000  Uiso   1.00
C606   C     0.53022   0.28036   0.60719   0.00000  Uiso   1.00
C607   C     0.46032   0.23003   0.89252   0.00000  Uiso   1.00
C608   C     0.47052   0.21952   0.60181   0.00000  Uiso   1.00
C609   C     0.54003   0.26986   0.89916   0.00000  Uiso   1.00
C610   C     0.47126   0.21809   0.55134   0.00000  Uiso   1.00
Cu611  Cu    0.50000   0.24999   0.79822   0.00000  Uiso   1.00
Cu612  Cu    0.50000   0.25000   0.70179   0.00000  Uiso   1.00
H613   H     0.61981   0.14661   0.69190   0.00000  Uiso   1.00
H614   H     0.56368   0.47889   0.77980   0.00000  Uiso   1.00
H615   H     0.55328   0.30626   0.54074   0.00000  Uiso   1.00
H616   H     0.42724   0.21714   0.95829   0.00000  Uiso   1.00
H617   H     0.63416   0.32884   0.66881   0.00000  Uiso   1.00
H618   H     0.33999   0.19396   0.85581   0.00000  Uiso   1.00
H619   H     0.44670   0.19566   0.61901   0.00000  Uiso   1.00
H620   H     0.57118   0.28577   0.88269   0.00000  Uiso   1.00
H621   H     0.44872   0.19205   0.53163   0.00000  Uiso   1.00
H622   H     0.57562   0.28415   0.97078   0.00000  Uiso   1.00
H623   H     0.39067   0.34692   0.81713   0.00000  Uiso   1.00
H624   H     0.50874   0.03353   0.92009   0.00000  Uiso   1.00
H625   H     0.64854   0.44968   0.69687   0.00000  Uiso   1.00
H626   H     0.50149   0.11307   0.82849   0.00000  Uiso   1.00
H627   H     0.41582   0.37806   0.72433   0.00000  Uiso   1.00
H628   H     0.52680   0.13886   0.60975   0.00000  Uiso   1.00
H629   H     0.66290   0.40618   0.80959   0.00000  Uiso   1.00
H630   H     0.47371   0.02382   0.67876   0.00000  Uiso   1.00
N631   N     0.50000   0.25001   0.62935   0.00000  Uiso   1.00
N632   N     0.50000   0.24999   0.87066   0.00000  Uiso   1.00
O633   O     0.50000   0.18573   0.79072   0.00000  Uiso   1.00
O634   O     0.62906   0.17053   0.71702   0.00000  Uiso   1.00
O635   O     0.65841   0.29715   0.84125   0.00000  Uiso   1.00
O636   O     0.37839   0.32583   0.78974   0.00000  Uiso   1.00
O637   O     0.47074   0.48972   0.85317   0.00000  Uiso   1.00
O638   O     0.51068   0.05084   0.88892   0.00000  Uiso   1.00
O639   O     0.37654   0.49919   0.74099   0.00000  Uiso   1.00
O640   O     0.34962   0.43521   0.70242   0.00000  Uiso   1.00
O641   O     0.44860   0.10250   0.62870   0.00000  Uiso   1.00
O642   O     0.53057   0.12953   0.64499   0.00000  Uiso   1.00
O643   O     0.60374   0.36135   0.75674   0.00000  Uiso   1.00
O644   O     0.50000   0.31427   0.70929   0.00000  Uiso   1.00
O645   O     0.62794   0.41967   0.80611   0.00000  Uiso   1.00
O646   O     0.54956   0.35133   0.63830   0.00000  Uiso   1.00
O647   O     0.61406   0.30296   0.65191   0.00000  Uiso   1.00
O648   O     0.42369   0.17521   0.83859   0.00000  Uiso   1.00
O649   O     0.36682   0.21358   0.87530   0.00000  Uiso   1.00
O650   O     0.50000   0.18573   0.70928   0.00000  Uiso   1.00
O651   O     0.50000   0.31427   0.79072   0.00000  Uiso   1.00
O652   O     0.42495   0.24999   0.78132   0.00000  Uiso   1.00
O653   O     0.57505   0.25001   0.71868   0.00000  Uiso   1.00
O654   O     0.42495   0.25000   0.69989   0.00000  Uiso   1.00
O655   O     0.57505   0.25000   0.80012   0.00000  Uiso   1.00
O656   O     0.33717   0.20459   0.65888   0.00000  Uiso   1.00
C657   C     0.83244   0.16457   0.75000   0.00000  Uiso   1.00
C658   C     0.87532   0.26954   0.95002   0.00000  Uiso   1.00
C659   C     0.83454   0.24942   0.52754   0.00000  Uiso   1.00
C660   C     0.83472   0.25013   0.97303   0.00000  Uiso   1.00
C661   C     0.73490   0.24891   0.73815   0.00000  Uiso   1.00
C662   C     0.93183   0.25158   0.76193   0.00000  Uiso   1.00
C663   C     0.68036   0.24137   0.73382   0.00000  Uiso   1.00
C664   C     0.98650   0.25968   0.76662   0.00000  Uiso   1.00
C665   C     0.82185   0.04767   0.79923   0.00000  Uiso   1.00
C666   C     0.77354   0.44596   0.74022   0.00000  Uiso   1.00
C667   C     0.82892   0.09378   0.79559   0.00000  Uiso   1.00
C668   C     0.83306   0.33491   0.74976   0.00000  Uiso   1.00
C669   C     0.78121   0.40046   0.73633   0.00000  Uiso   1.00
C670   C     0.82802   0.11541   0.75046   0.00000  Uiso   1.00
C671   C     0.82954   0.38299   0.74917   0.00000  Uiso   1.00
C672   C     0.81943   0.08963   0.70767   0.00000  Uiso   1.00
C673   C     0.87203   0.41119   0.76501   0.00000  Uiso   1.00
C674   C     0.81195   0.04374   0.71135   0.00000  Uiso   1.00
C675   C     0.86456   0.45652   0.76884   0.00000  Uiso   1.00
C676   C     0.81390   0.02261   0.75630   0.00000  Uiso   1.00
C677   C     0.81618   0.47407   0.75666   0.00000  Uiso   1.00
C678   C     0.99276   0.20510   0.70030   0.00000  Uiso   1.00
C679   C     0.86374   0.28081   0.55675   0.00000  Uiso   1.00
C680   C     0.67464   0.29465   0.80203   0.00000  Uiso   1.00
C681   C     0.82269   0.02703   0.84815   0.00000  Uiso   1.00
C682   C     0.72080   0.46243   0.72803   0.00000  Uiso   1.00
C683   C     0.81962   0.10817   0.65840   0.00000  Uiso   1.00
C684   C     0.92481   0.39509   0.77570   0.00000  Uiso   1.00
C685   C     0.89727   0.31352   0.63463   0.00000  Uiso   1.00
C686   C     0.74993   0.20524   0.86578   0.00000  Uiso   1.00
C687   C     0.79338   0.23146   0.94290   0.00000  Uiso   1.00
C688   C     0.86356   0.28036   0.60719   0.00000  Uiso   1.00
C689   C     0.79366   0.23003   0.89252   0.00000  Uiso   1.00
C690   C     0.80385   0.21952   0.60181   0.00000  Uiso   1.00
C691   C     0.87337   0.26986   0.89916   0.00000  Uiso   1.00
C692   C     0.80459   0.21809   0.55134   0.00000  Uiso   1.00
Cu693  Cu    0.83333   0.24999   0.79822   0.00000  Uiso   1.00
Cu694  Cu    0.83333   0.25000   0.70179   0.00000  Uiso   1.00
H695   H     0.95314   0.14661   0.69190   0.00000  Uiso   1.00
H696   H     0.89702   0.47889   0.77980   0.00000  Uiso   1.00
H697   H     0.88661   0.30626   0.54074   0.00000  Uiso   1.00
H698   H     0.76057   0.21714   0.95829   0.00000  Uiso   1.00
H699   H     0.96750   0.32884   0.66881   0.00000  Uiso   1.00
H700   H     0.67332   0.19396   0.85581   0.00000  Uiso   1.00
H701   H     0.78004   0.19566   0.61901   0.00000  Uiso   1.00
H702   H     0.90452   0.28577   0.88269   0.00000  Uiso   1.00
H703   H     0.78205   0.19205   0.53163   0.00000  Uiso   1.00
H704   H     0.90896   0.28415   0.97078   0.00000  Uiso   1.00
H705   H     0.72400   0.34692   0.81713   0.00000  Uiso   1.00
H706   H     0.84207   0.03353   0.92009   0.00000  Uiso   1.00
H707   H     0.98187   0.44968   0.69687   0.00000  Uiso   1.00
H708   H     0.83483   0.11307   0.82849   0.00000  Uiso   1.00
H709   H     0.74916   0.37806   0.72433   0.00000  Uiso   1.00
H710   H     0.86014   0.13886   0.60975   0.00000  Uiso   1.00
H711   H     0.99623   0.40618   0.80959   0.00000  Uiso   1.00
H712   H     0.80704   0.02382   0.67876   0.00000  Uiso   1.00
N713   N     0.83333   0.25001   0.62935   0.00000  Uiso   1.00
N714   N     0.83333   0.24999   0.87066   0.00000  Uiso   1.00
O715   O     0.83334   0.18573   0.79072   0.00000  Uiso   1.00
O716   O     0.96240   0.17053   0.71702   0.00000  Uiso   1.00
O717   O     0.99175   0.29715   0.84125   0.00000  Uiso   1.00
O718   O     0.71172   0.32583   0.78974   0.00000  Uiso   1.00
O719   O     0.80408   0.48972   0.85317   0.00000  Uiso   1.00
O720   O     0.84402   0.05084   0.88892   0.00000  Uiso   1.00
O721   O     0.70987   0.49919   0.74099   0.00000  Uiso   1.00
O722   O     0.68295   0.43521   0.70242   0.00000  Uiso   1.00
O723   O     0.78193   0.10250   0.62870   0.00000  Uiso   1.00
O724   O     0.86390   0.12953   0.64499   0.00000  Uiso   1.00
O725   O     0.93708   0.36135   0.75674   0.00000  Uiso   1.00
O726   O     0.83333   0.31427   0.70929   0.00000  Uiso   1.00
O727   O     0.96128   0.41967   0.80611   0.00000  Uiso   1.00
O728   O     0.88289   0.35133   0.63830   0.00000  Uiso   1.00
O729   O     0.94739   0.30296   0.65191   0.00000  Uiso   1.00
O730   O     0.75702   0.17521   0.83859   0.00000  Uiso   1.00
O731   O     0.70015   0.21358   0.87530   0.00000  Uiso   1.00
O732   O     0.83334   0.18573   0.70928   0.00000  Uiso   1.00
O733   O     0.83333   0.31427   0.79072   0.00000  Uiso   1.00
O734   O     0.75828   0.24999   0.78132   0.00000  Uiso   1.00
O735   O     0.90839   0.25001   0.71868   0.00000  Uiso   1.00
O736   O     0.75828   0.25000   0.69989   0.00000  Uiso   1.00
O737   O     0.90839   0.25000   0.80012   0.00000  Uiso   1.00
O738   O     0.67050   0.20459   0.65888   0.00000  Uiso   1.00
C739   C     0.16578   0.66457   0.75000   0.00000  Uiso   1.00
C740   C     0.20866   0.76954   0.95002   0.00000  Uiso   1.00
C741   C     0.16787   0.74942   0.52754   0.00000  Uiso   1.00
C742   C     0.16806   0.75013   0.97303   0.00000  Uiso   1.00
C743   C     0.06823   0.74891   0.73815   0.00000  Uiso   1.00
C744   C     0.26516   0.75158   0.76193   0.00000  Uiso   1.00
C745   C     0.01370   0.74137   0.73382   0.00000  Uiso   1.00
C746   C     0.31983   0.75968   0.76662   0.00000  Uiso   1.00
C747   C     0.15519   0.54767   0.79923   0.00000  Uiso   1.00
C748   C     0.10687   0.94596   0.74022   0.00000  Uiso   1.00
C749   C     0.16226   0.59378   0.79559   0.00000  Uiso   1.00
C750   C     0.16640   0.83491   0.74976   0.00000  Uiso   1.00
C751   C     0.11454   0.90046   0.73633   0.00000  Uiso   1.00
C752   C     0.16135   0.61541   0.75046   0.00000  Uiso   1.00
C753   C     0.16287   0.88299   0.74917   0.00000  Uiso   1.00
C754   C     0.15276   0.58963   0.70767   0.00000  Uiso   1.00
C755   C     0.20536   0.91119   0.76501   0.00000  Uiso   1.00
C756   C     0.14529   0.54374   0.71135   0.00000  Uiso   1.00
C757   C     0.19789   0.95652   0.76884   0.00000  Uiso   1.00
C758   C     0.14723   0.52261   0.75630   0.00000  Uiso   1.00
C759   C     0.14951   0.97407   0.75666   0.00000  Uiso   1.00
C760   C     0.32609   0.70510   0.70030   0.00000  Uiso   1.00
C761   C     0.19707   0.78081   0.55675   0.00000  Uiso   1.00
C762   C     0.00797   0.79465   0.80203   0.00000  Uiso   1.00
C763   C     0.15603   0.52703   0.84815   0.00000  Uiso   1.00
C764   C     0.05413   0.96243   0.72803   0.00000  Uiso   1.00
C765   C     0.15295   0.60817   0.65840   0.00000  Uiso   1.00
C766   C     0.25815   0.89509   0.77570   0.00000  Uiso   1.00
C767   C     0.23060   0.81352   0.63463   0.00000  Uiso   1.00
C768   C     0.08327   0.70524   0.86578   0.00000  Uiso   1.00
C769   C     0.12671   0.73146   0.94290   0.00000  Uiso   1.00
C770   C     0.19689   0.78036   0.60719   0.00000  Uiso   1.00
C771   C     0.12699   0.73003   0.89252   0.00000  Uiso   1.00
C772   C     0.13719   0.71952   0.60181   0.00000  Uiso   1.00
C773   C     0.20670   0.76986   0.89916   0.00000  Uiso   1.00
C774   C     0.13792   0.71809   0.55134   0.00000  Uiso   1.00
Cu775  Cu    0.16667   0.74999   0.79822   0.00000  Uiso   1.00
Cu776  Cu    0.16667   0.75000   0.70179   0.00000  Uiso   1.00
H777   H     0.28648   0.64661   0.69190   0.00000  Uiso   1.00
H778   H     0.23035   0.97889   0.77980   0.00000  Uiso   1.00
H779   H     0.21995   0.80626   0.54074   0.00000  Uiso   1.00
H780   H     0.09390   0.71714   0.95829   0.00000  Uiso   1.00
H781   H     0.30083   0.82884   0.66881   0.00000  Uiso   1.00
H782   H     0.00665   0.69396   0.85581   0.00000  Uiso   1.00
H783   H     0.11337   0.69566   0.61901   0.00000  Uiso   1.00
H784   H     0.23785   0.78577   0.88269   0.00000  Uiso   1.00
H785   H     0.11538   0.69205   0.53163   0.00000  Uiso   1.00
H786   H     0.24229   0.78415   0.97078   0.00000  Uiso   1.00
H787   H     0.05734   0.84692   0.81713   0.00000  Uiso   1.00
H788   H     0.17540   0.53353   0.92009   0.00000  Uiso   1.00
H789   H     0.31521   0.94968   0.69687   0.00000  Uiso   1.00
H790   H     0.16816   0.61307   0.82849   0.00000  Uiso   1.00
H791   H     0.08249   0.87806   0.72433   0.00000  Uiso   1.00
H792   H     0.19347   0.63886   0.60975   0.00000  Uiso   1.00
H793   H     0.32957   0.90618   0.80959   0.00000  Uiso   1.00
H794   H     0.14037   0.52382   0.67876   0.00000  Uiso   1.00
N795   N     0.16667   0.75001   0.62935   0.00000  Uiso   1.00
N796   N     0.16667   0.74999   0.87066   0.00000  Uiso   1.00
O797   O     0.16667   0.68573   0.79072   0.00000  Uiso   1.00
O798   O     0.29573   0.67053   0.71702   0.00000  Uiso   1.00
O799   O     0.32508   0.79715   0.84125   0.00000  Uiso   1.00
O800   O     0.04506   0.82583   0.78974   0.00000  Uiso   1.00
O801   O     0.13741   0.98972   0.85317   0.00000  Uiso   1.00
O802   O     0.17735   0.55084   0.88892   0.00000  Uiso   1.00
O803   O     0.04320   0.99919   0.74099   0.00000  Uiso   1.00
O804   O     0.01628   0.93521   0.70242   0.00000  Uiso   1.00
O805   O     0.11526   0.60250   0.62870   0.00000  Uiso   1.00
O806   O     0.19723   0.62953   0.64499   0.00000  Uiso   1.00
O807   O     0.27041   0.86135   0.75674   0.00000  Uiso   1.00
O808   O     0.16666   0.81427   0.70929   0.00000  Uiso   1.00
O809   O     0.29461   0.91967   0.80611   0.00000  Uiso   1.00
O810   O     0.21623   0.85133   0.63830   0.00000  Uiso   1.00
O811   O     0.28072   0.80296   0.65191   0.00000  Uiso   1.00
O812   O     0.09036   0.67521   0.83859   0.00000  Uiso   1.00
O813   O     0.03348   0.71358   0.87530   0.00000  Uiso   1.00
O814   O     0.16667   0.68573   0.70928   0.00000  Uiso   1.00
O815   O     0.16666   0.81427   0.79072   0.00000  Uiso   1.00
O816   O     0.09161   0.74999   0.78132   0.00000  Uiso   1.00
O817   O     0.24172   0.75001   0.71868   0.00000  Uiso   1.00
O818   O     0.09161   0.75000   0.69989   0.00000  Uiso   1.00
O819   O     0.24172   0.75000   0.80012   0.00000  Uiso   1.00
O820   O     0.00383   0.70459   0.65888   0.00000  Uiso   1.00
C821   C     0.49911   0.66457   0.75000   0.00000  Uiso   1.00
C822   C     0.54199   0.76954   0.95002   0.00000  Uiso   1.00
C823   C     0.50120   0.74942   0.52754   0.00000  Uiso   1.00
C824   C     0.50139   0.75013   0.97303   0.00000  Uiso   1.00
C825   C     0.40156   0.74891   0.73815   0.00000  Uiso   1.00
C826   C     0.59849   0.75158   0.76193   0.00000  Uiso   1.00
C827   C     0.34703   0.74137   0.73382   0.00000  Uiso   1.00
C828   C     0.65317   0.75968   0.76662   0.00000  Uiso   1.00
C829   C     0.48852   0.54767   0.79923   0.00000  Uiso   1.00
C830   C     0.44020   0.94596   0.74022   0.00000  Uiso   1.00
C831   C     0.49559   0.59378   0.79559   0.00000  Uiso   1.00
C832   C     0.49973   0.83491   0.74976   0.00000  Uiso   1.00
C833   C     0.44788   0.90046   0.73633   0.00000  Uiso   1.00
C834   C     0.49468   0.61541   0.75046   0.00000  Uiso   1.00
C835   C     0.49621   0.88299   0.74917   0.00000  Uiso   1.00
C836   C     0.48609   0.58963   0.70767   0.00000  Uiso   1.00
C837   C     0.53870   0.91119   0.76501   0.00000  Uiso   1.00
C838   C     0.47862   0.54374   0.71135   0.00000  Uiso   1.00
C839   C     0.53123   0.95652   0.76884   0.00000  Uiso   1.00
C840   C     0.48057   0.52261   0.75630   0.00000  Uiso   1.00
C841   C     0.48285   0.97407   0.75666   0.00000  Uiso   1.00
C842   C     0.65943   0.70510   0.70030   0.00000  Uiso   1.00
C843   C     0.53041   0.78081   0.55675   0.00000  Uiso   1.00
C844   C     0.34130   0.79465   0.80203   0.00000  Uiso   1.00
C845   C     0.48936   0.52703   0.84815   0.00000  Uiso   1.00
C846   C     0.38746   0.96243   0.72803   0.00000  Uiso   1.00
C847   C     0.48628   0.60817   0.65840   0.00000  Uiso   1.00
C848   C     0.59148   0.89509   0.77570   0.00000  Uiso   1.00
C849   C     0.56394   0.81352   0.63463   0.00000  Uiso   1.00
C850   C     0.41660   0.70524   0.86578   0.00000  Uiso   1.00
C851   C     0.46005   0.73146   0.94290   0.00000  Uiso   1.00
C852   C     0.53022   0.78036   0.60719   0.00000  Uiso   1.00
C853   C     0.46032   0.73003   0.89252   0.00000  Uiso   1.00
C854   C     0.47052   0.71952   0.60181   0.00000  Uiso   1.00
C855   C     0.54003   0.76986   0.89916   0.00000  Uiso   1.00
C856   C     0.47126   0.71809   0.55134   0.00000  Uiso   1.00
Cu857  Cu    0.50000   0.74999   0.79822   0.00000  Uiso   1.00
Cu858  Cu    0.50000   0.75000   0.70179   0.00000  Uiso   1.00
H859   H     0.61981   0.64661   0.69190   0.00000  Uiso   1.00
H860   H     0.56368   0.97889   0.77980   0.00000  Uiso   1.00
H861   H     0.55328   0.80626   0.54074   0.00000  Uiso   1.00
H862   H     0.42724   0.71714   0.95829   0.00000  Uiso   1.00
H863   H     0.63416   0.82884   0.66881   0.00000  Uiso   1.00
H864   H     0.33999   0.69396   0.85581   0.00000  Uiso   1.00
H865   H     0.44670   0.69566   0.61901   0.00000  Uiso   1.00
H866   H     0.57118   0.78577   0.88269   0.00000  Uiso   1.00
H867   H     0.44872   0.69205   0.53163   0.00000  Uiso   1.00
H868   H     0.57562   0.78415   0.97078   0.00000  Uiso   1.00
H869   H     0.39067   0.84692   0.81713   0.00000  Uiso   1.00
H870   H     0.50874   0.53353   0.92009   0.00000  Uiso   1.00
H871   H     0.64854   0.94968   0.69687   0.00000  Uiso   1.00
H872   H     0.50149   0.61307   0.82849   0.00000  Uiso   1.00
H873   H     0.41582   0.87806   0.72433   0.00000  Uiso   1.00
H874   H     0.52680   0.63886   0.60975   0.00000  Uiso   1.00
H875   H     0.66290   0.90618   0.80959   0.00000  Uiso   1.00
H876   H     0.47371   0.52382   0.67876   0.00000  Uiso   1.00
N877   N     0.50000   0.75001   0.62935   0.00000  Uiso   1.00
N878   N     0.50000   0.74999   0.87066   0.00000  Uiso   1.00
O879   O     0.50000   0.68573   0.79072   0.00000  Uiso   1.00
O880   O     0.62906   0.67053   0.71702   0.00000  Uiso   1.00
O881   O     0.65841   0.79715   0.84125   0.00000  Uiso   1.00
O882   O     0.37839   0.82583   0.78974   0.00000  Uiso   1.00
O883   O     0.47074   0.98972   0.85317   0.00000  Uiso   1.00
O884   O     0.51068   0.55084   0.88892   0.00000  Uiso   1.00
O885   O     0.37654   0.99919   0.74099   0.00000  Uiso   1.00
O886   O     0.34962   0.93521   0.70242   0.00000  Uiso   1.00
O887   O     0.44860   0.60250   0.62870   0.00000  Uiso   1.00
O888   O     0.53057   0.62953   0.64499   0.00000  Uiso   1.00
O889   O     0.60374   0.86135   0.75674   0.00000  Uiso   1.00
O890   O     0.50000   0.81427   0.70929   0.00000  Uiso   1.00
O891   O     0.62794   0.91967   0.80611   0.00000  Uiso   1.00
O892   O     0.54956   0.85133   0.63830   0.00000  Uiso   1.00
O893   O     0.61406   0.80296   0.65191   0.00000  Uiso   1.00
O894   O     0.42369   0.67521   0.83859   0.00000  Uiso   1.00
O895   O     0.36682   0.71358   0.87530   0.00000  Uiso   1.00
O896   O     0.50000   0.68573   0.70928   0.00000  Uiso   1.00
O897   O     0.50000   0.81427   0.79072   0.00000  Uiso   1.00
O898   O     0.42495   0.74999   0.78132   0.00000  Uiso   1.00
O899   O     0.57505   0.75001   0.71868   0.00000  Uiso   1.00
O900   O     0.42495   0.75000   0.69989   0.00000  Uiso   1.00
O901   O     0.57505   0.75000   0.80012   0.00000  Uiso   1.00
O902   O     0.33717   0.70459   0.65888   0.00000  Uiso   1.00
C903   C     0.83244   0.66457   0.75000   0.00000  Uiso   1.00
C904   C     0.87532   0.76954   0.95002   0.00000  Uiso   1.00
C905   C     0.83454   0.74942   0.52754   0.00000  Uiso   1.00
C906   C     0.83472   0.75013   0.97303   0.00000  Uiso   1.00
C907   C     0.73490   0.74891   0.73815   0.00000  Uiso   1.00
C908   C     0.93183   0.75158   0.76193   0.00000  Uiso   1.00
C909   C     0.68036   0.74137   0.73382   0.00000  Uiso   1.00
C910   C     0.98650   0.75968   0.76662   0.00000  Uiso   1.00
C911   C     0.82185   0.54767   0.79923   0.00000  Uiso   1.00
C912   C     0.77354   0.94596   0.74022   0.00000  Uiso   1.00
C913   C     0.82892   0.59378   0.79559   0.00000  Uiso   1.00
C914   C     0.83306   0.83491   0.74976   0.00000  Uiso   1.00
C915   C     0.78121   0.90046   0.73633   0.00000  Uiso   1.00
C916   C     0.82802   0.61541   0.75046   0.00000  Uiso   1.00
C917   C     0.82954   0.88299   0.74917   0.00000  Uiso   1.00
C918   C     0.81943   0.58963   0.70767   0.00000  Uiso   1.00
C919   C     0.87203   0.91119   0.76501   0.00000  Uiso   1.00
C920   C     0.81195   0.54374   0.71135   0.00000  Uiso   1.00
C921   C     0.86456   0.95652   0.76884   0.00000  Uiso   1.00
C922   C     0.81390   0.52261   0.75630   0.00000  Uiso   1.00
C923   C     0.81618   0.97407   0.75666   0.00000  Uiso   1.00
C924   C     0.99276   0.70510   0.70030   0.00000  Uiso   1.00
C925   C     0.86374   0.78081   0.55675   0.00000  Uiso   1.00
C926   C     0.67464   0.79465   0.80203   0.00000  Uiso   1.00
C927   C     0.82269   0.52703   0.84815   0.00000  Uiso   1.00
C928   C     0.72080   0.96243   0.72803   0.00000  Uiso   1.00
C929   C     0.81962   0.60817   0.65840   0.00000  Uiso   1.00
C930   C     0.92481   0.89509   0.77570   0.00000  Uiso   1.00
C931   C     0.89727   0.81352   0.63463   0.00000  Uiso   1.00
C932   C     0.74993   0.70524   0.86578   0.00000  Uiso   1.00
C933   C     0.79338   0.73146   0.94290   0.00000  Uiso   1.00
C934   C     0.86356   0.78036   0.60719   0.00000  Uiso   1.00
C935   C     0.79366   0.73003   0.89252   0.00000  Uiso   1.00
C936   C     0.80385   0.71952   0.60181   0.00000  Uiso   1.00
C937   C     0.87337   0.76986   0.89916   0.00000  Uiso   1.00
C938   C     0.80459   0.71809   0.55134   0.00000  Uiso   1.00
Cu939  Cu    0.83333   0.74999   0.79822   0.00000  Uiso   1.00
Cu940  Cu    0.83333   0.75000   0.70179   0.00000  Uiso   1.00
H941   H     0.95314   0.64661   0.69190   0.00000  Uiso   1.00
H942   H     0.89702   0.97889   0.77980   0.00000  Uiso   1.00
H943   H     0.88661   0.80626   0.54074   0.00000  Uiso   1.00
H944   H     0.76057   0.71714   0.95829   0.00000  Uiso   1.00
H945   H     0.96750   0.82884   0.66881   0.00000  Uiso   1.00
H946   H     0.67332   0.69396   0.85581   0.00000  Uiso   1.00
H947   H     0.78004   0.69566   0.61901   0.00000  Uiso   1.00
H948   H     0.90452   0.78577   0.88269   0.00000  Uiso   1.00
H949   H     0.78205   0.69205   0.53163   0.00000  Uiso   1.00
H950   H     0.90896   0.78415   0.97078   0.00000  Uiso   1.00
H951   H     0.72400   0.84692   0.81713   0.00000  Uiso   1.00
H952   H     0.84207   0.53353   0.92009   0.00000  Uiso   1.00
H953   H     0.98187   0.94968   0.69687   0.00000  Uiso   1.00
H954   H     0.83483   0.61307   0.82849   0.00000  Uiso   1.00
H955   H     0.74916   0.87806   0.72433   0.00000  Uiso   1.00
H956   H     0.86014   0.63886   0.60975   0.00000  Uiso   1.00
H957   H     0.99623   0.90618   0.80959   0.00000  Uiso   1.00
H958   H     0.80704   0.52382   0.67876   0.00000  Uiso   1.00
N959   N     0.83333   0.75001   0.62935   0.00000  Uiso   1.00
N960   N     0.83333   0.74999   0.87066   0.00000  Uiso   1.00
O961   O     0.83334   0.68573   0.79072   0.00000  Uiso   1.00
O962   O     0.96240   0.67053   0.71702   0.00000  Uiso   1.00
O963   O     0.99175   0.79715   0.84125   0.00000  Uiso   1.00
O964   O     0.71172   0.82583   0.78974   0.00000  Uiso   1.00
O965   O     0.80408   0.98972   0.85317   0.00000  Uiso   1.00
O966   O     0.84402   0.55084   0.88892   0.00000  Uiso   1.00
O967   O     0.70987   0.99919   0.74099   0.00000  Uiso   1.00
O968   O     0.68295   0.93521   0.70242   0.00000  Uiso   1.00
O969   O     0.78193   0.60250   0.62870   0.00000  Uiso   1.00
O970   O     0.86390   0.62953   0.64499   0.00000  Uiso   1.00
O971   O     0.93708   0.86135   0.75674   0.00000  Uiso   1.00
O972   O     0.83333   0.81427   0.70929   0.00000  Uiso   1.00
O973   O     0.96128   0.91967   0.80611   0.00000  Uiso   1.00
O974   O     0.88289   0.85133   0.63830   0.00000  Uiso   1.00
O975   O     0.94739   0.80296   0.65191   0.00000  Uiso   1.00
O976   O     0.75702   0.67521   0.83859   0.00000  Uiso   1.00
O977   O     0.70015   0.71358   0.87530   0.00000  Uiso   1.00
O978   O     0.83334   0.68573   0.70928   0.00000  Uiso   1.00
O979   O     0.83333   0.81427   0.79072   0.00000  Uiso   1.00
O980   O     0.75828   0.74999   0.78132   0.00000  Uiso   1.00
O981   O     0.90839   0.75001   0.71868   0.00000  Uiso   1.00
O982   O     0.75828   0.75000   0.69989   0.00000  Uiso   1.00
O983   O     0.90839   0.75000   0.80012   0.00000  Uiso   1.00
O984   O     0.67050   0.70459   0.65888   0.00000  Uiso   1.00
loop_
_geom_bond_atom_site_label_1
_geom_bond_atom_site_label_2
_geom_bond_distance
_geom_bond_site_symmetry_2
_ccdc_geom_bond_type
C1     O59     1.304   .     A
C1     O76     1.298   .     A
C1     C14     1.482   .     S
C2     C35     1.412   .     A
C2     H48     1.081   .     S
C2     C4      1.414   .     A
C3     C23     1.401   .     A
C3     C36     1.416   .     A
C3     C496    1.519   1_554 S
C4     C31     1.398   .     A
C4     C495    1.519   .     S
C5     C7      1.435   .     S
C5     O80     1.291   .     A
C5     O78     1.286   .     A
C6     O81     1.290   .     A
C6     C8      1.441   .     S
C6     O79     1.288   .     A
C7     C172    1.357   1_455 S
C7     C186    1.492   1_455 S
C8     C89     1.357   .     S
C8     C106    1.500   .     S
C9     C25     1.491   .     S
C9     C20     1.411   .     A
C9     C11     1.399   .     A
C10    C26     1.491   .     S
C10    C21     1.415   .     A
C10    C13     1.400   .     A
C11    C14     1.409   .     A
C11    H52     1.083   .     S
C12    C15     1.455   .     S
C12    O77     1.294   .     A
C12    O70     1.294   .     A
C13    H53     1.084   .     S
C13    C15     1.400   .     A
C14    C16     1.420   .     A
C15    C17     1.410   .     A
C16    C27     1.477   .     S
C16    C18     1.394   .     A
C17    C28     1.484   .     S
C17    C19     1.394   .     A
C18    H56     1.086   .     S
C18    C20     1.396   .     A
C19    C21     1.400   .     A
C19    H40     1.085   .     S
C20    C267    1.466   1_545 S
C21    C266    1.466   .     S
C22    O60     1.398   .     S
C22    C89     1.492   .     S
C22    O164    1.223   .     S
C23    H41     1.082   .     S
C23    C32     1.406   .     A
C24    O62     1.398   .     S
C24    C172    1.500   1_455 S
C24    O225    1.223   1_455 S
C25    O64     1.399   .     S
C25    O309    1.223   1_545 S
C26    O66     1.399   .     S
C26    O65     1.223   .     D
C27    O68     1.397   .     S
C27    O67     1.223   .     D
C28    O69     1.221   .     D
C28    O71     1.399   .     S
C29    C32     1.470   .     S
C29    O72     1.223   .     D
C29    O73     1.397   .     S
C30    O74     1.219   .     D
C30    C33     1.478   .     S
C30    O75     1.398   .     S
C31    H42     1.082   .     S
C31    C33     1.406   .     A
C32    N57     1.378   .     A
C33    N58     1.384   .     A
C34    N57     1.363   .     A
C34    C36     1.409   .     A
C34    H45     1.081   .     S
C35    N58     1.366   .     A
C35    H46     1.080   .     S
C36    H47     1.080   .     S
Cu37   N58     2.018   .     S
Cu37   O81     1.968   .     S
Cu37   O77     1.946   .     S
Cu37   Cu38    2.687   .     S
Cu37   O59     1.950   .     S
Cu37   O78     1.975   .     S
Cu38   O70     1.950   .     S
Cu38   O76     1.946   .     S
Cu38   O79     1.975   .     S
Cu38   N57     2.018   .     S
Cu38   O80     1.968   .     S
H39    O60     1.013   .     S
H43    O73     1.014   .     S
H44    O75     1.014   .     S
H49    O62     1.014   .     S
H50    O64     1.014   .     S
H51    O148    1.014   .     S
H54    O68     1.014   .     S
H55    O71     1.013   .     S
O61    C106    1.223   .     S
O63    C271    1.223   .     S
O66    H215    1.014   1_455 S
O82    C186    1.223   1_455 S
C83    O141    1.304   .     A
C83    O158    1.298   .     A
C83    C96     1.482   .     S
C84    C117    1.412   .     A
C84    H130    1.081   .     S
C84    C86     1.414   .     A
C85    C105    1.401   .     A
C85    C118    1.416   .     A
C85    C578    1.519   1_554 S
C86    C113    1.398   .     A
C86    C577    1.519   .     S
C87    C89     1.435   .     S
C87    O162    1.291   .     A
C87    O160    1.286   .     A
C88    O163    1.290   .     A
C88    C90     1.441   .     S
C88    O161    1.288   .     A
C90    C171    1.357   .     S
C90    C188    1.500   .     S
C91    C107    1.491   .     S
C91    C102    1.411   .     A
C91    C93     1.399   .     A
C92    C108    1.491   .     S
C92    C103    1.415   .     A
C92    C95     1.400   .     A
C93    C96     1.409   .     A
C93    H134    1.083   .     S
C94    C97     1.455   .     S
C94    O159    1.294   .     A
C94    O152    1.294   .     A
C95    H135    1.084   .     S
C95    C97     1.400   .     A
C96    C98     1.420   .     A
C97    C99     1.410   .     A
C98    C109    1.477   .     S
C98    C100    1.394   .     A
C99    C110    1.484   .     S
C99    C101    1.394   .     A
C100   H138    1.086   .     S
C100   C102    1.396   .     A
C101   C103    1.400   .     A
C101   H122    1.085   .     S
C102   C349    1.466   1_545 S
C103   C348    1.466   .     S
C104   O142    1.398   .     S
C104   C171    1.492   .     S
C104   O246    1.223   .     S
C105   H123    1.082   .     S
C105   C114    1.406   .     A
C106   O144    1.398   .     S
C107   O146    1.399   .     S
C107   O391    1.223   1_545 S
C108   O148    1.399   .     S
C108   O147    1.223   .     D
C109   O150    1.397   .     S
C109   O149    1.223   .     D
C110   O151    1.221   .     D
C110   O153    1.399   .     S
C111   C114    1.470   .     S
C111   O154    1.223   .     D
C111   O155    1.397   .     S
C112   O156    1.219   .     D
C112   C115    1.478   .     S
C112   O157    1.398   .     S
C113   H124    1.082   .     S
C113   C115    1.406   .     A
C114   N139    1.378   .     A
C115   N140    1.384   .     A
C116   N139    1.363   .     A
C116   C118    1.409   .     A
C116   H127    1.081   .     S
C117   N140    1.366   .     A
C117   H128    1.080   .     S
C118   H129    1.080   .     S
Cu119  N140    2.018   .     S
Cu119  O163    1.968   .     S
Cu119  O159    1.946   .     S
Cu119  Cu120   2.687   .     S
Cu119  O141    1.950   .     S
Cu119  O160    1.975   .     S
Cu120  O152    1.950   .     S
Cu120  O158    1.946   .     S
Cu120  O161    1.975   .     S
Cu120  N139    2.018   .     S
Cu120  O162    1.968   .     S
H121   O142    1.013   .     S
H125   O155    1.014   .     S
H126   O157    1.014   .     S
H131   O144    1.014   .     S
H132   O146    1.014   .     S
H133   O230    1.014   .     S
H136   O150    1.014   .     S
H137   O153    1.013   .     S
O143   C188    1.223   .     S
O145   C353    1.223   .     S
C165   O223    1.304   .     A
C165   O240    1.298   .     A
C165   C178    1.482   .     S
C166   C199    1.412   .     A
C166   H212    1.081   .     S
C166   C168    1.414   .     A
C167   C187    1.401   .     A
C167   C200    1.416   .     A
C167   C660    1.519   1_554 S
C168   C195    1.398   .     A
C168   C659    1.519   .     S
C169   C171    1.435   .     S
C169   O244    1.291   .     A
C169   O242    1.286   .     A
C170   O245    1.290   .     A
C170   C172    1.441   .     S
C170   O243    1.288   .     A
C172   C7      1.357   1_655 S
C172   C24     1.500   1_655 S
C173   C189    1.491   .     S
C173   C184    1.411   .     A
C173   C175    1.399   .     A
C174   C190    1.491   .     S
C174   C185    1.415   .     A
C174   C177    1.400   .     A
C175   C178    1.409   .     A
C175   H216    1.083   .     S
C176   C179    1.455   .     S
C176   O241    1.294   .     A
C176   O234    1.294   .     A
C177   H217    1.084   .     S
C177   C179    1.400   .     A
C178   C180    1.420   .     A
C179   C181    1.410   .     A
C180   C191    1.477   .     S
C180   C182    1.394   .     A
C181   C192    1.484   .     S
C181   C183    1.394   .     A
C182   H220    1.086   .     S
C182   C184    1.396   .     A
C183   C185    1.400   .     A
C183   H204    1.085   .     S
C184   C431    1.466   1_545 S
C185   C430    1.466   .     S
C186   O224    1.398   .     S
C186   C7      1.492   1_655 S
C186   O82     1.223   1_655 S
C187   H205    1.082   .     S
C187   C196    1.406   .     A
C188   O226    1.398   .     S
C189   O228    1.399   .     S
C189   O473    1.223   1_545 S
C190   O230    1.399   .     S
C190   O229    1.223   .     D
C191   O232    1.397   .     S
C191   O231    1.223   .     D
C192   O233    1.221   .     D
C192   O235    1.399   .     S
C193   C196    1.470   .     S
C193   O236    1.223   .     D
C193   O237    1.397   .     S
C194   O238    1.219   .     D
C194   C197    1.478   .     S
C194   O239    1.398   .     S
C195   H206    1.082   .     S
C195   C197    1.406   .     A
C196   N221    1.378   .     A
C197   N222    1.384   .     A
C198   N221    1.363   .     A
C198   C200    1.409   .     A
C198   H209    1.081   .     S
C199   N222    1.366   .     A
C199   H210    1.080   .     S
C200   H211    1.080   .     S
Cu201  N222    2.018   .     S
Cu201  O245    1.968   .     S
Cu201  O241    1.946   .     S
Cu201  Cu202   2.687   .     S
Cu201  O223    1.950   .     S
Cu201  O242    1.975   .     S
Cu202  O234    1.950   .     S
Cu202  O240    1.946   .     S
Cu202  O243    1.975   .     S
Cu202  N221    2.018   .     S
Cu202  O244    1.968   .     S
H203   O224    1.013   .     S
H207   O237    1.014   .     S
H208   O239    1.014   .     S
H213   O226    1.014   .     S
H214   O228    1.014   .     S
H215   O66     1.014   1_655 S
H218   O232    1.014   .     S
H219   O235    1.013   .     S
O225   C24     1.223   1_655 S
O227   C435    1.223   .     S
C247   O305    1.304   .     A
C247   O322    1.298   .     A
C247   C260    1.482   .     S
C248   C281    1.412   .     A
C248   H294    1.081   .     S
C248   C250    1.414   .     A
C249   C269    1.401   .     A
C249   C282    1.416   .     A
C249   C742    1.519   1_554 S
C250   C277    1.398   .     A
C250   C741    1.519   .     S
C251   C253    1.435   .     S
C251   O326    1.291   .     A
C251   O324    1.286   .     A
C252   O327    1.290   .     A
C252   C254    1.441   .     S
C252   O325    1.288   .     A
C253   C418    1.357   1_455 S
C253   C432    1.492   1_455 S
C254   C335    1.357   .     S
C254   C352    1.500   .     S
C255   C271    1.491   .     S
C255   C266    1.411   .     A
C255   C257    1.399   .     A
C256   C272    1.491   .     S
C256   C267    1.415   .     A
C256   C259    1.400   .     A
C257   C260    1.409   .     A
C257   H298    1.083   .     S
C258   C261    1.455   .     S
C258   O323    1.294   .     A
C258   O316    1.294   .     A
C259   H299    1.084   .     S
C259   C261    1.400   .     A
C260   C262    1.420   .     A
C261   C263    1.410   .     A
C262   C273    1.477   .     S
C262   C264    1.394   .     A
C263   C274    1.484   .     S
C263   C265    1.394   .     A
C264   H302    1.086   .     S
C264   C266    1.396   .     A
C265   C267    1.400   .     A
C265   H286    1.085   .     S
C267   C20     1.466   1_565 S
C268   O306    1.398   .     S
C268   C335    1.492   .     S
C268   O410    1.223   .     S
C269   H287    1.082   .     S
C269   C278    1.406   .     A
C270   O308    1.398   .     S
C270   C418    1.500   1_455 S
C270   O471    1.223   1_455 S
C271   O310    1.399   .     S
C272   O312    1.399   .     S
C272   O311    1.223   .     D
C273   O314    1.397   .     S
C273   O313    1.223   .     D
C274   O315    1.221   .     D
C274   O317    1.399   .     S
C275   C278    1.470   .     S
C275   O318    1.223   .     D
C275   O319    1.397   .     S
C276   O320    1.219   .     D
C276   C279    1.478   .     S
C276   O321    1.398   .     S
C277   H288    1.082   .     S
C277   C279    1.406   .     A
C278   N303    1.378   .     A
C279   N304    1.384   .     A
C280   N303    1.363   .     A
C280   C282    1.409   .     A
C280   H291    1.081   .     S
C281   N304    1.366   .     A
C281   H292    1.080   .     S
C282   H293    1.080   .     S
Cu283  N304    2.018   .     S
Cu283  O327    1.968   .     S
Cu283  O323    1.946   .     S
Cu283  Cu284   2.687   .     S
Cu283  O305    1.950   .     S
Cu283  O324    1.975   .     S
Cu284  O316    1.950   .     S
Cu284  O322    1.946   .     S
Cu284  O325    1.975   .     S
Cu284  N303    2.018   .     S
Cu284  O326    1.968   .     S
H285   O306    1.013   .     S
H289   O319    1.014   .     S
H290   O321    1.014   .     S
H295   O308    1.014   .     S
H296   O310    1.014   .     S
H297   O394    1.014   .     S
H300   O314    1.014   .     S
H301   O317    1.013   .     S
O307   C352    1.223   .     S
O309   C25     1.223   1_565 S
O312   H461    1.014   1_455 S
O328   C432    1.223   1_455 S
C329   O387    1.304   .     A
C329   O404    1.298   .     A
C329   C342    1.482   .     S
C330   C363    1.412   .     A
C330   H376    1.081   .     S
C330   C332    1.414   .     A
C331   C351    1.401   .     A
C331   C364    1.416   .     A
C331   C824    1.519   1_554 S
C332   C359    1.398   .     A
C332   C823    1.519   .     S
C333   C335    1.435   .     S
C333   O408    1.291   .     A
C333   O406    1.286   .     A
C334   O409    1.290   .     A
C334   C336    1.441   .     S
C334   O407    1.288   .     A
C336   C417    1.357   .     S
C336   C434    1.500   .     S
C337   C353    1.491   .     S
C337   C348    1.411   .     A
C337   C339    1.399   .     A
C338   C354    1.491   .     S
C338   C349    1.415   .     A
C338   C341    1.400   .     A
C339   C342    1.409   .     A
C339   H380    1.083   .     S
C340   C343    1.455   .     S
C340   O405    1.294   .     A
C340   O398    1.294   .     A
C341   H381    1.084   .     S
C341   C343    1.400   .     A
C342   C344    1.420   .     A
C343   C345    1.410   .     A
C344   C355    1.477   .     S
C344   C346    1.394   .     A
C345   C356    1.484   .     S
C345   C347    1.394   .     A
C346   H384    1.086   .     S
C346   C348    1.396   .     A
C347   C349    1.400   .     A
C347   H368    1.085   .     S
C349   C102    1.466   1_565 S
C350   O388    1.398   .     S
C350   C417    1.492   .     S
C350   O492    1.223   .     S
C351   H369    1.082   .     S
C351   C360    1.406   .     A
C352   O390    1.398   .     S
C353   O392    1.399   .     S
C354   O394    1.399   .     S
C354   O393    1.223   .     D
C355   O396    1.397   .     S
C355   O395    1.223   .     D
C356   O397    1.221   .     D
C356   O399    1.399   .     S
C357   C360    1.470   .     S
C357   O400    1.223   .     D
C357   O401    1.397   .     S
C358   O402    1.219   .     D
C358   C361    1.478   .     S
C358   O403    1.398   .     S
C359   H370    1.082   .     S
C359   C361    1.406   .     A
C360   N385    1.378   .     A
C361   N386    1.384   .     A
C362   N385    1.363   .     A
C362   C364    1.409   .     A
C362   H373    1.081   .     S
C363   N386    1.366   .     A
C363   H374    1.080   .     S
C364   H375    1.080   .     S
Cu365  N386    2.018   .     S
Cu365  O409    1.968   .     S
Cu365  O405    1.946   .     S
Cu365  Cu366   2.687   .     S
Cu365  O387    1.950   .     S
Cu365  O406    1.975   .     S
Cu366  O398    1.950   .     S
Cu366  O404    1.946   .     S
Cu366  O407    1.975   .     S
Cu366  N385    2.018   .     S
Cu366  O408    1.968   .     S
H367   O388    1.013   .     S
H371   O401    1.014   .     S
H372   O403    1.014   .     S
H377   O390    1.014   .     S
H378   O392    1.014   .     S
H379   O476    1.014   .     S
H382   O396    1.014   .     S
H383   O399    1.013   .     S
O389   C434    1.223   .     S
O391   C107    1.223   1_565 S
C411   O469    1.304   .     A
C411   O486    1.298   .     A
C411   C424    1.482   .     S
C412   C445    1.412   .     A
C412   H458    1.081   .     S
C412   C414    1.414   .     A
C413   C433    1.401   .     A
C413   C446    1.416   .     A
C413   C906    1.519   1_554 S
C414   C441    1.398   .     A
C414   C905    1.519   .     S
C415   C417    1.435   .     S
C415   O490    1.291   .     A
C415   O488    1.286   .     A
C416   O491    1.290   .     A
C416   C418    1.441   .     S
C416   O489    1.288   .     A
C418   C253    1.357   1_655 S
C418   C270    1.500   1_655 S
C419   C435    1.491   .     S
C419   C430    1.411   .     A
C419   C421    1.399   .     A
C420   C436    1.491   .     S
C420   C431    1.415   .     A
C420   C423    1.400   .     A
C421   C424    1.409   .     A
C421   H462    1.083   .     S
C422   C425    1.455   .     S
C422   O487    1.294   .     A
C422   O480    1.294   .     A
C423   H463    1.084   .     S
C423   C425    1.400   .     A
C424   C426    1.420   .     A
C425   C427    1.410   .     A
C426   C437    1.477   .     S
C426   C428    1.394   .     A
C427   C438    1.484   .     S
C427   C429    1.394   .     A
C428   H466    1.086   .     S
C428   C430    1.396   .     A
C429   C431    1.400   .     A
C429   H450    1.085   .     S
C431   C184    1.466   1_565 S
C432   O470    1.398   .     S
C432   C253    1.492   1_655 S
C432   O328    1.223   1_655 S
C433   H451    1.082   .     S
C433   C442    1.406   .     A
C434   O472    1.398   .     S
C435   O474    1.399   .     S
C436   O476    1.399   .     S
C436   O475    1.223   .     D
C437   O478    1.397   .     S
C437   O477    1.223   .     D
C438   O479    1.221   .     D
C438   O481    1.399   .     S
C439   C442    1.470   .     S
C439   O482    1.223   .     D
C439   O483    1.397   .     S
C440   O484    1.219   .     D
C440   C443    1.478   .     S
C440   O485    1.398   .     S
C441   H452    1.082   .     S
C441   C443    1.406   .     A
C442   N467    1.378   .     A
C443   N468    1.384   .     A
C444   N467    1.363   .     A
C444   C446    1.409   .     A
C444   H455    1.081   .     S
C445   N468    1.366   .     A
C445   H456    1.080   .     S
C446   H457    1.080   .     S
Cu447  N468    2.018   .     S
Cu447  O491    1.968   .     S
Cu447  O487    1.946   .     S
Cu447  Cu448   2.687   .     S
Cu447  O469    1.950   .     S
Cu447  O488    1.975   .     S
Cu448  O480    1.950   .     S
Cu448  O486    1.946   .     S
Cu448  O489    1.975   .     S
Cu448  N467    2.018   .     S
Cu448  O490    1.968   .     S
H449   O470    1.013   .     S
H453   O483    1.014   .     S
H454   O485    1.014   .     S
H459   O472    1.014   .     S
H460   O474    1.014   .     S
H461   O312    1.014   1_655 S
H464   O478    1.014   .     S
H465   O481    1.013   .     S
O471   C270    1.223   1_655 S
O473   C189    1.223   1_565 S
C493   O551    1.304   .     A
C493   O568    1.298   .     A
C493   C506    1.482   .     S
C494   C527    1.412   .     A
C494   H540    1.081   .     S
C494   C496    1.414   .     A
C495   C515    1.401   .     A
C495   C528    1.416   .     A
C496   C523    1.398   .     A
C496   C3      1.519   1_556 S
C497   C499    1.435   .     S
C497   O572    1.291   .     A
C497   O570    1.286   .     A
C498   O573    1.290   .     A
C498   C500    1.441   .     S
C498   O571    1.288   .     A
C499   C664    1.357   1_455 S
C499   C678    1.492   1_455 S
C500   C581    1.357   .     S
C500   C598    1.500   .     S
C501   C517    1.491   .     S
C501   C512    1.411   .     A
C501   C503    1.399   .     A
C502   C518    1.491   .     S
C502   C513    1.415   .     A
C502   C505    1.400   .     A
C503   C506    1.409   .     A
C503   H544    1.083   .     S
C504   C507    1.455   .     S
C504   O569    1.294   .     A
C504   O562    1.294   .     A
C505   H545    1.084   .     S
C505   C507    1.400   .     A
C506   C508    1.420   .     A
C507   C509    1.410   .     A
C508   C519    1.477   .     S
C508   C510    1.394   .     A
C509   C520    1.484   .     S
C509   C511    1.394   .     A
C510   H548    1.086   .     S
C510   C512    1.396   .     A
C511   C513    1.400   .     A
C511   H532    1.085   .     S
C512   C759    1.466   1_545 S
C513   C758    1.466   .     S
C514   O552    1.398   .     S
C514   C581    1.492   .     S
C514   O656    1.223   .     S
C515   H533    1.082   .     S
C515   C524    1.406   .     A
C516   O554    1.398   .     S
C516   C664    1.500   1_455 S
C516   O717    1.223   1_455 S
C517   O556    1.399   .     S
C517   O801    1.223   1_545 S
C518   O558    1.399   .     S
C518   O557    1.223   .     D
C519   O560    1.397   .     S
C519   O559    1.223   .     D
C520   O561    1.221   .     D
C520   O563    1.399   .     S
C521   C524    1.470   .     S
C521   O564    1.223   .     D
C521   O565    1.397   .     S
C522   O566    1.219   .     D
C522   C525    1.478   .     S
C522   O567    1.398   .     S
C523   H534    1.082   .     S
C523   C525    1.406   .     A
C524   N549    1.378   .     A
C525   N550    1.384   .     A
C526   N549    1.363   .     A
C526   C528    1.409   .     A
C526   H537    1.081   .     S
C527   N550    1.366   .     A
C527   H538    1.080   .     S
C528   H539    1.080   .     S
Cu529  N550    2.018   .     S
Cu529  O573    1.968   .     S
Cu529  O569    1.946   .     S
Cu529  Cu530   2.687   .     S
Cu529  O551    1.950   .     S
Cu529  O570    1.975   .     S
Cu530  O562    1.950   .     S
Cu530  O568    1.946   .     S
Cu530  O571    1.975   .     S
Cu530  N549    2.018   .     S
Cu530  O572    1.968   .     S
H531   O552    1.013   .     S
H535   O565    1.014   .     S
H536   O567    1.014   .     S
H541   O554    1.014   .     S
H542   O556    1.014   .     S
H543   O640    1.014   .     S
H546   O560    1.014   .     S
H547   O563    1.013   .     S
O553   C598    1.223   .     S
O555   C763    1.223   .     S
O558   H707    1.014   1_455 S
O574   C678    1.223   1_455 S
C575   O633    1.304   .     A
C575   O650    1.298   .     A
C575   C588    1.482   .     S
C576   C609    1.412   .     A
C576   H622    1.081   .     S
C576   C578    1.414   .     A
C577   C597    1.401   .     A
C577   C610    1.416   .     A
C578   C605    1.398   .     A
C578   C85     1.519   1_556 S
C579   C581    1.435   .     S
C579   O654    1.291   .     A
C579   O652    1.286   .     A
C580   O655    1.290   .     A
C580   C582    1.441   .     S
C580   O653    1.288   .     A
C582   C663    1.357   .     S
C582   C680    1.500   .     S
C583   C599    1.491   .     S
C583   C594    1.411   .     A
C583   C585    1.399   .     A
C584   C600    1.491   .     S
C584   C595    1.415   .     A
C584   C587    1.400   .     A
C585   C588    1.409   .     A
C585   H626    1.083   .     S
C586   C589    1.455   .     S
C586   O651    1.294   .     A
C586   O644    1.294   .     A
C587   H627    1.084   .     S
C587   C589    1.400   .     A
C588   C590    1.420   .     A
C589   C591    1.410   .     A
C590   C601    1.477   .     S
C590   C592    1.394   .     A
C591   C602    1.484   .     S
C591   C593    1.394   .     A
C592   H630    1.086   .     S
C592   C594    1.396   .     A
C593   C595    1.400   .     A
C593   H614    1.085   .     S
C594   C841    1.466   1_545 S
C595   C840    1.466   .     S
C596   O634    1.398   .     S
C596   C663    1.492   .     S
C596   O738    1.223   .     S
C597   H615    1.082   .     S
C597   C606    1.406   .     A
C598   O636    1.398   .     S
C599   O638    1.399   .     S
C599   O883    1.223   1_545 S
C600   O640    1.399   .     S
C600   O639    1.223   .     D
C601   O642    1.397   .     S
C601   O641    1.223   .     D
C602   O643    1.221   .     D
C602   O645    1.399   .     S
C603   C606    1.470   .     S
C603   O646    1.223   .     D
C603   O647    1.397   .     S
C604   O648    1.219   .     D
C604   C607    1.478   .     S
C604   O649    1.398   .     S
C605   H616    1.082   .     S
C605   C607    1.406   .     A
C606   N631    1.378   .     A
C607   N632    1.384   .     A
C608   N631    1.363   .     A
C608   C610    1.409   .     A
C608   H619    1.081   .     S
C609   N632    1.366   .     A
C609   H620    1.080   .     S
C610   H621    1.080   .     S
Cu611  N632    2.018   .     S
Cu611  O655    1.968   .     S
Cu611  O651    1.946   .     S
Cu611  Cu612   2.687   .     S
Cu611  O633    1.950   .     S
Cu611  O652    1.975   .     S
Cu612  O644    1.950   .     S
Cu612  O650    1.946   .     S
Cu612  O653    1.975   .     S
Cu612  N631    2.018   .     S
Cu612  O654    1.968   .     S
H613   O634    1.013   .     S
H617   O647    1.014   .     S
H618   O649    1.014   .     S
H623   O636    1.014   .     S
H624   O638    1.014   .     S
H625   O722    1.014   .     S
H628   O642    1.014   .     S
H629   O645    1.013   .     S
O635   C680    1.223   .     S
O637   C845    1.223   .     S
C657   O715    1.304   .     A
C657   O732    1.298   .     A
C657   C670    1.482   .     S
C658   C691    1.412   .     A
C658   H704    1.081   .     S
C658   C660    1.414   .     A
C659   C679    1.401   .     A
C659   C692    1.416   .     A
C660   C687    1.398   .     A
C660   C167    1.519   1_556 S
C661   C663    1.435   .     S
C661   O736    1.291   .     A
C661   O734    1.286   .     A
C662   O737    1.290   .     A
C662   C664    1.441   .     S
C662   O735    1.288   .     A
C664   C499    1.357   1_655 S
C664   C516    1.500   1_655 S
C665   C681    1.491   .     S
C665   C676    1.411   .     A
C665   C667    1.399   .     A
C666   C682    1.491   .     S
C666   C677    1.415   .     A
C666   C669    1.400   .     A
C667   C670    1.409   .     A
C667   H708    1.083   .     S
C668   C671    1.455   .     S
C668   O733    1.294   .     A
C668   O726    1.294   .     A
C669   H709    1.084   .     S
C669   C671    1.400   .     A
C670   C672    1.420   .     A
C671   C673    1.410   .     A
C672   C683    1.477   .     S
C672   C674    1.394   .     A
C673   C684    1.484   .     S
C673   C675    1.394   .     A
C674   H712    1.086   .     S
C674   C676    1.396   .     A
C675   C677    1.400   .     A
C675   H696    1.085   .     S
C676   C923    1.466   1_545 S
C677   C922    1.466   .     S
C678   O716    1.398   .     S
C678   C499    1.492   1_655 S
C678   O574    1.223   1_655 S
C679   H697    1.082   .     S
C679   C688    1.406   .     A
C680   O718    1.398   .     S
C681   O720    1.399   .     S
C681   O965    1.223   1_545 S
C682   O722    1.399   .     S
C682   O721    1.223   .     D
C683   O724    1.397   .     S
C683   O723    1.223   .     D
C684   O725    1.221   .     D
C684   O727    1.399   .     S
C685   C688    1.470   .     S
C685   O728    1.223   .     D
C685   O729    1.397   .     S
C686   O730    1.219   .     D
C686   C689    1.478   .     S
C686   O731    1.398   .     S
C687   H698    1.082   .     S
C687   C689    1.406   .     A
C688   N713    1.378   .     A
C689   N714    1.384   .     A
C690   N713    1.363   .     A
C690   C692    1.409   .     A
C690   H701    1.081   .     S
C691   N714    1.366   .     A
C691   H702    1.080   .     S
C692   H703    1.080   .     S
Cu693  N714    2.018   .     S
Cu693  O737    1.968   .     S
Cu693  O733    1.946   .     S
Cu693  Cu694   2.687   .     S
Cu693  O715    1.950   .     S
Cu693  O734    1.975   .     S
Cu694  O726    1.950   .     S
Cu694  O732    1.946   .     S
Cu694  O735    1.975   .     S
Cu694  N713    2.018   .     S
Cu694  O736    1.968   .     S
H695   O716    1.013   .     S
H699   O729    1.014   .     S
H700   O731    1.014   .     S
H705   O718    1.014   .     S
H706   O720    1.014   .     S
H707   O558    1.014   1_655 S
H710   O724    1.014   .     S
H711   O727    1.013   .     S
O717   C516    1.223   1_655 S
O719   C927    1.223   .     S
C739   O797    1.304   .     A
C739   O814    1.298   .     A
C739   C752    1.482   .     S
C740   C773    1.412   .     A
C740   H786    1.081   .     S
C740   C742    1.414   .     A
C741   C761    1.401   .     A
C741   C774    1.416   .     A
C742   C769    1.398   .     A
C742   C249    1.519   1_556 S
C743   C745    1.435   .     S
C743   O818    1.291   .     A
C743   O816    1.286   .     A
C744   O819    1.290   .     A
C744   C746    1.441   .     S
C744   O817    1.288   .     A
C745   C910    1.357   1_455 S
C745   C924    1.492   1_455 S
C746   C827    1.357   .     S
C746   C844    1.500   .     S
C747   C763    1.491   .     S
C747   C758    1.411   .     A
C747   C749    1.399   .     A
C748   C764    1.491   .     S
C748   C759    1.415   .     A
C748   C751    1.400   .     A
C749   C752    1.409   .     A
C749   H790    1.083   .     S
C750   C753    1.455   .     S
C750   O815    1.294   .     A
C750   O808    1.294   .     A
C751   H791    1.084   .     S
C751   C753    1.400   .     A
C752   C754    1.420   .     A
C753   C755    1.410   .     A
C754   C765    1.477   .     S
C754   C756    1.394   .     A
C755   C766    1.484   .     S
C755   C757    1.394   .     A
C756   H794    1.086   .     S
C756   C758    1.396   .     A
C757   C759    1.400   .     A
C757   H778    1.085   .     S
C759   C512    1.466   1_565 S
C760   O798    1.398   .     S
C760   C827    1.492   .     S
C760   O902    1.223   .     S
C761   H779    1.082   .     S
C761   C770    1.406   .     A
C762   O800    1.398   .     S
C762   C910    1.500   1_455 S
C762   O963    1.223   1_455 S
C763   O802    1.399   .     S
C764   O804    1.399   .     S
C764   O803    1.223   .     D
C765   O806    1.397   .     S
C765   O805    1.223   .     D
C766   O807    1.221   .     D
C766   O809    1.399   .     S
C767   C770    1.470   .     S
C767   O810    1.223   .     D
C767   O811    1.397   .     S
C768   O812    1.219   .     D
C768   C771    1.478   .     S
C768   O813    1.398   .     S
C769   H780    1.082   .     S
C769   C771    1.406   .     A
C770   N795    1.378   .     A
C771   N796    1.384   .     A
C772   N795    1.363   .     A
C772   C774    1.409   .     A
C772   H783    1.081   .     S
C773   N796    1.366   .     A
C773   H784    1.080   .     S
C774   H785    1.080   .     S
Cu775  N796    2.018   .     S
Cu775  O819    1.968   .     S
Cu775  O815    1.946   .     S
Cu775  Cu776   2.687   .     S
Cu775  O797    1.950   .     S
Cu775  O816    1.975   .     S
Cu776  O808    1.950   .     S
Cu776  O814    1.946   .     S
Cu776  O817    1.975   .     S
Cu776  N795    2.018   .     S
Cu776  O818    1.968   .     S
H777   O798    1.013   .     S
H781   O811    1.014   .     S
H782   O813    1.014   .     S
H787   O800    1.014   .     S
H788   O802    1.014   .     S
H789   O886    1.014   .     S
H792   O806    1.014   .     S
H793   O809    1.013   .     S
O799   C844    1.223   .     S
O801   C517    1.223   1_565 S
O804   H953    1.014   1_455 S
O820   C924    1.223   1_455 S
C821   O879    1.304   .     A
C821   O896    1.298   .     A
C821   C834    1.482   .     S
C822   C855    1.412   .     A
C822   H868    1.081   .     S
C822   C824    1.414   .     A
C823   C843    1.401   .     A
C823   C856    1.416   .     A
C824   C851    1.398   .     A
C824   C331    1.519   1_556 S
C825   C827    1.435   .     S
C825   O900    1.291   .     A
C825   O898    1.286   .     A
C826   O901    1.290   .     A
C826   C828    1.441   .     S
C826   O899    1.288   .     A
C828   C909    1.357   .     S
C828   C926    1.500   .     S
C829   C845    1.491   .     S
C829   C840    1.411   .     A
C829   C831    1.399   .     A
C830   C846    1.491   .     S
C830   C841    1.415   .     A
C830   C833    1.400   .     A
C831   C834    1.409   .     A
C831   H872    1.083   .     S
C832   C835    1.455   .     S
C832   O897    1.294   .     A
C832   O890    1.294   .     A
C833   H873    1.084   .     S
C833   C835    1.400   .     A
C834   C836    1.420   .     A
C835   C837    1.410   .     A
C836   C847    1.477   .     S
C836   C838    1.394   .     A
C837   C848    1.484   .     S
C837   C839    1.394   .     A
C838   H876    1.086   .     S
C838   C840    1.396   .     A
C839   C841    1.400   .     A
C839   H860    1.085   .     S
C841   C594    1.466   1_565 S
C842   O880    1.398   .     S
C842   C909    1.492   .     S
C842   O984    1.223   .     S
C843   H861    1.082   .     S
C843   C852    1.406   .     A
C844   O882    1.398   .     S
C845   O884    1.399   .     S
C846   O886    1.399   .     S
C846   O885    1.223   .     D
C847   O888    1.397   .     S
C847   O887    1.223   .     D
C848   O889    1.221   .     D
C848   O891    1.399   .     S
C849   C852    1.470   .     S
C849   O892    1.223   .     D
C849   O893    1.397   .     S
C850   O894    1.219   .     D
C850   C853    1.478   .     S
C850   O895    1.398   .     S
C851   H862    1.082   .     S
C851   C853    1.406   .     A
C852   N877    1.378   .     A
C853   N878    1.384   .     A
C854   N877    1.363   .     A
C854   C856    1.409   .     A
C854   H865    1.081   .     S
C855   N878    1.366   .     A
C855   H866    1.080   .     S
C856   H867    1.080   .     S
Cu857  N878    2.018   .     S
Cu857  O901    1.968   .     S
Cu857  O897    1.946   .     S
Cu857  Cu858   2.687   .     S
Cu857  O879    1.950   .     S
Cu857  O898    1.975   .     S
Cu858  O890    1.950   .     S
Cu858  O896    1.946   .     S
Cu858  O899    1.975   .     S
Cu858  N877    2.018   .     S
Cu858  O900    1.968   .     S
H859   O880    1.013   .     S
H863   O893    1.014   .     S
H864   O895    1.014   .     S
H869   O882    1.014   .     S
H870   O884    1.014   .     S
H871   O968    1.014   .     S
H874   O888    1.014   .     S
H875   O891    1.013   .     S
O881   C926    1.223   .     S
O883   C599    1.223   1_565 S
C903   O961    1.304   .     A
C903   O978    1.298   .     A
C903   C916    1.482   .     S
C904   C937    1.412   .     A
C904   H950    1.081   .     S
C904   C906    1.414   .     A
C905   C925    1.401   .     A
C905   C938    1.416   .     A
C906   C933    1.398   .     A
C906   C413    1.519   1_556 S
C907   C909    1.435   .     S
C907   O982    1.291   .     A
C907   O980    1.286   .     A
C908   O983    1.290   .     A
C908   C910    1.441   .     S
C908   O981    1.288   .     A
C910   C745    1.357   1_655 S
C910   C762    1.500   1_655 S
C911   C927    1.491   .     S
C911   C922    1.411   .     A
C911   C913    1.399   .     A
C912   C928    1.491   .     S
C912   C923    1.415   .     A
C912   C915    1.400   .     A
C913   C916    1.409   .     A
C913   H954    1.083   .     S
C914   C917    1.455   .     S
C914   O979    1.294   .     A
C914   O972    1.294   .     A
C915   H955    1.084   .     S
C915   C917    1.400   .     A
C916   C918    1.420   .     A
C917   C919    1.410   .     A
C918   C929    1.477   .     S
C918   C920    1.394   .     A
C919   C930    1.484   .     S
C919   C921    1.394   .     A
C920   H958    1.086   .     S
C920   C922    1.396   .     A
C921   C923    1.400   .     A
C921   H942    1.085   .     S
C923   C676    1.466   1_565 S
C924   O962    1.398   .     S
C924   C745    1.492   1_655 S
C924   O820    1.223   1_655 S
C925   H943    1.082   .     S
C925   C934    1.406   .     A
C926   O964    1.398   .     S
C927   O966    1.399   .     S
C928   O968    1.399   .     S
C928   O967    1.223   .     D
C929   O970    1.397   .     S
C929   O969    1.223   .     D
C930   O971    1.221   .     D
C930   O973    1.399   .     S
C931   C934    1.470   .     S
C931   O974    1.223   .     D
C931   O975    1.397   .     S
C932   O976    1.219   .     D
C932   C935    1.478   .     S
C932   O977    1.398   .     S
C933   H944    1.082   .     S
C933   C935    1.406   .     A
C934   N959    1.378   .     A
C935   N960    1.384   .     A
C936   N959    1.363   .     A
C936   C938    1.409   .     A
C936   H947    1.081   .     S
C937   N960    1.366   .     A
C937   H948    1.080   .     S
C938   H949    1.080   .     S
Cu939  N960    2.018   .     S
Cu939  O983    1.968   .     S
Cu939  O979    1.946   .     S
Cu939  Cu940   2.687   .     S
Cu939  O961    1.950   .     S
Cu939  O980    1.975   .     S
Cu940  O972    1.950   .     S
Cu940  O978    1.946   .     S
Cu940  O981    1.975   .     S
Cu940  N959    2.018   .     S
Cu940  O982    1.968   .     S
H941   O962    1.013   .     S
H945   O975    1.014   .     S
H946   O977    1.014   .     S
H951   O964    1.014   .     S
H952   O966    1.014   .     S
H953   O804    1.014   1_655 S
H956   O970    1.014   .     S
H957   O973    1.013   .     S
O963   C762    1.223   1_655 S
O965   C681    1.223   1_565 S
