data_str_m2_o1_o2_pcu_sym.28
_audit_creation_date              2020-01-03
_audit_creation_method            'Materials Studio'
_symmetry_space_group_name_H-M    'P1'
_symmetry_Int_Tables_number       1
_symmetry_cell_setting            triclinic
loop_
_symmetry_equiv_pos_as_xyz
  x,y,z
_cell_length_a                    32.5216
_cell_length_b                    29.0820
_cell_length_c                    30.2814
_cell_angle_alpha                 90.0000
_cell_angle_beta                  100.8890
_cell_angle_gamma                 90.0008
loop_
_atom_site_label
_atom_site_type_symbol
_atom_site_fract_x
_atom_site_fract_y
_atom_site_fract_z
_atom_site_U_iso_or_equiv
_atom_site_adp_type
_atom_site_occupancy
C1     C     0.08762   0.16660   0.25083   0.00000  Uiso   1.00
C2     C     0.31190   0.20788   0.24876   0.00000  Uiso   1.00
C3     C     0.31197   0.12447   0.24972   0.00000  Uiso   1.00
C4     C     0.02143   0.20788   0.25124   0.00000  Uiso   1.00
C5     C     0.15458   0.20578   0.04522   0.00000  Uiso   1.00
C6     C     0.15354   0.12711   0.44970   0.00000  Uiso   1.00
C7     C     0.17874   0.20578   0.45478   0.00000  Uiso   1.00
C8     C     0.17978   0.12711   0.05030   0.00000  Uiso   1.00
C9     C     0.15536   0.20606   0.09124   0.00000  Uiso   1.00
C10    C     0.15336   0.12721   0.40372   0.00000  Uiso   1.00
C11    C     0.17796   0.20606   0.40876   0.00000  Uiso   1.00
C12    C     0.24571   0.16660   0.24917   0.00000  Uiso   1.00
C13    C     0.17997   0.12720   0.09628   0.00000  Uiso   1.00
C14    C     0.16763   0.16665   0.11700   0.00000  Uiso   1.00
C15    C     0.16570   0.16665   0.38300   0.00000  Uiso   1.00
C16    C     0.16687   0.16635   0.02434   0.00000  Uiso   1.00
C17    C     0.16645   0.16635   0.47566   0.00000  Uiso   1.00
C18    C     0.29037   0.16629   0.24897   0.00000  Uiso   1.00
C19    C     0.04297   0.16629   0.25103   0.00000  Uiso   1.00
C20    C     0.16735   0.16666   0.16524   0.00000  Uiso   1.00
C21    C     0.16598   0.16666   0.33476   0.00000  Uiso   1.00
C22    C     0.13793   0.02523   0.21819   0.00000  Uiso   1.00
C23    C     0.19583   0.30823   0.28127   0.00000  Uiso   1.00
C24    C     0.19540   0.02523   0.28181   0.00000  Uiso   1.00
C25    C     0.13751   0.30823   0.21873   0.00000  Uiso   1.00
C26    C     0.02136   0.12447   0.25028   0.00000  Uiso   1.00
Cu27   Cu    0.16667   0.21355   0.25000   0.00000  Uiso   1.00
Cu28   Cu    0.16667   0.11978   0.25000   0.00000  Uiso   1.00
H29    H     0.14387   0.23627   0.02592   0.00000  Uiso   1.00
H30    H     0.29576   0.24045   0.24667   0.00000  Uiso   1.00
H31    H     0.29597   0.09181   0.24973   0.00000  Uiso   1.00
H32    H     0.03758   0.24045   0.25333   0.00000  Uiso   1.00
H33    H     0.07767   0.11854   0.14064   0.00000  Uiso   1.00
H34    H     0.26730   0.21625   0.34920   0.00000  Uiso   1.00
H35    H     0.25565   0.11854   0.35935   0.00000  Uiso   1.00
H36    H     0.06605   0.21625   0.15077   0.00000  Uiso   1.00
H37    H     0.14310   0.09657   0.46481   0.00000  Uiso   1.00
H38    H     0.18944   0.23628   0.47408   0.00000  Uiso   1.00
H39    H     0.19022   0.09657   0.03519   0.00000  Uiso   1.00
H40    H     0.14585   0.23692   0.10649   0.00000  Uiso   1.00
H41    H     0.14304   0.09665   0.38432   0.00000  Uiso   1.00
H42    H     0.18748   0.23693   0.39351   0.00000  Uiso   1.00
H43    H     0.19028   0.09665   0.11568   0.00000  Uiso   1.00
H44    H     0.03736   0.09181   0.25026   0.00000  Uiso   1.00
N45    N     0.16667   0.28402   0.25000   0.00000  Uiso   1.00
N46    N     0.16667   0.04931   0.25000   0.00000  Uiso   1.00
O47    O     0.10655   0.20625   0.25000   0.00000  Uiso   1.00
O48    O     0.05971   0.03550   0.16423   0.00000  Uiso   1.00
O49    O     0.09306   0.11152   0.17139   0.00000  Uiso   1.00
O50    O     0.27787   0.29030   0.30552   0.00000  Uiso   1.00
O51    O     0.23935   0.29743   0.36719   0.00000  Uiso   1.00
O52    O     0.23994   0.22199   0.32923   0.00000  Uiso   1.00
O53    O     0.21192   0.04655   0.36966   0.00000  Uiso   1.00
O54    O     0.27362   0.03551   0.33577   0.00000  Uiso   1.00
O55    O     0.24027   0.11152   0.32861   0.00000  Uiso   1.00
O56    O     0.05546   0.29029   0.19448   0.00000  Uiso   1.00
O57    O     0.09399   0.29743   0.13280   0.00000  Uiso   1.00
O58    O     0.22679   0.12709   0.25001   0.00000  Uiso   1.00
O59    O     0.09339   0.22199   0.17076   0.00000  Uiso   1.00
O60    O     0.22679   0.20625   0.25001   0.00000  Uiso   1.00
O61    O     0.10655   0.12709   0.24999   0.00000  Uiso   1.00
O62    O     0.16666   0.20626   0.18573   0.00000  Uiso   1.00
O63    O     0.16667   0.12707   0.31427   0.00000  Uiso   1.00
O64    O     0.16667   0.20626   0.31427   0.00000  Uiso   1.00
O65    O     0.16666   0.12707   0.18573   0.00000  Uiso   1.00
O66    O     0.12141   0.04655   0.13034   0.00000  Uiso   1.00
S67    S     0.10310   0.05508   0.17163   0.00000  Uiso   1.00
S68    S     0.23768   0.27885   0.32066   0.00000  Uiso   1.00
S69    S     0.23024   0.05508   0.32837   0.00000  Uiso   1.00
S70    S     0.09566   0.27885   0.17934   0.00000  Uiso   1.00
C71    C     0.42096   0.16660   0.25083   0.00000  Uiso   1.00
C72    C     0.64524   0.20788   0.24876   0.00000  Uiso   1.00
C73    C     0.64530   0.12447   0.24972   0.00000  Uiso   1.00
C74    C     0.35476   0.20788   0.25124   0.00000  Uiso   1.00
C75    C     0.48791   0.20578   0.04522   0.00000  Uiso   1.00
C76    C     0.48688   0.12711   0.44970   0.00000  Uiso   1.00
C77    C     0.51208   0.20578   0.45478   0.00000  Uiso   1.00
C78    C     0.51311   0.12711   0.05030   0.00000  Uiso   1.00
C79    C     0.48870   0.20606   0.09124   0.00000  Uiso   1.00
C80    C     0.48669   0.12721   0.40372   0.00000  Uiso   1.00
C81    C     0.51130   0.20606   0.40876   0.00000  Uiso   1.00
C82    C     0.57904   0.16660   0.24917   0.00000  Uiso   1.00
C83    C     0.51330   0.12720   0.09628   0.00000  Uiso   1.00
C84    C     0.50096   0.16665   0.11700   0.00000  Uiso   1.00
C85    C     0.49903   0.16665   0.38300   0.00000  Uiso   1.00
C86    C     0.50021   0.16635   0.02434   0.00000  Uiso   1.00
C87    C     0.49978   0.16635   0.47566   0.00000  Uiso   1.00
C88    C     0.62370   0.16629   0.24897   0.00000  Uiso   1.00
C89    C     0.37630   0.16629   0.25103   0.00000  Uiso   1.00
C90    C     0.50068   0.16666   0.16524   0.00000  Uiso   1.00
C91    C     0.49932   0.16666   0.33476   0.00000  Uiso   1.00
C92    C     0.47127   0.02523   0.21819   0.00000  Uiso   1.00
C93    C     0.52916   0.30823   0.28127   0.00000  Uiso   1.00
C94    C     0.52873   0.02523   0.28181   0.00000  Uiso   1.00
C95    C     0.47084   0.30823   0.21873   0.00000  Uiso   1.00
C96    C     0.35469   0.12447   0.25028   0.00000  Uiso   1.00
Cu97   Cu    0.50000   0.21355   0.25000   0.00000  Uiso   1.00
Cu98   Cu    0.50000   0.11978   0.25000   0.00000  Uiso   1.00
H99    H     0.47721   0.23627   0.02592   0.00000  Uiso   1.00
H100   H     0.62909   0.24045   0.24667   0.00000  Uiso   1.00
H101   H     0.62930   0.09181   0.24973   0.00000  Uiso   1.00
H102   H     0.37091   0.24045   0.25333   0.00000  Uiso   1.00
H103   H     0.41101   0.11854   0.14064   0.00000  Uiso   1.00
H104   H     0.60063   0.21625   0.34920   0.00000  Uiso   1.00
H105   H     0.58898   0.11854   0.35935   0.00000  Uiso   1.00
H106   H     0.39939   0.21625   0.15077   0.00000  Uiso   1.00
H107   H     0.47643   0.09657   0.46481   0.00000  Uiso   1.00
H108   H     0.52278   0.23628   0.47408   0.00000  Uiso   1.00
H109   H     0.52356   0.09657   0.03519   0.00000  Uiso   1.00
H110   H     0.47918   0.23692   0.10649   0.00000  Uiso   1.00
H111   H     0.47638   0.09665   0.38432   0.00000  Uiso   1.00
H112   H     0.52081   0.23693   0.39351   0.00000  Uiso   1.00
H113   H     0.52361   0.09665   0.11568   0.00000  Uiso   1.00
H114   H     0.37069   0.09181   0.25026   0.00000  Uiso   1.00
N115   N     0.50000   0.28402   0.25000   0.00000  Uiso   1.00
N116   N     0.50000   0.04931   0.25000   0.00000  Uiso   1.00
O117   O     0.43988   0.20625   0.25000   0.00000  Uiso   1.00
O118   O     0.39305   0.03550   0.16423   0.00000  Uiso   1.00
O119   O     0.42639   0.11152   0.17139   0.00000  Uiso   1.00
O120   O     0.61121   0.29030   0.30552   0.00000  Uiso   1.00
O121   O     0.57268   0.29743   0.36719   0.00000  Uiso   1.00
O122   O     0.57328   0.22199   0.32923   0.00000  Uiso   1.00
O123   O     0.54525   0.04655   0.36966   0.00000  Uiso   1.00
O124   O     0.60695   0.03551   0.33577   0.00000  Uiso   1.00
O125   O     0.57360   0.11152   0.32861   0.00000  Uiso   1.00
O126   O     0.38879   0.29029   0.19448   0.00000  Uiso   1.00
O127   O     0.42732   0.29743   0.13280   0.00000  Uiso   1.00
O128   O     0.56012   0.12709   0.25001   0.00000  Uiso   1.00
O129   O     0.42673   0.22199   0.17076   0.00000  Uiso   1.00
O130   O     0.56012   0.20625   0.25001   0.00000  Uiso   1.00
O131   O     0.43988   0.12709   0.24999   0.00000  Uiso   1.00
O132   O     0.50000   0.20626   0.18573   0.00000  Uiso   1.00
O133   O     0.50000   0.12707   0.31427   0.00000  Uiso   1.00
O134   O     0.50000   0.20626   0.31427   0.00000  Uiso   1.00
O135   O     0.50000   0.12707   0.18573   0.00000  Uiso   1.00
O136   O     0.45475   0.04655   0.13034   0.00000  Uiso   1.00
S137   S     0.43643   0.05508   0.17163   0.00000  Uiso   1.00
S138   S     0.57101   0.27885   0.32066   0.00000  Uiso   1.00
S139   S     0.56357   0.05508   0.32837   0.00000  Uiso   1.00
S140   S     0.42899   0.27885   0.17934   0.00000  Uiso   1.00
C141   C     0.75429   0.16660   0.25083   0.00000  Uiso   1.00
C142   C     0.97857   0.20788   0.24876   0.00000  Uiso   1.00
C143   C     0.97864   0.12447   0.24972   0.00000  Uiso   1.00
C144   C     0.68810   0.20788   0.25124   0.00000  Uiso   1.00
C145   C     0.82124   0.20578   0.04522   0.00000  Uiso   1.00
C146   C     0.82021   0.12711   0.44970   0.00000  Uiso   1.00
C147   C     0.84541   0.20578   0.45478   0.00000  Uiso   1.00
C148   C     0.84645   0.12711   0.05030   0.00000  Uiso   1.00
C149   C     0.82203   0.20606   0.09124   0.00000  Uiso   1.00
C150   C     0.82002   0.12721   0.40372   0.00000  Uiso   1.00
C151   C     0.84463   0.20606   0.40876   0.00000  Uiso   1.00
C152   C     0.91238   0.16660   0.24917   0.00000  Uiso   1.00
C153   C     0.84664   0.12720   0.09628   0.00000  Uiso   1.00
C154   C     0.83430   0.16665   0.11700   0.00000  Uiso   1.00
C155   C     0.83237   0.16665   0.38300   0.00000  Uiso   1.00
C156   C     0.83354   0.16635   0.02434   0.00000  Uiso   1.00
C157   C     0.83311   0.16635   0.47566   0.00000  Uiso   1.00
C158   C     0.95703   0.16629   0.24897   0.00000  Uiso   1.00
C159   C     0.70963   0.16629   0.25103   0.00000  Uiso   1.00
C160   C     0.83402   0.16666   0.16524   0.00000  Uiso   1.00
C161   C     0.83265   0.16666   0.33476   0.00000  Uiso   1.00
C162   C     0.80460   0.02523   0.21819   0.00000  Uiso   1.00
C163   C     0.86249   0.30823   0.28127   0.00000  Uiso   1.00
C164   C     0.86207   0.02523   0.28181   0.00000  Uiso   1.00
C165   C     0.80417   0.30823   0.21873   0.00000  Uiso   1.00
C166   C     0.68803   0.12447   0.25028   0.00000  Uiso   1.00
Cu167  Cu    0.83333   0.21355   0.25000   0.00000  Uiso   1.00
Cu168  Cu    0.83333   0.11978   0.25000   0.00000  Uiso   1.00
H169   H     0.81054   0.23627   0.02592   0.00000  Uiso   1.00
H170   H     0.96242   0.24045   0.24667   0.00000  Uiso   1.00
H171   H     0.96263   0.09181   0.24973   0.00000  Uiso   1.00
H172   H     0.70425   0.24045   0.25333   0.00000  Uiso   1.00
H173   H     0.74434   0.11854   0.14064   0.00000  Uiso   1.00
H174   H     0.93396   0.21625   0.34920   0.00000  Uiso   1.00
H175   H     0.92232   0.11854   0.35935   0.00000  Uiso   1.00
H176   H     0.73272   0.21625   0.15077   0.00000  Uiso   1.00
H177   H     0.80976   0.09657   0.46481   0.00000  Uiso   1.00
H178   H     0.85611   0.23628   0.47408   0.00000  Uiso   1.00
H179   H     0.85689   0.09657   0.03519   0.00000  Uiso   1.00
H180   H     0.81251   0.23692   0.10649   0.00000  Uiso   1.00
H181   H     0.80971   0.09665   0.38432   0.00000  Uiso   1.00
H182   H     0.85415   0.23693   0.39351   0.00000  Uiso   1.00
H183   H     0.85695   0.09665   0.11568   0.00000  Uiso   1.00
H184   H     0.70403   0.09181   0.25026   0.00000  Uiso   1.00
N185   N     0.83333   0.28402   0.25000   0.00000  Uiso   1.00
N186   N     0.83333   0.04931   0.25000   0.00000  Uiso   1.00
O187   O     0.77321   0.20625   0.25000   0.00000  Uiso   1.00
O188   O     0.72638   0.03550   0.16423   0.00000  Uiso   1.00
O189   O     0.75973   0.11152   0.17139   0.00000  Uiso   1.00
O190   O     0.94454   0.29030   0.30552   0.00000  Uiso   1.00
O191   O     0.90602   0.29743   0.36719   0.00000  Uiso   1.00
O192   O     0.90661   0.22199   0.32923   0.00000  Uiso   1.00
O193   O     0.87859   0.04655   0.36966   0.00000  Uiso   1.00
O194   O     0.94028   0.03551   0.33577   0.00000  Uiso   1.00
O195   O     0.90694   0.11152   0.32861   0.00000  Uiso   1.00
O196   O     0.72213   0.29029   0.19448   0.00000  Uiso   1.00
O197   O     0.76066   0.29743   0.13280   0.00000  Uiso   1.00
O198   O     0.89345   0.12709   0.25001   0.00000  Uiso   1.00
O199   O     0.76006   0.22199   0.17076   0.00000  Uiso   1.00
O200   O     0.89345   0.20625   0.25001   0.00000  Uiso   1.00
O201   O     0.77321   0.12709   0.24999   0.00000  Uiso   1.00
O202   O     0.83333   0.20626   0.18573   0.00000  Uiso   1.00
O203   O     0.83334   0.12707   0.31427   0.00000  Uiso   1.00
O204   O     0.83334   0.20626   0.31427   0.00000  Uiso   1.00
O205   O     0.83333   0.12707   0.18573   0.00000  Uiso   1.00
O206   O     0.78808   0.04655   0.13034   0.00000  Uiso   1.00
S207   S     0.76976   0.05508   0.17163   0.00000  Uiso   1.00
S208   S     0.90435   0.27885   0.32066   0.00000  Uiso   1.00
S209   S     0.89690   0.05508   0.32837   0.00000  Uiso   1.00
S210   S     0.76232   0.27885   0.17934   0.00000  Uiso   1.00
C211   C     0.08762   0.49993   0.25083   0.00000  Uiso   1.00
C212   C     0.31190   0.54121   0.24876   0.00000  Uiso   1.00
C213   C     0.31197   0.45780   0.24972   0.00000  Uiso   1.00
C214   C     0.02143   0.54121   0.25124   0.00000  Uiso   1.00
C215   C     0.15458   0.53911   0.04522   0.00000  Uiso   1.00
C216   C     0.15354   0.46045   0.44970   0.00000  Uiso   1.00
C217   C     0.17874   0.53911   0.45478   0.00000  Uiso   1.00
C218   C     0.17978   0.46044   0.05030   0.00000  Uiso   1.00
C219   C     0.15536   0.53939   0.09124   0.00000  Uiso   1.00
C220   C     0.15336   0.46054   0.40372   0.00000  Uiso   1.00
C221   C     0.17796   0.53939   0.40876   0.00000  Uiso   1.00
C222   C     0.24571   0.49993   0.24917   0.00000  Uiso   1.00
C223   C     0.17997   0.46054   0.09628   0.00000  Uiso   1.00
C224   C     0.16763   0.49998   0.11700   0.00000  Uiso   1.00
C225   C     0.16570   0.49998   0.38300   0.00000  Uiso   1.00
C226   C     0.16687   0.49968   0.02434   0.00000  Uiso   1.00
C227   C     0.16645   0.49968   0.47566   0.00000  Uiso   1.00
C228   C     0.29037   0.49962   0.24897   0.00000  Uiso   1.00
C229   C     0.04297   0.49962   0.25103   0.00000  Uiso   1.00
C230   C     0.16735   0.50000   0.16524   0.00000  Uiso   1.00
C231   C     0.16598   0.50000   0.33476   0.00000  Uiso   1.00
C232   C     0.13793   0.35856   0.21819   0.00000  Uiso   1.00
C233   C     0.19583   0.64157   0.28127   0.00000  Uiso   1.00
C234   C     0.19540   0.35856   0.28181   0.00000  Uiso   1.00
C235   C     0.13751   0.64157   0.21873   0.00000  Uiso   1.00
C236   C     0.02136   0.45780   0.25028   0.00000  Uiso   1.00
Cu237  Cu    0.16667   0.54689   0.25000   0.00000  Uiso   1.00
Cu238  Cu    0.16667   0.45311   0.25000   0.00000  Uiso   1.00
H239   H     0.14387   0.56961   0.02592   0.00000  Uiso   1.00
H240   H     0.29576   0.57379   0.24667   0.00000  Uiso   1.00
H241   H     0.29597   0.42514   0.24973   0.00000  Uiso   1.00
H242   H     0.03758   0.57378   0.25333   0.00000  Uiso   1.00
H243   H     0.07767   0.45187   0.14064   0.00000  Uiso   1.00
H244   H     0.26730   0.54958   0.34920   0.00000  Uiso   1.00
H245   H     0.25565   0.45188   0.35935   0.00000  Uiso   1.00
H246   H     0.06605   0.54958   0.15077   0.00000  Uiso   1.00
H247   H     0.14310   0.42990   0.46481   0.00000  Uiso   1.00
H248   H     0.18944   0.56961   0.47408   0.00000  Uiso   1.00
H249   H     0.19022   0.42990   0.03519   0.00000  Uiso   1.00
H250   H     0.14585   0.57026   0.10649   0.00000  Uiso   1.00
H251   H     0.14304   0.42998   0.38432   0.00000  Uiso   1.00
H252   H     0.18748   0.57026   0.39351   0.00000  Uiso   1.00
H253   H     0.19028   0.42998   0.11568   0.00000  Uiso   1.00
H254   H     0.03736   0.42514   0.25026   0.00000  Uiso   1.00
N255   N     0.16667   0.61736   0.25000   0.00000  Uiso   1.00
N256   N     0.16667   0.38264   0.25000   0.00000  Uiso   1.00
O257   O     0.10655   0.53958   0.25000   0.00000  Uiso   1.00
O258   O     0.05971   0.36884   0.16423   0.00000  Uiso   1.00
O259   O     0.09306   0.44485   0.17139   0.00000  Uiso   1.00
O260   O     0.27787   0.62364   0.30552   0.00000  Uiso   1.00
O261   O     0.23935   0.63076   0.36719   0.00000  Uiso   1.00
O262   O     0.23994   0.55533   0.32923   0.00000  Uiso   1.00
O263   O     0.21192   0.37989   0.36966   0.00000  Uiso   1.00
O264   O     0.27362   0.36885   0.33577   0.00000  Uiso   1.00
O265   O     0.24027   0.44485   0.32861   0.00000  Uiso   1.00
O266   O     0.05546   0.62363   0.19448   0.00000  Uiso   1.00
O267   O     0.09399   0.63076   0.13280   0.00000  Uiso   1.00
O268   O     0.22679   0.46042   0.25001   0.00000  Uiso   1.00
O269   O     0.09339   0.55532   0.17076   0.00000  Uiso   1.00
O270   O     0.22679   0.53958   0.25001   0.00000  Uiso   1.00
O271   O     0.10655   0.46042   0.24999   0.00000  Uiso   1.00
O272   O     0.16666   0.53959   0.18573   0.00000  Uiso   1.00
O273   O     0.16667   0.46041   0.31427   0.00000  Uiso   1.00
O274   O     0.16667   0.53959   0.31427   0.00000  Uiso   1.00
O275   O     0.16666   0.46041   0.18573   0.00000  Uiso   1.00
O276   O     0.12141   0.37989   0.13034   0.00000  Uiso   1.00
S277   S     0.10310   0.38841   0.17163   0.00000  Uiso   1.00
S278   S     0.23768   0.61218   0.32066   0.00000  Uiso   1.00
S279   S     0.23024   0.38841   0.32837   0.00000  Uiso   1.00
S280   S     0.09566   0.61218   0.17934   0.00000  Uiso   1.00
C281   C     0.42096   0.49993   0.25083   0.00000  Uiso   1.00
C282   C     0.64524   0.54121   0.24876   0.00000  Uiso   1.00
C283   C     0.64530   0.45780   0.24972   0.00000  Uiso   1.00
C284   C     0.35476   0.54121   0.25124   0.00000  Uiso   1.00
C285   C     0.48791   0.53911   0.04522   0.00000  Uiso   1.00
C286   C     0.48688   0.46045   0.44970   0.00000  Uiso   1.00
C287   C     0.51208   0.53911   0.45478   0.00000  Uiso   1.00
C288   C     0.51311   0.46044   0.05030   0.00000  Uiso   1.00
C289   C     0.48870   0.53939   0.09124   0.00000  Uiso   1.00
C290   C     0.48669   0.46054   0.40372   0.00000  Uiso   1.00
C291   C     0.51130   0.53939   0.40876   0.00000  Uiso   1.00
C292   C     0.57904   0.49993   0.24917   0.00000  Uiso   1.00
C293   C     0.51330   0.46054   0.09628   0.00000  Uiso   1.00
C294   C     0.50096   0.49998   0.11700   0.00000  Uiso   1.00
C295   C     0.49903   0.49998   0.38300   0.00000  Uiso   1.00
C296   C     0.50021   0.49968   0.02434   0.00000  Uiso   1.00
C297   C     0.49978   0.49968   0.47566   0.00000  Uiso   1.00
C298   C     0.62370   0.49962   0.24897   0.00000  Uiso   1.00
C299   C     0.37630   0.49962   0.25103   0.00000  Uiso   1.00
C300   C     0.50068   0.50000   0.16524   0.00000  Uiso   1.00
C301   C     0.49932   0.50000   0.33476   0.00000  Uiso   1.00
C302   C     0.47127   0.35856   0.21819   0.00000  Uiso   1.00
C303   C     0.52916   0.64157   0.28127   0.00000  Uiso   1.00
C304   C     0.52873   0.35856   0.28181   0.00000  Uiso   1.00
C305   C     0.47084   0.64157   0.21873   0.00000  Uiso   1.00
C306   C     0.35469   0.45780   0.25028   0.00000  Uiso   1.00
Cu307  Cu    0.50000   0.54689   0.25000   0.00000  Uiso   1.00
Cu308  Cu    0.50000   0.45311   0.25000   0.00000  Uiso   1.00
H309   H     0.47721   0.56961   0.02592   0.00000  Uiso   1.00
H310   H     0.62909   0.57379   0.24667   0.00000  Uiso   1.00
H311   H     0.62930   0.42514   0.24973   0.00000  Uiso   1.00
H312   H     0.37091   0.57378   0.25333   0.00000  Uiso   1.00
H313   H     0.41101   0.45187   0.14064   0.00000  Uiso   1.00
H314   H     0.60063   0.54958   0.34920   0.00000  Uiso   1.00
H315   H     0.58898   0.45188   0.35935   0.00000  Uiso   1.00
H316   H     0.39939   0.54958   0.15077   0.00000  Uiso   1.00
H317   H     0.47643   0.42990   0.46481   0.00000  Uiso   1.00
H318   H     0.52278   0.56961   0.47408   0.00000  Uiso   1.00
H319   H     0.52356   0.42990   0.03519   0.00000  Uiso   1.00
H320   H     0.47918   0.57026   0.10649   0.00000  Uiso   1.00
H321   H     0.47638   0.42998   0.38432   0.00000  Uiso   1.00
H322   H     0.52081   0.57026   0.39351   0.00000  Uiso   1.00
H323   H     0.52361   0.42998   0.11568   0.00000  Uiso   1.00
H324   H     0.37069   0.42514   0.25026   0.00000  Uiso   1.00
N325   N     0.50000   0.61736   0.25000   0.00000  Uiso   1.00
N326   N     0.50000   0.38264   0.25000   0.00000  Uiso   1.00
O327   O     0.43988   0.53958   0.25000   0.00000  Uiso   1.00
O328   O     0.39305   0.36884   0.16423   0.00000  Uiso   1.00
O329   O     0.42639   0.44485   0.17139   0.00000  Uiso   1.00
O330   O     0.61121   0.62364   0.30552   0.00000  Uiso   1.00
O331   O     0.57268   0.63076   0.36719   0.00000  Uiso   1.00
O332   O     0.57328   0.55533   0.32923   0.00000  Uiso   1.00
O333   O     0.54525   0.37989   0.36966   0.00000  Uiso   1.00
O334   O     0.60695   0.36885   0.33577   0.00000  Uiso   1.00
O335   O     0.57360   0.44485   0.32861   0.00000  Uiso   1.00
O336   O     0.38879   0.62363   0.19448   0.00000  Uiso   1.00
O337   O     0.42732   0.63076   0.13280   0.00000  Uiso   1.00
O338   O     0.56012   0.46042   0.25001   0.00000  Uiso   1.00
O339   O     0.42673   0.55532   0.17076   0.00000  Uiso   1.00
O340   O     0.56012   0.53958   0.25001   0.00000  Uiso   1.00
O341   O     0.43988   0.46042   0.24999   0.00000  Uiso   1.00
O342   O     0.50000   0.53959   0.18573   0.00000  Uiso   1.00
O343   O     0.50000   0.46041   0.31427   0.00000  Uiso   1.00
O344   O     0.50000   0.53959   0.31427   0.00000  Uiso   1.00
O345   O     0.50000   0.46041   0.18573   0.00000  Uiso   1.00
O346   O     0.45475   0.37989   0.13034   0.00000  Uiso   1.00
S347   S     0.43643   0.38841   0.17163   0.00000  Uiso   1.00
S348   S     0.57101   0.61218   0.32066   0.00000  Uiso   1.00
S349   S     0.56357   0.38841   0.32837   0.00000  Uiso   1.00
S350   S     0.42899   0.61218   0.17934   0.00000  Uiso   1.00
C351   C     0.75429   0.49993   0.25083   0.00000  Uiso   1.00
C352   C     0.97857   0.54121   0.24876   0.00000  Uiso   1.00
C353   C     0.97864   0.45780   0.24972   0.00000  Uiso   1.00
C354   C     0.68810   0.54121   0.25124   0.00000  Uiso   1.00
C355   C     0.82124   0.53911   0.04522   0.00000  Uiso   1.00
C356   C     0.82021   0.46045   0.44970   0.00000  Uiso   1.00
C357   C     0.84541   0.53911   0.45478   0.00000  Uiso   1.00
C358   C     0.84645   0.46044   0.05030   0.00000  Uiso   1.00
C359   C     0.82203   0.53939   0.09124   0.00000  Uiso   1.00
C360   C     0.82002   0.46054   0.40372   0.00000  Uiso   1.00
C361   C     0.84463   0.53939   0.40876   0.00000  Uiso   1.00
C362   C     0.91238   0.49993   0.24917   0.00000  Uiso   1.00
C363   C     0.84664   0.46054   0.09628   0.00000  Uiso   1.00
C364   C     0.83430   0.49998   0.11700   0.00000  Uiso   1.00
C365   C     0.83237   0.49998   0.38300   0.00000  Uiso   1.00
C366   C     0.83354   0.49968   0.02434   0.00000  Uiso   1.00
C367   C     0.83311   0.49968   0.47566   0.00000  Uiso   1.00
C368   C     0.95703   0.49962   0.24897   0.00000  Uiso   1.00
C369   C     0.70963   0.49962   0.25103   0.00000  Uiso   1.00
C370   C     0.83402   0.50000   0.16524   0.00000  Uiso   1.00
C371   C     0.83265   0.50000   0.33476   0.00000  Uiso   1.00
C372   C     0.80460   0.35856   0.21819   0.00000  Uiso   1.00
C373   C     0.86249   0.64157   0.28127   0.00000  Uiso   1.00
C374   C     0.86207   0.35856   0.28181   0.00000  Uiso   1.00
C375   C     0.80417   0.64157   0.21873   0.00000  Uiso   1.00
C376   C     0.68803   0.45780   0.25028   0.00000  Uiso   1.00
Cu377  Cu    0.83333   0.54689   0.25000   0.00000  Uiso   1.00
Cu378  Cu    0.83333   0.45311   0.25000   0.00000  Uiso   1.00
H379   H     0.81054   0.56961   0.02592   0.00000  Uiso   1.00
H380   H     0.96242   0.57379   0.24667   0.00000  Uiso   1.00
H381   H     0.96263   0.42514   0.24973   0.00000  Uiso   1.00
H382   H     0.70425   0.57378   0.25333   0.00000  Uiso   1.00
H383   H     0.74434   0.45187   0.14064   0.00000  Uiso   1.00
H384   H     0.93396   0.54958   0.34920   0.00000  Uiso   1.00
H385   H     0.92232   0.45188   0.35935   0.00000  Uiso   1.00
H386   H     0.73272   0.54958   0.15077   0.00000  Uiso   1.00
H387   H     0.80976   0.42990   0.46481   0.00000  Uiso   1.00
H388   H     0.85611   0.56961   0.47408   0.00000  Uiso   1.00
H389   H     0.85689   0.42990   0.03519   0.00000  Uiso   1.00
H390   H     0.81251   0.57026   0.10649   0.00000  Uiso   1.00
H391   H     0.80971   0.42998   0.38432   0.00000  Uiso   1.00
H392   H     0.85415   0.57026   0.39351   0.00000  Uiso   1.00
H393   H     0.85695   0.42998   0.11568   0.00000  Uiso   1.00
H394   H     0.70403   0.42514   0.25026   0.00000  Uiso   1.00
N395   N     0.83333   0.61736   0.25000   0.00000  Uiso   1.00
N396   N     0.83333   0.38264   0.25000   0.00000  Uiso   1.00
O397   O     0.77321   0.53958   0.25000   0.00000  Uiso   1.00
O398   O     0.72638   0.36884   0.16423   0.00000  Uiso   1.00
O399   O     0.75973   0.44485   0.17139   0.00000  Uiso   1.00
O400   O     0.94454   0.62364   0.30552   0.00000  Uiso   1.00
O401   O     0.90602   0.63076   0.36719   0.00000  Uiso   1.00
O402   O     0.90661   0.55533   0.32923   0.00000  Uiso   1.00
O403   O     0.87859   0.37989   0.36966   0.00000  Uiso   1.00
O404   O     0.94028   0.36885   0.33577   0.00000  Uiso   1.00
O405   O     0.90694   0.44485   0.32861   0.00000  Uiso   1.00
O406   O     0.72213   0.62363   0.19448   0.00000  Uiso   1.00
O407   O     0.76066   0.63076   0.13280   0.00000  Uiso   1.00
O408   O     0.89345   0.46042   0.25001   0.00000  Uiso   1.00
O409   O     0.76006   0.55532   0.17076   0.00000  Uiso   1.00
O410   O     0.89345   0.53958   0.25001   0.00000  Uiso   1.00
O411   O     0.77321   0.46042   0.24999   0.00000  Uiso   1.00
O412   O     0.83333   0.53959   0.18573   0.00000  Uiso   1.00
O413   O     0.83334   0.46041   0.31427   0.00000  Uiso   1.00
O414   O     0.83334   0.53959   0.31427   0.00000  Uiso   1.00
O415   O     0.83333   0.46041   0.18573   0.00000  Uiso   1.00
O416   O     0.78808   0.37989   0.13034   0.00000  Uiso   1.00
S417   S     0.76976   0.38841   0.17163   0.00000  Uiso   1.00
S418   S     0.90435   0.61218   0.32066   0.00000  Uiso   1.00
S419   S     0.89690   0.38841   0.32837   0.00000  Uiso   1.00
S420   S     0.76232   0.61218   0.17934   0.00000  Uiso   1.00
C421   C     0.08762   0.83326   0.25083   0.00000  Uiso   1.00
C422   C     0.31190   0.87455   0.24876   0.00000  Uiso   1.00
C423   C     0.31197   0.79114   0.24972   0.00000  Uiso   1.00
C424   C     0.02143   0.87455   0.25124   0.00000  Uiso   1.00
C425   C     0.15458   0.87245   0.04522   0.00000  Uiso   1.00
C426   C     0.15354   0.79378   0.44970   0.00000  Uiso   1.00
C427   C     0.17874   0.87245   0.45478   0.00000  Uiso   1.00
C428   C     0.17978   0.79378   0.05030   0.00000  Uiso   1.00
C429   C     0.15536   0.87272   0.09124   0.00000  Uiso   1.00
C430   C     0.15336   0.79387   0.40372   0.00000  Uiso   1.00
C431   C     0.17796   0.87272   0.40876   0.00000  Uiso   1.00
C432   C     0.24571   0.83326   0.24917   0.00000  Uiso   1.00
C433   C     0.17997   0.79387   0.09628   0.00000  Uiso   1.00
C434   C     0.16763   0.83331   0.11700   0.00000  Uiso   1.00
C435   C     0.16570   0.83331   0.38300   0.00000  Uiso   1.00
C436   C     0.16687   0.83302   0.02434   0.00000  Uiso   1.00
C437   C     0.16645   0.83302   0.47566   0.00000  Uiso   1.00
C438   C     0.29037   0.83295   0.24897   0.00000  Uiso   1.00
C439   C     0.04297   0.83295   0.25103   0.00000  Uiso   1.00
C440   C     0.16735   0.83333   0.16524   0.00000  Uiso   1.00
C441   C     0.16598   0.83333   0.33476   0.00000  Uiso   1.00
C442   C     0.13793   0.69189   0.21819   0.00000  Uiso   1.00
C443   C     0.19583   0.97490   0.28127   0.00000  Uiso   1.00
C444   C     0.19540   0.69190   0.28181   0.00000  Uiso   1.00
C445   C     0.13751   0.97490   0.21873   0.00000  Uiso   1.00
C446   C     0.02136   0.79114   0.25028   0.00000  Uiso   1.00
Cu447  Cu    0.16667   0.88022   0.25000   0.00000  Uiso   1.00
Cu448  Cu    0.16667   0.78645   0.25000   0.00000  Uiso   1.00
H449   H     0.14387   0.90294   0.02592   0.00000  Uiso   1.00
H450   H     0.29576   0.90712   0.24667   0.00000  Uiso   1.00
H451   H     0.29597   0.75847   0.24973   0.00000  Uiso   1.00
H452   H     0.03758   0.90712   0.25333   0.00000  Uiso   1.00
H453   H     0.07767   0.78520   0.14064   0.00000  Uiso   1.00
H454   H     0.26730   0.88292   0.34920   0.00000  Uiso   1.00
H455   H     0.25565   0.78521   0.35935   0.00000  Uiso   1.00
H456   H     0.06605   0.88292   0.15077   0.00000  Uiso   1.00
H457   H     0.14310   0.76324   0.46481   0.00000  Uiso   1.00
H458   H     0.18944   0.90295   0.47408   0.00000  Uiso   1.00
H459   H     0.19022   0.76324   0.03519   0.00000  Uiso   1.00
H460   H     0.14585   0.90359   0.10649   0.00000  Uiso   1.00
H461   H     0.14304   0.76331   0.38432   0.00000  Uiso   1.00
H462   H     0.18748   0.90359   0.39351   0.00000  Uiso   1.00
H463   H     0.19028   0.76331   0.11568   0.00000  Uiso   1.00
H464   H     0.03736   0.75847   0.25026   0.00000  Uiso   1.00
N465   N     0.16667   0.95069   0.25000   0.00000  Uiso   1.00
N466   N     0.16667   0.71598   0.25000   0.00000  Uiso   1.00
O467   O     0.10655   0.87291   0.25000   0.00000  Uiso   1.00
O468   O     0.05971   0.70217   0.16423   0.00000  Uiso   1.00
O469   O     0.09306   0.77818   0.17139   0.00000  Uiso   1.00
O470   O     0.27787   0.95697   0.30552   0.00000  Uiso   1.00
O471   O     0.23935   0.96409   0.36719   0.00000  Uiso   1.00
O472   O     0.23994   0.88866   0.32923   0.00000  Uiso   1.00
O473   O     0.21192   0.71322   0.36966   0.00000  Uiso   1.00
O474   O     0.27362   0.70218   0.33577   0.00000  Uiso   1.00
O475   O     0.24027   0.77819   0.32861   0.00000  Uiso   1.00
O476   O     0.05546   0.95696   0.19448   0.00000  Uiso   1.00
O477   O     0.09399   0.96409   0.13280   0.00000  Uiso   1.00
O478   O     0.22679   0.79375   0.25001   0.00000  Uiso   1.00
O479   O     0.09339   0.88866   0.17076   0.00000  Uiso   1.00
O480   O     0.22679   0.87291   0.25001   0.00000  Uiso   1.00
O481   O     0.10655   0.79375   0.24999   0.00000  Uiso   1.00
O482   O     0.16666   0.87293   0.18573   0.00000  Uiso   1.00
O483   O     0.16667   0.79374   0.31427   0.00000  Uiso   1.00
O484   O     0.16667   0.87293   0.31427   0.00000  Uiso   1.00
O485   O     0.16666   0.79374   0.18573   0.00000  Uiso   1.00
O486   O     0.12141   0.71322   0.13034   0.00000  Uiso   1.00
S487   S     0.10310   0.72174   0.17163   0.00000  Uiso   1.00
S488   S     0.23768   0.94552   0.32066   0.00000  Uiso   1.00
S489   S     0.23024   0.72175   0.32837   0.00000  Uiso   1.00
S490   S     0.09566   0.94551   0.17934   0.00000  Uiso   1.00
C491   C     0.42096   0.83326   0.25083   0.00000  Uiso   1.00
C492   C     0.64524   0.87455   0.24876   0.00000  Uiso   1.00
C493   C     0.64530   0.79114   0.24972   0.00000  Uiso   1.00
C494   C     0.35476   0.87455   0.25124   0.00000  Uiso   1.00
C495   C     0.48791   0.87245   0.04522   0.00000  Uiso   1.00
C496   C     0.48688   0.79378   0.44970   0.00000  Uiso   1.00
C497   C     0.51208   0.87245   0.45478   0.00000  Uiso   1.00
C498   C     0.51311   0.79378   0.05030   0.00000  Uiso   1.00
C499   C     0.48870   0.87272   0.09124   0.00000  Uiso   1.00
C500   C     0.48669   0.79387   0.40372   0.00000  Uiso   1.00
C501   C     0.51130   0.87272   0.40876   0.00000  Uiso   1.00
C502   C     0.57904   0.83326   0.24917   0.00000  Uiso   1.00
C503   C     0.51330   0.79387   0.09628   0.00000  Uiso   1.00
C504   C     0.50096   0.83331   0.11700   0.00000  Uiso   1.00
C505   C     0.49903   0.83331   0.38300   0.00000  Uiso   1.00
C506   C     0.50021   0.83302   0.02434   0.00000  Uiso   1.00
C507   C     0.49978   0.83302   0.47566   0.00000  Uiso   1.00
C508   C     0.62370   0.83295   0.24897   0.00000  Uiso   1.00
C509   C     0.37630   0.83295   0.25103   0.00000  Uiso   1.00
C510   C     0.50068   0.83333   0.16524   0.00000  Uiso   1.00
C511   C     0.49932   0.83333   0.33476   0.00000  Uiso   1.00
C512   C     0.47127   0.69189   0.21819   0.00000  Uiso   1.00
C513   C     0.52916   0.97490   0.28127   0.00000  Uiso   1.00
C514   C     0.52873   0.69190   0.28181   0.00000  Uiso   1.00
C515   C     0.47084   0.97490   0.21873   0.00000  Uiso   1.00
C516   C     0.35469   0.79114   0.25028   0.00000  Uiso   1.00
Cu517  Cu    0.50000   0.88022   0.25000   0.00000  Uiso   1.00
Cu518  Cu    0.50000   0.78645   0.25000   0.00000  Uiso   1.00
H519   H     0.47721   0.90294   0.02592   0.00000  Uiso   1.00
H520   H     0.62909   0.90712   0.24667   0.00000  Uiso   1.00
H521   H     0.62930   0.75847   0.24973   0.00000  Uiso   1.00
H522   H     0.37091   0.90712   0.25333   0.00000  Uiso   1.00
H523   H     0.41101   0.78520   0.14064   0.00000  Uiso   1.00
H524   H     0.60063   0.88292   0.34920   0.00000  Uiso   1.00
H525   H     0.58898   0.78521   0.35935   0.00000  Uiso   1.00
H526   H     0.39939   0.88292   0.15077   0.00000  Uiso   1.00
H527   H     0.47643   0.76324   0.46481   0.00000  Uiso   1.00
H528   H     0.52278   0.90295   0.47408   0.00000  Uiso   1.00
H529   H     0.52356   0.76324   0.03519   0.00000  Uiso   1.00
H530   H     0.47918   0.90359   0.10649   0.00000  Uiso   1.00
H531   H     0.47638   0.76331   0.38432   0.00000  Uiso   1.00
H532   H     0.52081   0.90359   0.39351   0.00000  Uiso   1.00
H533   H     0.52361   0.76331   0.11568   0.00000  Uiso   1.00
H534   H     0.37069   0.75847   0.25026   0.00000  Uiso   1.00
N535   N     0.50000   0.95069   0.25000   0.00000  Uiso   1.00
N536   N     0.50000   0.71598   0.25000   0.00000  Uiso   1.00
O537   O     0.43988   0.87291   0.25000   0.00000  Uiso   1.00
O538   O     0.39305   0.70217   0.16423   0.00000  Uiso   1.00
O539   O     0.42639   0.77818   0.17139   0.00000  Uiso   1.00
O540   O     0.61121   0.95697   0.30552   0.00000  Uiso   1.00
O541   O     0.57268   0.96409   0.36719   0.00000  Uiso   1.00
O542   O     0.57328   0.88866   0.32923   0.00000  Uiso   1.00
O543   O     0.54525   0.71322   0.36966   0.00000  Uiso   1.00
O544   O     0.60695   0.70218   0.33577   0.00000  Uiso   1.00
O545   O     0.57360   0.77819   0.32861   0.00000  Uiso   1.00
O546   O     0.38879   0.95696   0.19448   0.00000  Uiso   1.00
O547   O     0.42732   0.96409   0.13280   0.00000  Uiso   1.00
O548   O     0.56012   0.79375   0.25001   0.00000  Uiso   1.00
O549   O     0.42673   0.88866   0.17076   0.00000  Uiso   1.00
O550   O     0.56012   0.87291   0.25001   0.00000  Uiso   1.00
O551   O     0.43988   0.79375   0.24999   0.00000  Uiso   1.00
O552   O     0.50000   0.87293   0.18573   0.00000  Uiso   1.00
O553   O     0.50000   0.79374   0.31427   0.00000  Uiso   1.00
O554   O     0.50000   0.87293   0.31427   0.00000  Uiso   1.00
O555   O     0.50000   0.79374   0.18573   0.00000  Uiso   1.00
O556   O     0.45475   0.71322   0.13034   0.00000  Uiso   1.00
S557   S     0.43643   0.72174   0.17163   0.00000  Uiso   1.00
S558   S     0.57101   0.94552   0.32066   0.00000  Uiso   1.00
S559   S     0.56357   0.72175   0.32837   0.00000  Uiso   1.00
S560   S     0.42899   0.94551   0.17934   0.00000  Uiso   1.00
C561   C     0.75429   0.83326   0.25083   0.00000  Uiso   1.00
C562   C     0.97857   0.87455   0.24876   0.00000  Uiso   1.00
C563   C     0.97864   0.79114   0.24972   0.00000  Uiso   1.00
C564   C     0.68810   0.87455   0.25124   0.00000  Uiso   1.00
C565   C     0.82124   0.87245   0.04522   0.00000  Uiso   1.00
C566   C     0.82021   0.79378   0.44970   0.00000  Uiso   1.00
C567   C     0.84541   0.87245   0.45478   0.00000  Uiso   1.00
C568   C     0.84645   0.79378   0.05030   0.00000  Uiso   1.00
C569   C     0.82203   0.87272   0.09124   0.00000  Uiso   1.00
C570   C     0.82002   0.79387   0.40372   0.00000  Uiso   1.00
C571   C     0.84463   0.87272   0.40876   0.00000  Uiso   1.00
C572   C     0.91238   0.83326   0.24917   0.00000  Uiso   1.00
C573   C     0.84664   0.79387   0.09628   0.00000  Uiso   1.00
C574   C     0.83430   0.83331   0.11700   0.00000  Uiso   1.00
C575   C     0.83237   0.83331   0.38300   0.00000  Uiso   1.00
C576   C     0.83354   0.83302   0.02434   0.00000  Uiso   1.00
C577   C     0.83311   0.83302   0.47566   0.00000  Uiso   1.00
C578   C     0.95703   0.83295   0.24897   0.00000  Uiso   1.00
C579   C     0.70963   0.83295   0.25103   0.00000  Uiso   1.00
C580   C     0.83402   0.83333   0.16524   0.00000  Uiso   1.00
C581   C     0.83265   0.83333   0.33476   0.00000  Uiso   1.00
C582   C     0.80460   0.69189   0.21819   0.00000  Uiso   1.00
C583   C     0.86249   0.97490   0.28127   0.00000  Uiso   1.00
C584   C     0.86207   0.69190   0.28181   0.00000  Uiso   1.00
C585   C     0.80417   0.97490   0.21873   0.00000  Uiso   1.00
C586   C     0.68803   0.79114   0.25028   0.00000  Uiso   1.00
Cu587  Cu    0.83333   0.88022   0.25000   0.00000  Uiso   1.00
Cu588  Cu    0.83333   0.78645   0.25000   0.00000  Uiso   1.00
H589   H     0.81054   0.90294   0.02592   0.00000  Uiso   1.00
H590   H     0.96242   0.90712   0.24667   0.00000  Uiso   1.00
H591   H     0.96263   0.75847   0.24973   0.00000  Uiso   1.00
H592   H     0.70425   0.90712   0.25333   0.00000  Uiso   1.00
H593   H     0.74434   0.78520   0.14064   0.00000  Uiso   1.00
H594   H     0.93396   0.88292   0.34920   0.00000  Uiso   1.00
H595   H     0.92232   0.78521   0.35935   0.00000  Uiso   1.00
H596   H     0.73272   0.88292   0.15077   0.00000  Uiso   1.00
H597   H     0.80976   0.76324   0.46481   0.00000  Uiso   1.00
H598   H     0.85611   0.90295   0.47408   0.00000  Uiso   1.00
H599   H     0.85689   0.76324   0.03519   0.00000  Uiso   1.00
H600   H     0.81251   0.90359   0.10649   0.00000  Uiso   1.00
H601   H     0.80971   0.76331   0.38432   0.00000  Uiso   1.00
H602   H     0.85415   0.90359   0.39351   0.00000  Uiso   1.00
H603   H     0.85695   0.76331   0.11568   0.00000  Uiso   1.00
H604   H     0.70403   0.75847   0.25026   0.00000  Uiso   1.00
N605   N     0.83333   0.95069   0.25000   0.00000  Uiso   1.00
N606   N     0.83333   0.71598   0.25000   0.00000  Uiso   1.00
O607   O     0.77321   0.87291   0.25000   0.00000  Uiso   1.00
O608   O     0.72638   0.70217   0.16423   0.00000  Uiso   1.00
O609   O     0.75973   0.77818   0.17139   0.00000  Uiso   1.00
O610   O     0.94454   0.95697   0.30552   0.00000  Uiso   1.00
O611   O     0.90602   0.96409   0.36719   0.00000  Uiso   1.00
O612   O     0.90661   0.88866   0.32923   0.00000  Uiso   1.00
O613   O     0.87859   0.71322   0.36966   0.00000  Uiso   1.00
O614   O     0.94028   0.70218   0.33577   0.00000  Uiso   1.00
O615   O     0.90694   0.77819   0.32861   0.00000  Uiso   1.00
O616   O     0.72213   0.95696   0.19448   0.00000  Uiso   1.00
O617   O     0.76066   0.96409   0.13280   0.00000  Uiso   1.00
O618   O     0.89345   0.79375   0.25001   0.00000  Uiso   1.00
O619   O     0.76006   0.88866   0.17076   0.00000  Uiso   1.00
O620   O     0.89345   0.87291   0.25001   0.00000  Uiso   1.00
O621   O     0.77321   0.79375   0.24999   0.00000  Uiso   1.00
O622   O     0.83333   0.87293   0.18573   0.00000  Uiso   1.00
O623   O     0.83334   0.79374   0.31427   0.00000  Uiso   1.00
O624   O     0.83334   0.87293   0.31427   0.00000  Uiso   1.00
O625   O     0.83333   0.79374   0.18573   0.00000  Uiso   1.00
O626   O     0.78808   0.71322   0.13034   0.00000  Uiso   1.00
S627   S     0.76976   0.72174   0.17163   0.00000  Uiso   1.00
S628   S     0.90435   0.94552   0.32066   0.00000  Uiso   1.00
S629   S     0.89690   0.72175   0.32837   0.00000  Uiso   1.00
S630   S     0.76232   0.94551   0.17934   0.00000  Uiso   1.00
C631   C     0.08762   0.16660   0.75083   0.00000  Uiso   1.00
C632   C     0.31190   0.20788   0.74876   0.00000  Uiso   1.00
C633   C     0.31197   0.12447   0.74972   0.00000  Uiso   1.00
C634   C     0.02143   0.20788   0.75124   0.00000  Uiso   1.00
C635   C     0.15458   0.20578   0.54522   0.00000  Uiso   1.00
C636   C     0.15354   0.12711   0.94970   0.00000  Uiso   1.00
C637   C     0.17874   0.20578   0.95478   0.00000  Uiso   1.00
C638   C     0.17978   0.12711   0.55030   0.00000  Uiso   1.00
C639   C     0.15536   0.20606   0.59124   0.00000  Uiso   1.00
C640   C     0.15336   0.12721   0.90372   0.00000  Uiso   1.00
C641   C     0.17796   0.20606   0.90876   0.00000  Uiso   1.00
C642   C     0.24571   0.16660   0.74917   0.00000  Uiso   1.00
C643   C     0.17997   0.12720   0.59628   0.00000  Uiso   1.00
C644   C     0.16763   0.16665   0.61700   0.00000  Uiso   1.00
C645   C     0.16570   0.16665   0.88300   0.00000  Uiso   1.00
C646   C     0.16687   0.16635   0.52434   0.00000  Uiso   1.00
C647   C     0.16645   0.16635   0.97566   0.00000  Uiso   1.00
C648   C     0.29037   0.16629   0.74897   0.00000  Uiso   1.00
C649   C     0.04297   0.16629   0.75103   0.00000  Uiso   1.00
C650   C     0.16735   0.16666   0.66524   0.00000  Uiso   1.00
C651   C     0.16598   0.16666   0.83476   0.00000  Uiso   1.00
C652   C     0.13793   0.02523   0.71819   0.00000  Uiso   1.00
C653   C     0.19583   0.30823   0.78127   0.00000  Uiso   1.00
C654   C     0.19540   0.02523   0.78181   0.00000  Uiso   1.00
C655   C     0.13751   0.30823   0.71873   0.00000  Uiso   1.00
C656   C     0.02136   0.12447   0.75028   0.00000  Uiso   1.00
Cu657  Cu    0.16667   0.21355   0.75000   0.00000  Uiso   1.00
Cu658  Cu    0.16667   0.11978   0.75000   0.00000  Uiso   1.00
H659   H     0.14387   0.23627   0.52592   0.00000  Uiso   1.00
H660   H     0.29576   0.24045   0.74667   0.00000  Uiso   1.00
H661   H     0.29597   0.09181   0.74973   0.00000  Uiso   1.00
H662   H     0.03758   0.24045   0.75333   0.00000  Uiso   1.00
H663   H     0.07767   0.11854   0.64064   0.00000  Uiso   1.00
H664   H     0.26730   0.21625   0.84920   0.00000  Uiso   1.00
H665   H     0.25565   0.11854   0.85935   0.00000  Uiso   1.00
H666   H     0.06605   0.21625   0.65077   0.00000  Uiso   1.00
H667   H     0.14310   0.09657   0.96481   0.00000  Uiso   1.00
H668   H     0.18944   0.23628   0.97408   0.00000  Uiso   1.00
H669   H     0.19022   0.09657   0.53519   0.00000  Uiso   1.00
H670   H     0.14585   0.23692   0.60649   0.00000  Uiso   1.00
H671   H     0.14304   0.09665   0.88432   0.00000  Uiso   1.00
H672   H     0.18748   0.23693   0.89351   0.00000  Uiso   1.00
H673   H     0.19028   0.09665   0.61568   0.00000  Uiso   1.00
H674   H     0.03736   0.09181   0.75026   0.00000  Uiso   1.00
N675   N     0.16667   0.28402   0.75000   0.00000  Uiso   1.00
N676   N     0.16667   0.04931   0.75000   0.00000  Uiso   1.00
O677   O     0.10655   0.20625   0.75000   0.00000  Uiso   1.00
O678   O     0.05971   0.03550   0.66423   0.00000  Uiso   1.00
O679   O     0.09306   0.11152   0.67139   0.00000  Uiso   1.00
O680   O     0.27787   0.29030   0.80552   0.00000  Uiso   1.00
O681   O     0.23935   0.29743   0.86719   0.00000  Uiso   1.00
O682   O     0.23994   0.22199   0.82923   0.00000  Uiso   1.00
O683   O     0.21192   0.04655   0.86966   0.00000  Uiso   1.00
O684   O     0.27362   0.03551   0.83577   0.00000  Uiso   1.00
O685   O     0.24027   0.11152   0.82861   0.00000  Uiso   1.00
O686   O     0.05546   0.29029   0.69448   0.00000  Uiso   1.00
O687   O     0.09399   0.29743   0.63280   0.00000  Uiso   1.00
O688   O     0.22679   0.12709   0.75001   0.00000  Uiso   1.00
O689   O     0.09339   0.22199   0.67076   0.00000  Uiso   1.00
O690   O     0.22679   0.20625   0.75001   0.00000  Uiso   1.00
O691   O     0.10655   0.12709   0.74999   0.00000  Uiso   1.00
O692   O     0.16666   0.20626   0.68573   0.00000  Uiso   1.00
O693   O     0.16667   0.12707   0.81427   0.00000  Uiso   1.00
O694   O     0.16667   0.20626   0.81427   0.00000  Uiso   1.00
O695   O     0.16666   0.12707   0.68573   0.00000  Uiso   1.00
O696   O     0.12141   0.04655   0.63034   0.00000  Uiso   1.00
S697   S     0.10310   0.05508   0.67163   0.00000  Uiso   1.00
S698   S     0.23768   0.27885   0.82066   0.00000  Uiso   1.00
S699   S     0.23024   0.05508   0.82837   0.00000  Uiso   1.00
S700   S     0.09566   0.27885   0.67934   0.00000  Uiso   1.00
C701   C     0.42096   0.16660   0.75083   0.00000  Uiso   1.00
C702   C     0.64524   0.20788   0.74876   0.00000  Uiso   1.00
C703   C     0.64530   0.12447   0.74972   0.00000  Uiso   1.00
C704   C     0.35476   0.20788   0.75124   0.00000  Uiso   1.00
C705   C     0.48791   0.20578   0.54522   0.00000  Uiso   1.00
C706   C     0.48688   0.12711   0.94970   0.00000  Uiso   1.00
C707   C     0.51208   0.20578   0.95478   0.00000  Uiso   1.00
C708   C     0.51311   0.12711   0.55030   0.00000  Uiso   1.00
C709   C     0.48870   0.20606   0.59124   0.00000  Uiso   1.00
C710   C     0.48669   0.12721   0.90372   0.00000  Uiso   1.00
C711   C     0.51130   0.20606   0.90876   0.00000  Uiso   1.00
C712   C     0.57904   0.16660   0.74917   0.00000  Uiso   1.00
C713   C     0.51330   0.12720   0.59628   0.00000  Uiso   1.00
C714   C     0.50096   0.16665   0.61700   0.00000  Uiso   1.00
C715   C     0.49903   0.16665   0.88300   0.00000  Uiso   1.00
C716   C     0.50021   0.16635   0.52434   0.00000  Uiso   1.00
C717   C     0.49978   0.16635   0.97566   0.00000  Uiso   1.00
C718   C     0.62370   0.16629   0.74897   0.00000  Uiso   1.00
C719   C     0.37630   0.16629   0.75103   0.00000  Uiso   1.00
C720   C     0.50068   0.16666   0.66524   0.00000  Uiso   1.00
C721   C     0.49932   0.16666   0.83476   0.00000  Uiso   1.00
C722   C     0.47127   0.02523   0.71819   0.00000  Uiso   1.00
C723   C     0.52916   0.30823   0.78127   0.00000  Uiso   1.00
C724   C     0.52873   0.02523   0.78181   0.00000  Uiso   1.00
C725   C     0.47084   0.30823   0.71873   0.00000  Uiso   1.00
C726   C     0.35469   0.12447   0.75028   0.00000  Uiso   1.00
Cu727  Cu    0.50000   0.21355   0.75000   0.00000  Uiso   1.00
Cu728  Cu    0.50000   0.11978   0.75000   0.00000  Uiso   1.00
H729   H     0.47721   0.23627   0.52592   0.00000  Uiso   1.00
H730   H     0.62909   0.24045   0.74667   0.00000  Uiso   1.00
H731   H     0.62930   0.09181   0.74973   0.00000  Uiso   1.00
H732   H     0.37091   0.24045   0.75333   0.00000  Uiso   1.00
H733   H     0.41101   0.11854   0.64064   0.00000  Uiso   1.00
H734   H     0.60063   0.21625   0.84920   0.00000  Uiso   1.00
H735   H     0.58898   0.11854   0.85935   0.00000  Uiso   1.00
H736   H     0.39939   0.21625   0.65077   0.00000  Uiso   1.00
H737   H     0.47643   0.09657   0.96481   0.00000  Uiso   1.00
H738   H     0.52278   0.23628   0.97408   0.00000  Uiso   1.00
H739   H     0.52356   0.09657   0.53519   0.00000  Uiso   1.00
H740   H     0.47918   0.23692   0.60649   0.00000  Uiso   1.00
H741   H     0.47638   0.09665   0.88432   0.00000  Uiso   1.00
H742   H     0.52081   0.23693   0.89351   0.00000  Uiso   1.00
H743   H     0.52361   0.09665   0.61568   0.00000  Uiso   1.00
H744   H     0.37069   0.09181   0.75026   0.00000  Uiso   1.00
N745   N     0.50000   0.28402   0.75000   0.00000  Uiso   1.00
N746   N     0.50000   0.04931   0.75000   0.00000  Uiso   1.00
O747   O     0.43988   0.20625   0.75000   0.00000  Uiso   1.00
O748   O     0.39305   0.03550   0.66423   0.00000  Uiso   1.00
O749   O     0.42639   0.11152   0.67139   0.00000  Uiso   1.00
O750   O     0.61121   0.29030   0.80552   0.00000  Uiso   1.00
O751   O     0.57268   0.29743   0.86719   0.00000  Uiso   1.00
O752   O     0.57328   0.22199   0.82923   0.00000  Uiso   1.00
O753   O     0.54525   0.04655   0.86966   0.00000  Uiso   1.00
O754   O     0.60695   0.03551   0.83577   0.00000  Uiso   1.00
O755   O     0.57360   0.11152   0.82861   0.00000  Uiso   1.00
O756   O     0.38879   0.29029   0.69448   0.00000  Uiso   1.00
O757   O     0.42732   0.29743   0.63280   0.00000  Uiso   1.00
O758   O     0.56012   0.12709   0.75001   0.00000  Uiso   1.00
O759   O     0.42673   0.22199   0.67076   0.00000  Uiso   1.00
O760   O     0.56012   0.20625   0.75001   0.00000  Uiso   1.00
O761   O     0.43988   0.12709   0.74999   0.00000  Uiso   1.00
O762   O     0.50000   0.20626   0.68573   0.00000  Uiso   1.00
O763   O     0.50000   0.12707   0.81427   0.00000  Uiso   1.00
O764   O     0.50000   0.20626   0.81427   0.00000  Uiso   1.00
O765   O     0.50000   0.12707   0.68573   0.00000  Uiso   1.00
O766   O     0.45475   0.04655   0.63034   0.00000  Uiso   1.00
S767   S     0.43643   0.05508   0.67163   0.00000  Uiso   1.00
S768   S     0.57101   0.27885   0.82066   0.00000  Uiso   1.00
S769   S     0.56357   0.05508   0.82837   0.00000  Uiso   1.00
S770   S     0.42899   0.27885   0.67934   0.00000  Uiso   1.00
C771   C     0.75429   0.16660   0.75083   0.00000  Uiso   1.00
C772   C     0.97857   0.20788   0.74876   0.00000  Uiso   1.00
C773   C     0.97864   0.12447   0.74972   0.00000  Uiso   1.00
C774   C     0.68810   0.20788   0.75124   0.00000  Uiso   1.00
C775   C     0.82124   0.20578   0.54522   0.00000  Uiso   1.00
C776   C     0.82021   0.12711   0.94970   0.00000  Uiso   1.00
C777   C     0.84541   0.20578   0.95478   0.00000  Uiso   1.00
C778   C     0.84645   0.12711   0.55030   0.00000  Uiso   1.00
C779   C     0.82203   0.20606   0.59124   0.00000  Uiso   1.00
C780   C     0.82002   0.12721   0.90372   0.00000  Uiso   1.00
C781   C     0.84463   0.20606   0.90876   0.00000  Uiso   1.00
C782   C     0.91238   0.16660   0.74917   0.00000  Uiso   1.00
C783   C     0.84664   0.12720   0.59628   0.00000  Uiso   1.00
C784   C     0.83430   0.16665   0.61700   0.00000  Uiso   1.00
C785   C     0.83237   0.16665   0.88300   0.00000  Uiso   1.00
C786   C     0.83354   0.16635   0.52434   0.00000  Uiso   1.00
C787   C     0.83311   0.16635   0.97566   0.00000  Uiso   1.00
C788   C     0.95703   0.16629   0.74897   0.00000  Uiso   1.00
C789   C     0.70963   0.16629   0.75103   0.00000  Uiso   1.00
C790   C     0.83402   0.16666   0.66524   0.00000  Uiso   1.00
C791   C     0.83265   0.16666   0.83476   0.00000  Uiso   1.00
C792   C     0.80460   0.02523   0.71819   0.00000  Uiso   1.00
C793   C     0.86249   0.30823   0.78127   0.00000  Uiso   1.00
C794   C     0.86207   0.02523   0.78181   0.00000  Uiso   1.00
C795   C     0.80417   0.30823   0.71873   0.00000  Uiso   1.00
C796   C     0.68803   0.12447   0.75028   0.00000  Uiso   1.00
Cu797  Cu    0.83333   0.21355   0.75000   0.00000  Uiso   1.00
Cu798  Cu    0.83333   0.11978   0.75000   0.00000  Uiso   1.00
H799   H     0.81054   0.23627   0.52592   0.00000  Uiso   1.00
H800   H     0.96242   0.24045   0.74667   0.00000  Uiso   1.00
H801   H     0.96263   0.09181   0.74973   0.00000  Uiso   1.00
H802   H     0.70425   0.24045   0.75333   0.00000  Uiso   1.00
H803   H     0.74434   0.11854   0.64064   0.00000  Uiso   1.00
H804   H     0.93396   0.21625   0.84920   0.00000  Uiso   1.00
H805   H     0.92232   0.11854   0.85935   0.00000  Uiso   1.00
H806   H     0.73272   0.21625   0.65077   0.00000  Uiso   1.00
H807   H     0.80976   0.09657   0.96481   0.00000  Uiso   1.00
H808   H     0.85611   0.23628   0.97408   0.00000  Uiso   1.00
H809   H     0.85689   0.09657   0.53519   0.00000  Uiso   1.00
H810   H     0.81251   0.23692   0.60649   0.00000  Uiso   1.00
H811   H     0.80971   0.09665   0.88432   0.00000  Uiso   1.00
H812   H     0.85415   0.23693   0.89351   0.00000  Uiso   1.00
H813   H     0.85695   0.09665   0.61568   0.00000  Uiso   1.00
H814   H     0.70403   0.09181   0.75026   0.00000  Uiso   1.00
N815   N     0.83333   0.28402   0.75000   0.00000  Uiso   1.00
N816   N     0.83333   0.04931   0.75000   0.00000  Uiso   1.00
O817   O     0.77321   0.20625   0.75000   0.00000  Uiso   1.00
O818   O     0.72638   0.03550   0.66423   0.00000  Uiso   1.00
O819   O     0.75973   0.11152   0.67139   0.00000  Uiso   1.00
O820   O     0.94454   0.29030   0.80552   0.00000  Uiso   1.00
O821   O     0.90602   0.29743   0.86719   0.00000  Uiso   1.00
O822   O     0.90661   0.22199   0.82923   0.00000  Uiso   1.00
O823   O     0.87859   0.04655   0.86966   0.00000  Uiso   1.00
O824   O     0.94028   0.03551   0.83577   0.00000  Uiso   1.00
O825   O     0.90694   0.11152   0.82861   0.00000  Uiso   1.00
O826   O     0.72213   0.29029   0.69448   0.00000  Uiso   1.00
O827   O     0.76066   0.29743   0.63280   0.00000  Uiso   1.00
O828   O     0.89345   0.12709   0.75001   0.00000  Uiso   1.00
O829   O     0.76006   0.22199   0.67076   0.00000  Uiso   1.00
O830   O     0.89345   0.20625   0.75001   0.00000  Uiso   1.00
O831   O     0.77321   0.12709   0.74999   0.00000  Uiso   1.00
O832   O     0.83333   0.20626   0.68573   0.00000  Uiso   1.00
O833   O     0.83334   0.12707   0.81427   0.00000  Uiso   1.00
O834   O     0.83334   0.20626   0.81427   0.00000  Uiso   1.00
O835   O     0.83333   0.12707   0.68573   0.00000  Uiso   1.00
O836   O     0.78808   0.04655   0.63034   0.00000  Uiso   1.00
S837   S     0.76976   0.05508   0.67163   0.00000  Uiso   1.00
S838   S     0.90435   0.27885   0.82066   0.00000  Uiso   1.00
S839   S     0.89690   0.05508   0.82837   0.00000  Uiso   1.00
S840   S     0.76232   0.27885   0.67934   0.00000  Uiso   1.00
C841   C     0.08762   0.49993   0.75083   0.00000  Uiso   1.00
C842   C     0.31190   0.54121   0.74876   0.00000  Uiso   1.00
C843   C     0.31197   0.45780   0.74972   0.00000  Uiso   1.00
C844   C     0.02143   0.54121   0.75124   0.00000  Uiso   1.00
C845   C     0.15458   0.53911   0.54522   0.00000  Uiso   1.00
C846   C     0.15354   0.46045   0.94970   0.00000  Uiso   1.00
C847   C     0.17874   0.53911   0.95478   0.00000  Uiso   1.00
C848   C     0.17978   0.46044   0.55030   0.00000  Uiso   1.00
C849   C     0.15536   0.53939   0.59124   0.00000  Uiso   1.00
C850   C     0.15336   0.46054   0.90372   0.00000  Uiso   1.00
C851   C     0.17796   0.53939   0.90876   0.00000  Uiso   1.00
C852   C     0.24571   0.49993   0.74917   0.00000  Uiso   1.00
C853   C     0.17997   0.46054   0.59628   0.00000  Uiso   1.00
C854   C     0.16763   0.49998   0.61700   0.00000  Uiso   1.00
C855   C     0.16570   0.49998   0.88300   0.00000  Uiso   1.00
C856   C     0.16687   0.49968   0.52434   0.00000  Uiso   1.00
C857   C     0.16645   0.49968   0.97566   0.00000  Uiso   1.00
C858   C     0.29037   0.49962   0.74897   0.00000  Uiso   1.00
C859   C     0.04297   0.49962   0.75103   0.00000  Uiso   1.00
C860   C     0.16735   0.50000   0.66524   0.00000  Uiso   1.00
C861   C     0.16598   0.50000   0.83476   0.00000  Uiso   1.00
C862   C     0.13793   0.35856   0.71819   0.00000  Uiso   1.00
C863   C     0.19583   0.64157   0.78127   0.00000  Uiso   1.00
C864   C     0.19540   0.35856   0.78181   0.00000  Uiso   1.00
C865   C     0.13751   0.64157   0.71873   0.00000  Uiso   1.00
C866   C     0.02136   0.45780   0.75028   0.00000  Uiso   1.00
Cu867  Cu    0.16667   0.54689   0.75000   0.00000  Uiso   1.00
Cu868  Cu    0.16667   0.45311   0.75000   0.00000  Uiso   1.00
H869   H     0.14387   0.56961   0.52592   0.00000  Uiso   1.00
H870   H     0.29576   0.57379   0.74667   0.00000  Uiso   1.00
H871   H     0.29597   0.42514   0.74973   0.00000  Uiso   1.00
H872   H     0.03758   0.57378   0.75333   0.00000  Uiso   1.00
H873   H     0.07767   0.45187   0.64064   0.00000  Uiso   1.00
H874   H     0.26730   0.54958   0.84920   0.00000  Uiso   1.00
H875   H     0.25565   0.45188   0.85935   0.00000  Uiso   1.00
H876   H     0.06605   0.54958   0.65077   0.00000  Uiso   1.00
H877   H     0.14310   0.42990   0.96481   0.00000  Uiso   1.00
H878   H     0.18944   0.56961   0.97408   0.00000  Uiso   1.00
H879   H     0.19022   0.42990   0.53519   0.00000  Uiso   1.00
H880   H     0.14585   0.57026   0.60649   0.00000  Uiso   1.00
H881   H     0.14304   0.42998   0.88432   0.00000  Uiso   1.00
H882   H     0.18748   0.57026   0.89351   0.00000  Uiso   1.00
H883   H     0.19028   0.42998   0.61568   0.00000  Uiso   1.00
H884   H     0.03736   0.42514   0.75026   0.00000  Uiso   1.00
N885   N     0.16667   0.61736   0.75000   0.00000  Uiso   1.00
N886   N     0.16667   0.38264   0.75000   0.00000  Uiso   1.00
O887   O     0.10655   0.53958   0.75000   0.00000  Uiso   1.00
O888   O     0.05971   0.36884   0.66423   0.00000  Uiso   1.00
O889   O     0.09306   0.44485   0.67139   0.00000  Uiso   1.00
O890   O     0.27787   0.62364   0.80552   0.00000  Uiso   1.00
O891   O     0.23935   0.63076   0.86719   0.00000  Uiso   1.00
O892   O     0.23994   0.55533   0.82923   0.00000  Uiso   1.00
O893   O     0.21192   0.37989   0.86966   0.00000  Uiso   1.00
O894   O     0.27362   0.36885   0.83577   0.00000  Uiso   1.00
O895   O     0.24027   0.44485   0.82861   0.00000  Uiso   1.00
O896   O     0.05546   0.62363   0.69448   0.00000  Uiso   1.00
O897   O     0.09399   0.63076   0.63280   0.00000  Uiso   1.00
O898   O     0.22679   0.46042   0.75001   0.00000  Uiso   1.00
O899   O     0.09339   0.55532   0.67076   0.00000  Uiso   1.00
O900   O     0.22679   0.53958   0.75001   0.00000  Uiso   1.00
O901   O     0.10655   0.46042   0.74999   0.00000  Uiso   1.00
O902   O     0.16666   0.53959   0.68573   0.00000  Uiso   1.00
O903   O     0.16667   0.46041   0.81427   0.00000  Uiso   1.00
O904   O     0.16667   0.53959   0.81427   0.00000  Uiso   1.00
O905   O     0.16666   0.46041   0.68573   0.00000  Uiso   1.00
O906   O     0.12141   0.37989   0.63034   0.00000  Uiso   1.00
S907   S     0.10310   0.38841   0.67163   0.00000  Uiso   1.00
S908   S     0.23768   0.61218   0.82066   0.00000  Uiso   1.00
S909   S     0.23024   0.38841   0.82837   0.00000  Uiso   1.00
S910   S     0.09566   0.61218   0.67934   0.00000  Uiso   1.00
C911   C     0.42096   0.49993   0.75083   0.00000  Uiso   1.00
C912   C     0.64524   0.54121   0.74876   0.00000  Uiso   1.00
C913   C     0.64530   0.45780   0.74972   0.00000  Uiso   1.00
C914   C     0.35476   0.54121   0.75124   0.00000  Uiso   1.00
C915   C     0.48791   0.53911   0.54522   0.00000  Uiso   1.00
C916   C     0.48688   0.46045   0.94970   0.00000  Uiso   1.00
C917   C     0.51208   0.53911   0.95478   0.00000  Uiso   1.00
C918   C     0.51311   0.46044   0.55030   0.00000  Uiso   1.00
C919   C     0.48870   0.53939   0.59124   0.00000  Uiso   1.00
C920   C     0.48669   0.46054   0.90372   0.00000  Uiso   1.00
C921   C     0.51130   0.53939   0.90876   0.00000  Uiso   1.00
C922   C     0.57904   0.49993   0.74917   0.00000  Uiso   1.00
C923   C     0.51330   0.46054   0.59628   0.00000  Uiso   1.00
C924   C     0.50096   0.49998   0.61700   0.00000  Uiso   1.00
C925   C     0.49903   0.49998   0.88300   0.00000  Uiso   1.00
C926   C     0.50021   0.49968   0.52434   0.00000  Uiso   1.00
C927   C     0.49978   0.49968   0.97566   0.00000  Uiso   1.00
C928   C     0.62370   0.49962   0.74897   0.00000  Uiso   1.00
C929   C     0.37630   0.49962   0.75103   0.00000  Uiso   1.00
C930   C     0.50068   0.50000   0.66524   0.00000  Uiso   1.00
C931   C     0.49932   0.50000   0.83476   0.00000  Uiso   1.00
C932   C     0.47127   0.35856   0.71819   0.00000  Uiso   1.00
C933   C     0.52916   0.64157   0.78127   0.00000  Uiso   1.00
C934   C     0.52873   0.35856   0.78181   0.00000  Uiso   1.00
C935   C     0.47084   0.64157   0.71873   0.00000  Uiso   1.00
C936   C     0.35469   0.45780   0.75028   0.00000  Uiso   1.00
Cu937  Cu    0.50000   0.54689   0.75000   0.00000  Uiso   1.00
Cu938  Cu    0.50000   0.45311   0.75000   0.00000  Uiso   1.00
H939   H     0.47721   0.56961   0.52592   0.00000  Uiso   1.00
H940   H     0.62909   0.57379   0.74667   0.00000  Uiso   1.00
H941   H     0.62930   0.42514   0.74973   0.00000  Uiso   1.00
H942   H     0.37091   0.57378   0.75333   0.00000  Uiso   1.00
H943   H     0.41101   0.45187   0.64064   0.00000  Uiso   1.00
H944   H     0.60063   0.54958   0.84920   0.00000  Uiso   1.00
H945   H     0.58898   0.45188   0.85935   0.00000  Uiso   1.00
H946   H     0.39939   0.54958   0.65077   0.00000  Uiso   1.00
H947   H     0.47643   0.42990   0.96481   0.00000  Uiso   1.00
H948   H     0.52278   0.56961   0.97408   0.00000  Uiso   1.00
H949   H     0.52356   0.42990   0.53519   0.00000  Uiso   1.00
H950   H     0.47918   0.57026   0.60649   0.00000  Uiso   1.00
H951   H     0.47638   0.42998   0.88432   0.00000  Uiso   1.00
H952   H     0.52081   0.57026   0.89351   0.00000  Uiso   1.00
H953   H     0.52361   0.42998   0.61568   0.00000  Uiso   1.00
H954   H     0.37069   0.42514   0.75026   0.00000  Uiso   1.00
N955   N     0.50000   0.61736   0.75000   0.00000  Uiso   1.00
N956   N     0.50000   0.38264   0.75000   0.00000  Uiso   1.00
O957   O     0.43988   0.53958   0.75000   0.00000  Uiso   1.00
O958   O     0.39305   0.36884   0.66423   0.00000  Uiso   1.00
O959   O     0.42639   0.44485   0.67139   0.00000  Uiso   1.00
O960   O     0.61121   0.62364   0.80552   0.00000  Uiso   1.00
O961   O     0.57268   0.63076   0.86719   0.00000  Uiso   1.00
O962   O     0.57328   0.55533   0.82923   0.00000  Uiso   1.00
O963   O     0.54525   0.37989   0.86966   0.00000  Uiso   1.00
O964   O     0.60695   0.36885   0.83577   0.00000  Uiso   1.00
O965   O     0.57360   0.44485   0.82861   0.00000  Uiso   1.00
O966   O     0.38879   0.62363   0.69448   0.00000  Uiso   1.00
O967   O     0.42732   0.63076   0.63280   0.00000  Uiso   1.00
O968   O     0.56012   0.46042   0.75001   0.00000  Uiso   1.00
O969   O     0.42673   0.55532   0.67076   0.00000  Uiso   1.00
O970   O     0.56012   0.53958   0.75001   0.00000  Uiso   1.00
O971   O     0.43988   0.46042   0.74999   0.00000  Uiso   1.00
O972   O     0.50000   0.53959   0.68573   0.00000  Uiso   1.00
O973   O     0.50000   0.46041   0.81427   0.00000  Uiso   1.00
O974   O     0.50000   0.53959   0.81427   0.00000  Uiso   1.00
O975   O     0.50000   0.46041   0.68573   0.00000  Uiso   1.00
O976   O     0.45475   0.37989   0.63034   0.00000  Uiso   1.00
S977   S     0.43643   0.38841   0.67163   0.00000  Uiso   1.00
S978   S     0.57101   0.61218   0.82066   0.00000  Uiso   1.00
S979   S     0.56357   0.38841   0.82837   0.00000  Uiso   1.00
S980   S     0.42899   0.61218   0.67934   0.00000  Uiso   1.00
C981   C     0.75429   0.49993   0.75083   0.00000  Uiso   1.00
C982   C     0.97857   0.54121   0.74876   0.00000  Uiso   1.00
C983   C     0.97864   0.45780   0.74972   0.00000  Uiso   1.00
C984   C     0.68810   0.54121   0.75124   0.00000  Uiso   1.00
C985   C     0.82124   0.53911   0.54522   0.00000  Uiso   1.00
C986   C     0.82021   0.46045   0.94970   0.00000  Uiso   1.00
C987   C     0.84541   0.53911   0.95478   0.00000  Uiso   1.00
C988   C     0.84645   0.46044   0.55030   0.00000  Uiso   1.00
C989   C     0.82203   0.53939   0.59124   0.00000  Uiso   1.00
C990   C     0.82002   0.46054   0.90372   0.00000  Uiso   1.00
C991   C     0.84463   0.53939   0.90876   0.00000  Uiso   1.00
C992   C     0.91238   0.49993   0.74917   0.00000  Uiso   1.00
C993   C     0.84664   0.46054   0.59628   0.00000  Uiso   1.00
C994   C     0.83430   0.49998   0.61700   0.00000  Uiso   1.00
C995   C     0.83237   0.49998   0.88300   0.00000  Uiso   1.00
C996   C     0.83354   0.49968   0.52434   0.00000  Uiso   1.00
C997   C     0.83311   0.49968   0.97566   0.00000  Uiso   1.00
C998   C     0.95703   0.49962   0.74897   0.00000  Uiso   1.00
C999   C     0.70963   0.49962   0.75103   0.00000  Uiso   1.00
C1000  C     0.83402   0.50000   0.66524   0.00000  Uiso   1.00
C1001  C     0.83265   0.50000   0.83476   0.00000  Uiso   1.00
C1002  C     0.80460   0.35856   0.71819   0.00000  Uiso   1.00
C1003  C     0.86249   0.64157   0.78127   0.00000  Uiso   1.00
C1004  C     0.86207   0.35856   0.78181   0.00000  Uiso   1.00
C1005  C     0.80417   0.64157   0.71873   0.00000  Uiso   1.00
C1006  C     0.68803   0.45780   0.75028   0.00000  Uiso   1.00
Cu1007 Cu    0.83333   0.54689   0.75000   0.00000  Uiso   1.00
Cu1008 Cu    0.83333   0.45311   0.75000   0.00000  Uiso   1.00
H1009  H     0.81054   0.56961   0.52592   0.00000  Uiso   1.00
H1010  H     0.96242   0.57379   0.74667   0.00000  Uiso   1.00
H1011  H     0.96263   0.42514   0.74973   0.00000  Uiso   1.00
H1012  H     0.70425   0.57378   0.75333   0.00000  Uiso   1.00
H1013  H     0.74434   0.45187   0.64064   0.00000  Uiso   1.00
H1014  H     0.93396   0.54958   0.84920   0.00000  Uiso   1.00
H1015  H     0.92232   0.45188   0.85935   0.00000  Uiso   1.00
H1016  H     0.73272   0.54958   0.65077   0.00000  Uiso   1.00
H1017  H     0.80976   0.42990   0.96481   0.00000  Uiso   1.00
H1018  H     0.85611   0.56961   0.97408   0.00000  Uiso   1.00
H1019  H     0.85689   0.42990   0.53519   0.00000  Uiso   1.00
H1020  H     0.81251   0.57026   0.60649   0.00000  Uiso   1.00
H1021  H     0.80971   0.42998   0.88432   0.00000  Uiso   1.00
H1022  H     0.85415   0.57026   0.89351   0.00000  Uiso   1.00
H1023  H     0.85695   0.42998   0.61568   0.00000  Uiso   1.00
H1024  H     0.70403   0.42514   0.75026   0.00000  Uiso   1.00
N1025  N     0.83333   0.61736   0.75000   0.00000  Uiso   1.00
N1026  N     0.83333   0.38264   0.75000   0.00000  Uiso   1.00
O1027  O     0.77321   0.53958   0.75000   0.00000  Uiso   1.00
O1028  O     0.72638   0.36884   0.66423   0.00000  Uiso   1.00
O1029  O     0.75973   0.44485   0.67139   0.00000  Uiso   1.00
O1030  O     0.94454   0.62364   0.80552   0.00000  Uiso   1.00
O1031  O     0.90602   0.63076   0.86719   0.00000  Uiso   1.00
O1032  O     0.90661   0.55533   0.82923   0.00000  Uiso   1.00
O1033  O     0.87859   0.37989   0.86966   0.00000  Uiso   1.00
O1034  O     0.94028   0.36885   0.83577   0.00000  Uiso   1.00
O1035  O     0.90694   0.44485   0.82861   0.00000  Uiso   1.00
O1036  O     0.72213   0.62363   0.69448   0.00000  Uiso   1.00
O1037  O     0.76066   0.63076   0.63280   0.00000  Uiso   1.00
O1038  O     0.89345   0.46042   0.75001   0.00000  Uiso   1.00
O1039  O     0.76006   0.55532   0.67076   0.00000  Uiso   1.00
O1040  O     0.89345   0.53958   0.75001   0.00000  Uiso   1.00
O1041  O     0.77321   0.46042   0.74999   0.00000  Uiso   1.00
O1042  O     0.83333   0.53959   0.68573   0.00000  Uiso   1.00
O1043  O     0.83334   0.46041   0.81427   0.00000  Uiso   1.00
O1044  O     0.83334   0.53959   0.81427   0.00000  Uiso   1.00
O1045  O     0.83333   0.46041   0.68573   0.00000  Uiso   1.00
O1046  O     0.78808   0.37989   0.63034   0.00000  Uiso   1.00
S1047  S     0.76976   0.38841   0.67163   0.00000  Uiso   1.00
S1048  S     0.90435   0.61218   0.82066   0.00000  Uiso   1.00
S1049  S     0.89690   0.38841   0.82837   0.00000  Uiso   1.00
S1050  S     0.76232   0.61218   0.67934   0.00000  Uiso   1.00
C1051  C     0.08762   0.83326   0.75083   0.00000  Uiso   1.00
C1052  C     0.31190   0.87455   0.74876   0.00000  Uiso   1.00
C1053  C     0.31197   0.79114   0.74972   0.00000  Uiso   1.00
C1054  C     0.02143   0.87455   0.75124   0.00000  Uiso   1.00
C1055  C     0.15458   0.87245   0.54522   0.00000  Uiso   1.00
C1056  C     0.15354   0.79378   0.94970   0.00000  Uiso   1.00
C1057  C     0.17874   0.87245   0.95478   0.00000  Uiso   1.00
C1058  C     0.17978   0.79378   0.55030   0.00000  Uiso   1.00
C1059  C     0.15536   0.87272   0.59124   0.00000  Uiso   1.00
C1060  C     0.15336   0.79387   0.90372   0.00000  Uiso   1.00
C1061  C     0.17796   0.87272   0.90876   0.00000  Uiso   1.00
C1062  C     0.24571   0.83326   0.74917   0.00000  Uiso   1.00
C1063  C     0.17997   0.79387   0.59628   0.00000  Uiso   1.00
C1064  C     0.16763   0.83331   0.61700   0.00000  Uiso   1.00
C1065  C     0.16570   0.83331   0.88300   0.00000  Uiso   1.00
C1066  C     0.16687   0.83302   0.52434   0.00000  Uiso   1.00
C1067  C     0.16645   0.83302   0.97566   0.00000  Uiso   1.00
C1068  C     0.29037   0.83295   0.74897   0.00000  Uiso   1.00
C1069  C     0.04297   0.83295   0.75103   0.00000  Uiso   1.00
C1070  C     0.16735   0.83333   0.66524   0.00000  Uiso   1.00
C1071  C     0.16598   0.83333   0.83476   0.00000  Uiso   1.00
C1072  C     0.13793   0.69189   0.71819   0.00000  Uiso   1.00
C1073  C     0.19583   0.97490   0.78127   0.00000  Uiso   1.00
C1074  C     0.19540   0.69190   0.78181   0.00000  Uiso   1.00
C1075  C     0.13751   0.97490   0.71873   0.00000  Uiso   1.00
C1076  C     0.02136   0.79114   0.75028   0.00000  Uiso   1.00
Cu1077 Cu    0.16667   0.88022   0.75000   0.00000  Uiso   1.00
Cu1078 Cu    0.16667   0.78645   0.75000   0.00000  Uiso   1.00
H1079  H     0.14387   0.90294   0.52592   0.00000  Uiso   1.00
H1080  H     0.29576   0.90712   0.74667   0.00000  Uiso   1.00
H1081  H     0.29597   0.75847   0.74973   0.00000  Uiso   1.00
H1082  H     0.03758   0.90712   0.75333   0.00000  Uiso   1.00
H1083  H     0.07767   0.78520   0.64064   0.00000  Uiso   1.00
H1084  H     0.26730   0.88292   0.84920   0.00000  Uiso   1.00
H1085  H     0.25565   0.78521   0.85935   0.00000  Uiso   1.00
H1086  H     0.06605   0.88292   0.65077   0.00000  Uiso   1.00
H1087  H     0.14310   0.76324   0.96481   0.00000  Uiso   1.00
H1088  H     0.18944   0.90295   0.97408   0.00000  Uiso   1.00
H1089  H     0.19022   0.76324   0.53519   0.00000  Uiso   1.00
H1090  H     0.14585   0.90359   0.60649   0.00000  Uiso   1.00
H1091  H     0.14304   0.76331   0.88432   0.00000  Uiso   1.00
H1092  H     0.18748   0.90359   0.89351   0.00000  Uiso   1.00
H1093  H     0.19028   0.76331   0.61568   0.00000  Uiso   1.00
H1094  H     0.03736   0.75847   0.75026   0.00000  Uiso   1.00
N1095  N     0.16667   0.95069   0.75000   0.00000  Uiso   1.00
N1096  N     0.16667   0.71598   0.75000   0.00000  Uiso   1.00
O1097  O     0.10655   0.87291   0.75000   0.00000  Uiso   1.00
O1098  O     0.05971   0.70217   0.66423   0.00000  Uiso   1.00
O1099  O     0.09306   0.77818   0.67139   0.00000  Uiso   1.00
O1100  O     0.27787   0.95697   0.80552   0.00000  Uiso   1.00
O1101  O     0.23935   0.96409   0.86719   0.00000  Uiso   1.00
O1102  O     0.23994   0.88866   0.82923   0.00000  Uiso   1.00
O1103  O     0.21192   0.71322   0.86966   0.00000  Uiso   1.00
O1104  O     0.27362   0.70218   0.83577   0.00000  Uiso   1.00
O1105  O     0.24027   0.77819   0.82861   0.00000  Uiso   1.00
O1106  O     0.05546   0.95696   0.69448   0.00000  Uiso   1.00
O1107  O     0.09399   0.96409   0.63280   0.00000  Uiso   1.00
O1108  O     0.22679   0.79375   0.75001   0.00000  Uiso   1.00
O1109  O     0.09339   0.88866   0.67076   0.00000  Uiso   1.00
O1110  O     0.22679   0.87291   0.75001   0.00000  Uiso   1.00
O1111  O     0.10655   0.79375   0.74999   0.00000  Uiso   1.00
O1112  O     0.16666   0.87293   0.68573   0.00000  Uiso   1.00
O1113  O     0.16667   0.79374   0.81427   0.00000  Uiso   1.00
O1114  O     0.16667   0.87293   0.81427   0.00000  Uiso   1.00
O1115  O     0.16666   0.79374   0.68573   0.00000  Uiso   1.00
O1116  O     0.12141   0.71322   0.63034   0.00000  Uiso   1.00
S1117  S     0.10310   0.72174   0.67163   0.00000  Uiso   1.00
S1118  S     0.23768   0.94552   0.82066   0.00000  Uiso   1.00
S1119  S     0.23024   0.72175   0.82837   0.00000  Uiso   1.00
S1120  S     0.09566   0.94551   0.67934   0.00000  Uiso   1.00
C1121  C     0.42096   0.83326   0.75083   0.00000  Uiso   1.00
C1122  C     0.64524   0.87455   0.74876   0.00000  Uiso   1.00
C1123  C     0.64530   0.79114   0.74972   0.00000  Uiso   1.00
C1124  C     0.35476   0.87455   0.75124   0.00000  Uiso   1.00
C1125  C     0.48791   0.87245   0.54522   0.00000  Uiso   1.00
C1126  C     0.48688   0.79378   0.94970   0.00000  Uiso   1.00
C1127  C     0.51208   0.87245   0.95478   0.00000  Uiso   1.00
C1128  C     0.51311   0.79378   0.55030   0.00000  Uiso   1.00
C1129  C     0.48870   0.87272   0.59124   0.00000  Uiso   1.00
C1130  C     0.48669   0.79387   0.90372   0.00000  Uiso   1.00
C1131  C     0.51130   0.87272   0.90876   0.00000  Uiso   1.00
C1132  C     0.57904   0.83326   0.74917   0.00000  Uiso   1.00
C1133  C     0.51330   0.79387   0.59628   0.00000  Uiso   1.00
C1134  C     0.50096   0.83331   0.61700   0.00000  Uiso   1.00
C1135  C     0.49903   0.83331   0.88300   0.00000  Uiso   1.00
C1136  C     0.50021   0.83302   0.52434   0.00000  Uiso   1.00
C1137  C     0.49978   0.83302   0.97566   0.00000  Uiso   1.00
C1138  C     0.62370   0.83295   0.74897   0.00000  Uiso   1.00
C1139  C     0.37630   0.83295   0.75103   0.00000  Uiso   1.00
C1140  C     0.50068   0.83333   0.66524   0.00000  Uiso   1.00
C1141  C     0.49932   0.83333   0.83476   0.00000  Uiso   1.00
C1142  C     0.47127   0.69189   0.71819   0.00000  Uiso   1.00
C1143  C     0.52916   0.97490   0.78127   0.00000  Uiso   1.00
C1144  C     0.52873   0.69190   0.78181   0.00000  Uiso   1.00
C1145  C     0.47084   0.97490   0.71873   0.00000  Uiso   1.00
C1146  C     0.35469   0.79114   0.75028   0.00000  Uiso   1.00
Cu1147 Cu    0.50000   0.88022   0.75000   0.00000  Uiso   1.00
Cu1148 Cu    0.50000   0.78645   0.75000   0.00000  Uiso   1.00
H1149  H     0.47721   0.90294   0.52592   0.00000  Uiso   1.00
H1150  H     0.62909   0.90712   0.74667   0.00000  Uiso   1.00
H1151  H     0.62930   0.75847   0.74973   0.00000  Uiso   1.00
H1152  H     0.37091   0.90712   0.75333   0.00000  Uiso   1.00
H1153  H     0.41101   0.78520   0.64064   0.00000  Uiso   1.00
H1154  H     0.60063   0.88292   0.84920   0.00000  Uiso   1.00
H1155  H     0.58898   0.78521   0.85935   0.00000  Uiso   1.00
H1156  H     0.39939   0.88292   0.65077   0.00000  Uiso   1.00
H1157  H     0.47643   0.76324   0.96481   0.00000  Uiso   1.00
H1158  H     0.52278   0.90295   0.97408   0.00000  Uiso   1.00
H1159  H     0.52356   0.76324   0.53519   0.00000  Uiso   1.00
H1160  H     0.47918   0.90359   0.60649   0.00000  Uiso   1.00
H1161  H     0.47638   0.76331   0.88432   0.00000  Uiso   1.00
H1162  H     0.52081   0.90359   0.89351   0.00000  Uiso   1.00
H1163  H     0.52361   0.76331   0.61568   0.00000  Uiso   1.00
H1164  H     0.37069   0.75847   0.75026   0.00000  Uiso   1.00
N1165  N     0.50000   0.95069   0.75000   0.00000  Uiso   1.00
N1166  N     0.50000   0.71598   0.75000   0.00000  Uiso   1.00
O1167  O     0.43988   0.87291   0.75000   0.00000  Uiso   1.00
O1168  O     0.39305   0.70217   0.66423   0.00000  Uiso   1.00
O1169  O     0.42639   0.77818   0.67139   0.00000  Uiso   1.00
O1170  O     0.61121   0.95697   0.80552   0.00000  Uiso   1.00
O1171  O     0.57268   0.96409   0.86719   0.00000  Uiso   1.00
O1172  O     0.57328   0.88866   0.82923   0.00000  Uiso   1.00
O1173  O     0.54525   0.71322   0.86966   0.00000  Uiso   1.00
O1174  O     0.60695   0.70218   0.83577   0.00000  Uiso   1.00
O1175  O     0.57360   0.77819   0.82861   0.00000  Uiso   1.00
O1176  O     0.38879   0.95696   0.69448   0.00000  Uiso   1.00
O1177  O     0.42732   0.96409   0.63280   0.00000  Uiso   1.00
O1178  O     0.56012   0.79375   0.75001   0.00000  Uiso   1.00
O1179  O     0.42673   0.88866   0.67076   0.00000  Uiso   1.00
O1180  O     0.56012   0.87291   0.75001   0.00000  Uiso   1.00
O1181  O     0.43988   0.79375   0.74999   0.00000  Uiso   1.00
O1182  O     0.50000   0.87293   0.68573   0.00000  Uiso   1.00
O1183  O     0.50000   0.79374   0.81427   0.00000  Uiso   1.00
O1184  O     0.50000   0.87293   0.81427   0.00000  Uiso   1.00
O1185  O     0.50000   0.79374   0.68573   0.00000  Uiso   1.00
O1186  O     0.45475   0.71322   0.63034   0.00000  Uiso   1.00
S1187  S     0.43643   0.72174   0.67163   0.00000  Uiso   1.00
S1188  S     0.57101   0.94552   0.82066   0.00000  Uiso   1.00
S1189  S     0.56357   0.72175   0.82837   0.00000  Uiso   1.00
S1190  S     0.42899   0.94551   0.67934   0.00000  Uiso   1.00
C1191  C     0.75429   0.83326   0.75083   0.00000  Uiso   1.00
C1192  C     0.97857   0.87455   0.74876   0.00000  Uiso   1.00
C1193  C     0.97864   0.79114   0.74972   0.00000  Uiso   1.00
C1194  C     0.68810   0.87455   0.75124   0.00000  Uiso   1.00
C1195  C     0.82124   0.87245   0.54522   0.00000  Uiso   1.00
C1196  C     0.82021   0.79378   0.94970   0.00000  Uiso   1.00
C1197  C     0.84541   0.87245   0.95478   0.00000  Uiso   1.00
C1198  C     0.84645   0.79378   0.55030   0.00000  Uiso   1.00
C1199  C     0.82203   0.87272   0.59124   0.00000  Uiso   1.00
C1200  C     0.82002   0.79387   0.90372   0.00000  Uiso   1.00
C1201  C     0.84463   0.87272   0.90876   0.00000  Uiso   1.00
C1202  C     0.91238   0.83326   0.74917   0.00000  Uiso   1.00
C1203  C     0.84664   0.79387   0.59628   0.00000  Uiso   1.00
C1204  C     0.83430   0.83331   0.61700   0.00000  Uiso   1.00
C1205  C     0.83237   0.83331   0.88300   0.00000  Uiso   1.00
C1206  C     0.83354   0.83302   0.52434   0.00000  Uiso   1.00
C1207  C     0.83311   0.83302   0.97566   0.00000  Uiso   1.00
C1208  C     0.95703   0.83295   0.74897   0.00000  Uiso   1.00
C1209  C     0.70963   0.83295   0.75103   0.00000  Uiso   1.00
C1210  C     0.83402   0.83333   0.66524   0.00000  Uiso   1.00
C1211  C     0.83265   0.83333   0.83476   0.00000  Uiso   1.00
C1212  C     0.80460   0.69189   0.71819   0.00000  Uiso   1.00
C1213  C     0.86249   0.97490   0.78127   0.00000  Uiso   1.00
C1214  C     0.86207   0.69190   0.78181   0.00000  Uiso   1.00
C1215  C     0.80417   0.97490   0.71873   0.00000  Uiso   1.00
C1216  C     0.68803   0.79114   0.75028   0.00000  Uiso   1.00
Cu1217 Cu    0.83333   0.88022   0.75000   0.00000  Uiso   1.00
Cu1218 Cu    0.83333   0.78645   0.75000   0.00000  Uiso   1.00
H1219  H     0.81054   0.90294   0.52592   0.00000  Uiso   1.00
H1220  H     0.96242   0.90712   0.74667   0.00000  Uiso   1.00
H1221  H     0.96263   0.75847   0.74973   0.00000  Uiso   1.00
H1222  H     0.70425   0.90712   0.75333   0.00000  Uiso   1.00
H1223  H     0.74434   0.78520   0.64064   0.00000  Uiso   1.00
H1224  H     0.93396   0.88292   0.84920   0.00000  Uiso   1.00
H1225  H     0.92232   0.78521   0.85935   0.00000  Uiso   1.00
H1226  H     0.73272   0.88292   0.65077   0.00000  Uiso   1.00
H1227  H     0.80976   0.76324   0.96481   0.00000  Uiso   1.00
H1228  H     0.85611   0.90295   0.97408   0.00000  Uiso   1.00
H1229  H     0.85689   0.76324   0.53519   0.00000  Uiso   1.00
H1230  H     0.81251   0.90359   0.60649   0.00000  Uiso   1.00
H1231  H     0.80971   0.76331   0.88432   0.00000  Uiso   1.00
H1232  H     0.85415   0.90359   0.89351   0.00000  Uiso   1.00
H1233  H     0.85695   0.76331   0.61568   0.00000  Uiso   1.00
H1234  H     0.70403   0.75847   0.75026   0.00000  Uiso   1.00
N1235  N     0.83333   0.95069   0.75000   0.00000  Uiso   1.00
N1236  N     0.83333   0.71598   0.75000   0.00000  Uiso   1.00
O1237  O     0.77321   0.87291   0.75000   0.00000  Uiso   1.00
O1238  O     0.72638   0.70217   0.66423   0.00000  Uiso   1.00
O1239  O     0.75973   0.77818   0.67139   0.00000  Uiso   1.00
O1240  O     0.94454   0.95697   0.80552   0.00000  Uiso   1.00
O1241  O     0.90602   0.96409   0.86719   0.00000  Uiso   1.00
O1242  O     0.90661   0.88866   0.82923   0.00000  Uiso   1.00
O1243  O     0.87859   0.71322   0.86966   0.00000  Uiso   1.00
O1244  O     0.94028   0.70218   0.83577   0.00000  Uiso   1.00
O1245  O     0.90694   0.77819   0.82861   0.00000  Uiso   1.00
O1246  O     0.72213   0.95696   0.69448   0.00000  Uiso   1.00
O1247  O     0.76066   0.96409   0.63280   0.00000  Uiso   1.00
O1248  O     0.89345   0.79375   0.75001   0.00000  Uiso   1.00
O1249  O     0.76006   0.88866   0.67076   0.00000  Uiso   1.00
O1250  O     0.89345   0.87291   0.75001   0.00000  Uiso   1.00
O1251  O     0.77321   0.79375   0.74999   0.00000  Uiso   1.00
O1252  O     0.83333   0.87293   0.68573   0.00000  Uiso   1.00
O1253  O     0.83334   0.79374   0.81427   0.00000  Uiso   1.00
O1254  O     0.83334   0.87293   0.81427   0.00000  Uiso   1.00
O1255  O     0.83333   0.79374   0.68573   0.00000  Uiso   1.00
O1256  O     0.78808   0.71322   0.63034   0.00000  Uiso   1.00
S1257  S     0.76976   0.72174   0.67163   0.00000  Uiso   1.00
S1258  S     0.90435   0.94552   0.82066   0.00000  Uiso   1.00
S1259  S     0.89690   0.72175   0.82837   0.00000  Uiso   1.00
S1260  S     0.76232   0.94551   0.67934   0.00000  Uiso   1.00
loop_
_geom_bond_atom_site_label_1
_geom_bond_atom_site_label_2
_geom_bond_distance
_geom_bond_site_symmetry_2
_ccdc_geom_bond_type
C1     C19     1.454   .     S
C1     O47     1.310   .     A
C1     O61     1.306   .     A
C2     C18     1.398   .     A
C2     H30     1.079   .     S
C2     C74     1.382   .     S
C3     H31     1.083   .     S
C3     C18     1.403   .     A
C3     C96     1.386   .     S
C4     H32     1.079   .     S
C4     C19     1.398   .     A
C4     C142    1.382   1_455 S
C5     C9      1.389   .     A
C5     H29     1.083   .     S
C5     C16     1.404   .     A
C6     C10     1.391   .     A
C6     H37     1.083   .     S
C6     C17     1.404   .     A
C7     C11     1.389   .     A
C7     H38     1.083   .     S
C7     C17     1.404   .     A
C8     C13     1.391   .     A
C8     H39     1.083   .     S
C8     C16     1.404   .     A
C9     C14     1.401   .     A
C9     H40     1.081   .     S
C10    H41     1.083   .     S
C10    C15     1.402   .     A
C11    C15     1.401   .     A
C11    H42     1.081   .     S
C12    O58     1.306   .     A
C12    O60     1.310   .     A
C12    C18     1.454   .     S
C13    C14     1.402   .     A
C13    H43     1.083   .     S
C14    C20     1.462   .     S
C15    C21     1.462   .     S
C16    C647    1.472   1_554 S
C17    C646    1.472   .     S
C19    C26     1.403   .     A
C20    O62     1.310   .     A
C20    O65     1.310   .     A
C21    O63     1.310   .     A
C21    O64     1.310   .     A
C22    S67     1.850   .     S
C22    N46     1.397   .     A
C22    C445    1.464   1_545 S
C23    S68     1.842   .     S
C23    N45     1.397   .     A
C23    C234    1.464   .     S
C24    N46     1.397   .     A
C24    S69     1.850   .     S
C24    C443    1.464   1_545 S
C25    N45     1.397   .     A
C25    S70     1.842   .     S
C25    C232    1.464   .     S
C26    H44     1.083   .     S
C26    C143    1.386   1_455 S
Cu27   O47     1.967   .     S
Cu27   N45     2.049   .     S
Cu27   O62     1.958   .     S
Cu27   O60     1.967   .     S
Cu27   O64     1.958   .     S
Cu27   Cu28    2.727   .     S
Cu28   O58     1.967   .     S
Cu28   O61     1.967   .     S
Cu28   O65     1.958   .     S
Cu28   N46     2.049   .     S
Cu28   O63     1.958   .     S
H33    O49     0.991   .     S
H34    O52     0.991   .     S
H35    O55     0.991   .     S
H36    O59     0.991   .     S
O48    S67     1.498   .     D
O49    S67     1.673   .     S
O50    S68     1.502   .     D
O51    S68     1.501   .     D
O52    S68     1.673   .     S
O53    S69     1.504   .     D
O54    S69     1.498   .     D
O55    S69     1.673   .     S
O56    S70     1.502   .     D
O57    S70     1.501   .     D
O59    S70     1.673   .     S
O66    S67     1.504   .     D
C71    C89     1.454   .     S
C71    O117    1.310   .     A
C71    O131    1.306   .     A
C72    C88     1.398   .     A
C72    H100    1.079   .     S
C72    C144    1.382   .     S
C73    H101    1.083   .     S
C73    C88     1.403   .     A
C73    C166    1.386   .     S
C74    H102    1.079   .     S
C74    C89     1.398   .     A
C75    C79     1.389   .     A
C75    H99     1.083   .     S
C75    C86     1.404   .     A
C76    C80     1.391   .     A
C76    H107    1.083   .     S
C76    C87     1.404   .     A
C77    C81     1.389   .     A
C77    H108    1.083   .     S
C77    C87     1.404   .     A
C78    C83     1.391   .     A
C78    H109    1.083   .     S
C78    C86     1.404   .     A
C79    C84     1.401   .     A
C79    H110    1.081   .     S
C80    H111    1.083   .     S
C80    C85     1.402   .     A
C81    C85     1.401   .     A
C81    H112    1.081   .     S
C82    O128    1.306   .     A
C82    O130    1.310   .     A
C82    C88     1.454   .     S
C83    C84     1.402   .     A
C83    H113    1.083   .     S
C84    C90     1.462   .     S
C85    C91     1.462   .     S
C86    C717    1.472   1_554 S
C87    C716    1.472   .     S
C89    C96     1.403   .     A
C90    O132    1.310   .     A
C90    O135    1.310   .     A
C91    O133    1.310   .     A
C91    O134    1.310   .     A
C92    S137    1.850   .     S
C92    N116    1.397   .     A
C92    C515    1.464   1_545 S
C93    S138    1.842   .     S
C93    N115    1.397   .     A
C93    C304    1.464   .     S
C94    N116    1.397   .     A
C94    S139    1.850   .     S
C94    C513    1.464   1_545 S
C95    N115    1.397   .     A
C95    S140    1.842   .     S
C95    C302    1.464   .     S
C96    H114    1.083   .     S
Cu97   O117    1.967   .     S
Cu97   N115    2.049   .     S
Cu97   O132    1.958   .     S
Cu97   O130    1.967   .     S
Cu97   O134    1.958   .     S
Cu97   Cu98    2.727   .     S
Cu98   O128    1.967   .     S
Cu98   O131    1.967   .     S
Cu98   O135    1.958   .     S
Cu98   N116    2.049   .     S
Cu98   O133    1.958   .     S
H103   O119    0.991   .     S
H104   O122    0.991   .     S
H105   O125    0.991   .     S
H106   O129    0.991   .     S
O118   S137    1.498   .     D
O119   S137    1.673   .     S
O120   S138    1.502   .     D
O121   S138    1.501   .     D
O122   S138    1.673   .     S
O123   S139    1.504   .     D
O124   S139    1.498   .     D
O125   S139    1.673   .     S
O126   S140    1.502   .     D
O127   S140    1.501   .     D
O129   S140    1.673   .     S
O136   S137    1.504   .     D
C141   C159    1.454   .     S
C141   O187    1.310   .     A
C141   O201    1.306   .     A
C142   C158    1.398   .     A
C142   H170    1.079   .     S
C142   C4      1.382   1_655 S
C143   H171    1.083   .     S
C143   C158    1.403   .     A
C143   C26     1.386   1_655 S
C144   H172    1.079   .     S
C144   C159    1.398   .     A
C145   C149    1.389   .     A
C145   H169    1.083   .     S
C145   C156    1.404   .     A
C146   C150    1.391   .     A
C146   H177    1.083   .     S
C146   C157    1.404   .     A
C147   C151    1.389   .     A
C147   H178    1.083   .     S
C147   C157    1.404   .     A
C148   C153    1.391   .     A
C148   H179    1.083   .     S
C148   C156    1.404   .     A
C149   C154    1.401   .     A
C149   H180    1.081   .     S
C150   H181    1.083   .     S
C150   C155    1.402   .     A
C151   C155    1.401   .     A
C151   H182    1.081   .     S
C152   O198    1.306   .     A
C152   O200    1.310   .     A
C152   C158    1.454   .     S
C153   C154    1.402   .     A
C153   H183    1.083   .     S
C154   C160    1.462   .     S
C155   C161    1.462   .     S
C156   C787    1.472   1_554 S
C157   C786    1.472   .     S
C159   C166    1.403   .     A
C160   O202    1.310   .     A
C160   O205    1.310   .     A
C161   O203    1.310   .     A
C161   O204    1.310   .     A
C162   S207    1.850   .     S
C162   N186    1.397   .     A
C162   C585    1.464   1_545 S
C163   S208    1.842   .     S
C163   N185    1.397   .     A
C163   C374    1.464   .     S
C164   N186    1.397   .     A
C164   S209    1.850   .     S
C164   C583    1.464   1_545 S
C165   N185    1.397   .     A
C165   S210    1.842   .     S
C165   C372    1.464   .     S
C166   H184    1.083   .     S
Cu167  O187    1.967   .     S
Cu167  N185    2.049   .     S
Cu167  O202    1.958   .     S
Cu167  O200    1.967   .     S
Cu167  O204    1.958   .     S
Cu167  Cu168   2.727   .     S
Cu168  O198    1.967   .     S
Cu168  O201    1.967   .     S
Cu168  O205    1.958   .     S
Cu168  N186    2.049   .     S
Cu168  O203    1.958   .     S
H173   O189    0.991   .     S
H174   O192    0.991   .     S
H175   O195    0.991   .     S
H176   O199    0.991   .     S
O188   S207    1.498   .     D
O189   S207    1.673   .     S
O190   S208    1.502   .     D
O191   S208    1.501   .     D
O192   S208    1.673   .     S
O193   S209    1.504   .     D
O194   S209    1.498   .     D
O195   S209    1.673   .     S
O196   S210    1.502   .     D
O197   S210    1.501   .     D
O199   S210    1.673   .     S
O206   S207    1.504   .     D
C211   C229    1.454   .     S
C211   O257    1.310   .     A
C211   O271    1.306   .     A
C212   C228    1.398   .     A
C212   H240    1.079   .     S
C212   C284    1.382   .     S
C213   H241    1.083   .     S
C213   C228    1.403   .     A
C213   C306    1.386   .     S
C214   H242    1.079   .     S
C214   C229    1.398   .     A
C214   C352    1.382   1_455 S
C215   C219    1.389   .     A
C215   H239    1.083   .     S
C215   C226    1.404   .     A
C216   C220    1.391   .     A
C216   H247    1.083   .     S
C216   C227    1.404   .     A
C217   C221    1.389   .     A
C217   H248    1.083   .     S
C217   C227    1.404   .     A
C218   C223    1.391   .     A
C218   H249    1.083   .     S
C218   C226    1.404   .     A
C219   C224    1.401   .     A
C219   H250    1.081   .     S
C220   H251    1.083   .     S
C220   C225    1.402   .     A
C221   C225    1.401   .     A
C221   H252    1.081   .     S
C222   O268    1.306   .     A
C222   O270    1.310   .     A
C222   C228    1.454   .     S
C223   C224    1.402   .     A
C223   H253    1.083   .     S
C224   C230    1.462   .     S
C225   C231    1.462   .     S
C226   C857    1.472   1_554 S
C227   C856    1.472   .     S
C229   C236    1.403   .     A
C230   O272    1.310   .     A
C230   O275    1.310   .     A
C231   O273    1.310   .     A
C231   O274    1.310   .     A
C232   S277    1.850   .     S
C232   N256    1.397   .     A
C233   S278    1.842   .     S
C233   N255    1.397   .     A
C233   C444    1.464   .     S
C234   N256    1.397   .     A
C234   S279    1.850   .     S
C235   N255    1.397   .     A
C235   S280    1.842   .     S
C235   C442    1.464   .     S
C236   H254    1.083   .     S
C236   C353    1.386   1_455 S
Cu237  O257    1.967   .     S
Cu237  N255    2.049   .     S
Cu237  O272    1.958   .     S
Cu237  O270    1.967   .     S
Cu237  O274    1.958   .     S
Cu237  Cu238   2.727   .     S
Cu238  O268    1.967   .     S
Cu238  O271    1.967   .     S
Cu238  O275    1.958   .     S
Cu238  N256    2.049   .     S
Cu238  O273    1.958   .     S
H243   O259    0.991   .     S
H244   O262    0.991   .     S
H245   O265    0.991   .     S
H246   O269    0.991   .     S
O258   S277    1.498   .     D
O259   S277    1.673   .     S
O260   S278    1.502   .     D
O261   S278    1.501   .     D
O262   S278    1.673   .     S
O263   S279    1.504   .     D
O264   S279    1.498   .     D
O265   S279    1.673   .     S
O266   S280    1.502   .     D
O267   S280    1.501   .     D
O269   S280    1.673   .     S
O276   S277    1.504   .     D
C281   C299    1.454   .     S
C281   O327    1.310   .     A
C281   O341    1.306   .     A
C282   C298    1.398   .     A
C282   H310    1.079   .     S
C282   C354    1.382   .     S
C283   H311    1.083   .     S
C283   C298    1.403   .     A
C283   C376    1.386   .     S
C284   H312    1.079   .     S
C284   C299    1.398   .     A
C285   C289    1.389   .     A
C285   H309    1.083   .     S
C285   C296    1.404   .     A
C286   C290    1.391   .     A
C286   H317    1.083   .     S
C286   C297    1.404   .     A
C287   C291    1.389   .     A
C287   H318    1.083   .     S
C287   C297    1.404   .     A
C288   C293    1.391   .     A
C288   H319    1.083   .     S
C288   C296    1.404   .     A
C289   C294    1.401   .     A
C289   H320    1.081   .     S
C290   H321    1.083   .     S
C290   C295    1.402   .     A
C291   C295    1.401   .     A
C291   H322    1.081   .     S
C292   O338    1.306   .     A
C292   O340    1.310   .     A
C292   C298    1.454   .     S
C293   C294    1.402   .     A
C293   H323    1.083   .     S
C294   C300    1.462   .     S
C295   C301    1.462   .     S
C296   C927    1.472   1_554 S
C297   C926    1.472   .     S
C299   C306    1.403   .     A
C300   O342    1.310   .     A
C300   O345    1.310   .     A
C301   O343    1.310   .     A
C301   O344    1.310   .     A
C302   S347    1.850   .     S
C302   N326    1.397   .     A
C303   S348    1.842   .     S
C303   N325    1.397   .     A
C303   C514    1.464   .     S
C304   N326    1.397   .     A
C304   S349    1.850   .     S
C305   N325    1.397   .     A
C305   S350    1.842   .     S
C305   C512    1.464   .     S
C306   H324    1.083   .     S
Cu307  O327    1.967   .     S
Cu307  N325    2.049   .     S
Cu307  O342    1.958   .     S
Cu307  O340    1.967   .     S
Cu307  O344    1.958   .     S
Cu307  Cu308   2.727   .     S
Cu308  O338    1.967   .     S
Cu308  O341    1.967   .     S
Cu308  O345    1.958   .     S
Cu308  N326    2.049   .     S
Cu308  O343    1.958   .     S
H313   O329    0.991   .     S
H314   O332    0.991   .     S
H315   O335    0.991   .     S
H316   O339    0.991   .     S
O328   S347    1.498   .     D
O329   S347    1.673   .     S
O330   S348    1.502   .     D
O331   S348    1.501   .     D
O332   S348    1.673   .     S
O333   S349    1.504   .     D
O334   S349    1.498   .     D
O335   S349    1.673   .     S
O336   S350    1.502   .     D
O337   S350    1.501   .     D
O339   S350    1.673   .     S
O346   S347    1.504   .     D
C351   C369    1.454   .     S
C351   O397    1.310   .     A
C351   O411    1.306   .     A
C352   C368    1.398   .     A
C352   H380    1.079   .     S
C352   C214    1.382   1_655 S
C353   H381    1.083   .     S
C353   C368    1.403   .     A
C353   C236    1.386   1_655 S
C354   H382    1.079   .     S
C354   C369    1.398   .     A
C355   C359    1.389   .     A
C355   H379    1.083   .     S
C355   C366    1.404   .     A
C356   C360    1.391   .     A
C356   H387    1.083   .     S
C356   C367    1.404   .     A
C357   C361    1.389   .     A
C357   H388    1.083   .     S
C357   C367    1.404   .     A
C358   C363    1.391   .     A
C358   H389    1.083   .     S
C358   C366    1.404   .     A
C359   C364    1.401   .     A
C359   H390    1.081   .     S
C360   H391    1.083   .     S
C360   C365    1.402   .     A
C361   C365    1.401   .     A
C361   H392    1.081   .     S
C362   O408    1.306   .     A
C362   O410    1.310   .     A
C362   C368    1.454   .     S
C363   C364    1.402   .     A
C363   H393    1.083   .     S
C364   C370    1.462   .     S
C365   C371    1.462   .     S
C366   C997    1.472   1_554 S
C367   C996    1.472   .     S
C369   C376    1.403   .     A
C370   O412    1.310   .     A
C370   O415    1.310   .     A
C371   O413    1.310   .     A
C371   O414    1.310   .     A
C372   S417    1.850   .     S
C372   N396    1.397   .     A
C373   S418    1.842   .     S
C373   N395    1.397   .     A
C373   C584    1.464   .     S
C374   N396    1.397   .     A
C374   S419    1.850   .     S
C375   N395    1.397   .     A
C375   S420    1.842   .     S
C375   C582    1.464   .     S
C376   H394    1.083   .     S
Cu377  O397    1.967   .     S
Cu377  N395    2.049   .     S
Cu377  O412    1.958   .     S
Cu377  O410    1.967   .     S
Cu377  O414    1.958   .     S
Cu377  Cu378   2.727   .     S
Cu378  O408    1.967   .     S
Cu378  O411    1.967   .     S
Cu378  O415    1.958   .     S
Cu378  N396    2.049   .     S
Cu378  O413    1.958   .     S
H383   O399    0.991   .     S
H384   O402    0.991   .     S
H385   O405    0.991   .     S
H386   O409    0.991   .     S
O398   S417    1.498   .     D
O399   S417    1.673   .     S
O400   S418    1.502   .     D
O401   S418    1.501   .     D
O402   S418    1.673   .     S
O403   S419    1.504   .     D
O404   S419    1.498   .     D
O405   S419    1.673   .     S
O406   S420    1.502   .     D
O407   S420    1.501   .     D
O409   S420    1.673   .     S
O416   S417    1.504   .     D
C421   C439    1.454   .     S
C421   O467    1.310   .     A
C421   O481    1.306   .     A
C422   C438    1.398   .     A
C422   H450    1.079   .     S
C422   C494    1.382   .     S
C423   H451    1.083   .     S
C423   C438    1.403   .     A
C423   C516    1.386   .     S
C424   H452    1.079   .     S
C424   C439    1.398   .     A
C424   C562    1.382   1_455 S
C425   C429    1.389   .     A
C425   H449    1.083   .     S
C425   C436    1.404   .     A
C426   C430    1.391   .     A
C426   H457    1.083   .     S
C426   C437    1.404   .     A
C427   C431    1.389   .     A
C427   H458    1.083   .     S
C427   C437    1.404   .     A
C428   C433    1.391   .     A
C428   H459    1.083   .     S
C428   C436    1.404   .     A
C429   C434    1.401   .     A
C429   H460    1.081   .     S
C430   H461    1.083   .     S
C430   C435    1.402   .     A
C431   C435    1.401   .     A
C431   H462    1.081   .     S
C432   O478    1.306   .     A
C432   O480    1.310   .     A
C432   C438    1.454   .     S
C433   C434    1.402   .     A
C433   H463    1.083   .     S
C434   C440    1.462   .     S
C435   C441    1.462   .     S
C436   C1067   1.472   1_554 S
C437   C1066   1.472   .     S
C439   C446    1.403   .     A
C440   O482    1.310   .     A
C440   O485    1.310   .     A
C441   O483    1.310   .     A
C441   O484    1.310   .     A
C442   S487    1.850   .     S
C442   N466    1.397   .     A
C443   S488    1.842   .     S
C443   N465    1.397   .     A
C443   C24     1.464   1_565 S
C444   N466    1.397   .     A
C444   S489    1.850   .     S
C445   N465    1.397   .     A
C445   S490    1.842   .     S
C445   C22     1.464   1_565 S
C446   H464    1.083   .     S
C446   C563    1.386   1_455 S
Cu447  O467    1.967   .     S
Cu447  N465    2.049   .     S
Cu447  O482    1.958   .     S
Cu447  O480    1.967   .     S
Cu447  O484    1.958   .     S
Cu447  Cu448   2.727   .     S
Cu448  O478    1.967   .     S
Cu448  O481    1.967   .     S
Cu448  O485    1.958   .     S
Cu448  N466    2.049   .     S
Cu448  O483    1.958   .     S
H453   O469    0.991   .     S
H454   O472    0.991   .     S
H455   O475    0.991   .     S
H456   O479    0.991   .     S
O468   S487    1.498   .     D
O469   S487    1.673   .     S
O470   S488    1.502   .     D
O471   S488    1.501   .     D
O472   S488    1.673   .     S
O473   S489    1.504   .     D
O474   S489    1.498   .     D
O475   S489    1.673   .     S
O476   S490    1.502   .     D
O477   S490    1.501   .     D
O479   S490    1.673   .     S
O486   S487    1.504   .     D
C491   C509    1.454   .     S
C491   O537    1.310   .     A
C491   O551    1.306   .     A
C492   C508    1.398   .     A
C492   H520    1.079   .     S
C492   C564    1.382   .     S
C493   H521    1.083   .     S
C493   C508    1.403   .     A
C493   C586    1.386   .     S
C494   H522    1.079   .     S
C494   C509    1.398   .     A
C495   C499    1.389   .     A
C495   H519    1.083   .     S
C495   C506    1.404   .     A
C496   C500    1.391   .     A
C496   H527    1.083   .     S
C496   C507    1.404   .     A
C497   C501    1.389   .     A
C497   H528    1.083   .     S
C497   C507    1.404   .     A
C498   C503    1.391   .     A
C498   H529    1.083   .     S
C498   C506    1.404   .     A
C499   C504    1.401   .     A
C499   H530    1.081   .     S
C500   H531    1.083   .     S
C500   C505    1.402   .     A
C501   C505    1.401   .     A
C501   H532    1.081   .     S
C502   O548    1.306   .     A
C502   O550    1.310   .     A
C502   C508    1.454   .     S
C503   C504    1.402   .     A
C503   H533    1.083   .     S
C504   C510    1.462   .     S
C505   C511    1.462   .     S
C506   C1137   1.472   1_554 S
C507   C1136   1.472   .     S
C509   C516    1.403   .     A
C510   O552    1.310   .     A
C510   O555    1.310   .     A
C511   O553    1.310   .     A
C511   O554    1.310   .     A
C512   S557    1.850   .     S
C512   N536    1.397   .     A
C513   S558    1.842   .     S
C513   N535    1.397   .     A
C513   C94     1.464   1_565 S
C514   N536    1.397   .     A
C514   S559    1.850   .     S
C515   N535    1.397   .     A
C515   S560    1.842   .     S
C515   C92     1.464   1_565 S
C516   H534    1.083   .     S
Cu517  O537    1.967   .     S
Cu517  N535    2.049   .     S
Cu517  O552    1.958   .     S
Cu517  O550    1.967   .     S
Cu517  O554    1.958   .     S
Cu517  Cu518   2.727   .     S
Cu518  O548    1.967   .     S
Cu518  O551    1.967   .     S
Cu518  O555    1.958   .     S
Cu518  N536    2.049   .     S
Cu518  O553    1.958   .     S
H523   O539    0.991   .     S
H524   O542    0.991   .     S
H525   O545    0.991   .     S
H526   O549    0.991   .     S
O538   S557    1.498   .     D
O539   S557    1.673   .     S
O540   S558    1.502   .     D
O541   S558    1.501   .     D
O542   S558    1.673   .     S
O543   S559    1.504   .     D
O544   S559    1.498   .     D
O545   S559    1.673   .     S
O546   S560    1.502   .     D
O547   S560    1.501   .     D
O549   S560    1.673   .     S
O556   S557    1.504   .     D
C561   C579    1.454   .     S
C561   O607    1.310   .     A
C561   O621    1.306   .     A
C562   C578    1.398   .     A
C562   H590    1.079   .     S
C562   C424    1.382   1_655 S
C563   H591    1.083   .     S
C563   C578    1.403   .     A
C563   C446    1.386   1_655 S
C564   H592    1.079   .     S
C564   C579    1.398   .     A
C565   C569    1.389   .     A
C565   H589    1.083   .     S
C565   C576    1.404   .     A
C566   C570    1.391   .     A
C566   H597    1.083   .     S
C566   C577    1.404   .     A
C567   C571    1.389   .     A
C567   H598    1.083   .     S
C567   C577    1.404   .     A
C568   C573    1.391   .     A
C568   H599    1.083   .     S
C568   C576    1.404   .     A
C569   C574    1.401   .     A
C569   H600    1.081   .     S
C570   H601    1.083   .     S
C570   C575    1.402   .     A
C571   C575    1.401   .     A
C571   H602    1.081   .     S
C572   O618    1.306   .     A
C572   O620    1.310   .     A
C572   C578    1.454   .     S
C573   C574    1.402   .     A
C573   H603    1.083   .     S
C574   C580    1.462   .     S
C575   C581    1.462   .     S
C576   C1207   1.472   1_554 S
C577   C1206   1.472   .     S
C579   C586    1.403   .     A
C580   O622    1.310   .     A
C580   O625    1.310   .     A
C581   O623    1.310   .     A
C581   O624    1.310   .     A
C582   S627    1.850   .     S
C582   N606    1.397   .     A
C583   S628    1.842   .     S
C583   N605    1.397   .     A
C583   C164    1.464   1_565 S
C584   N606    1.397   .     A
C584   S629    1.850   .     S
C585   N605    1.397   .     A
C585   S630    1.842   .     S
C585   C162    1.464   1_565 S
C586   H604    1.083   .     S
Cu587  O607    1.967   .     S
Cu587  N605    2.049   .     S
Cu587  O622    1.958   .     S
Cu587  O620    1.967   .     S
Cu587  O624    1.958   .     S
Cu587  Cu588   2.727   .     S
Cu588  O618    1.967   .     S
Cu588  O621    1.967   .     S
Cu588  O625    1.958   .     S
Cu588  N606    2.049   .     S
Cu588  O623    1.958   .     S
H593   O609    0.991   .     S
H594   O612    0.991   .     S
H595   O615    0.991   .     S
H596   O619    0.991   .     S
O608   S627    1.498   .     D
O609   S627    1.673   .     S
O610   S628    1.502   .     D
O611   S628    1.501   .     D
O612   S628    1.673   .     S
O613   S629    1.504   .     D
O614   S629    1.498   .     D
O615   S629    1.673   .     S
O616   S630    1.502   .     D
O617   S630    1.501   .     D
O619   S630    1.673   .     S
O626   S627    1.504   .     D
C631   C649    1.454   .     S
C631   O677    1.310   .     A
C631   O691    1.306   .     A
C632   C648    1.398   .     A
C632   H660    1.079   .     S
C632   C704    1.382   .     S
C633   H661    1.083   .     S
C633   C648    1.403   .     A
C633   C726    1.386   .     S
C634   H662    1.079   .     S
C634   C649    1.398   .     A
C634   C772    1.382   1_455 S
C635   C639    1.389   .     A
C635   H659    1.083   .     S
C635   C646    1.404   .     A
C636   C640    1.391   .     A
C636   H667    1.083   .     S
C636   C647    1.404   .     A
C637   C641    1.389   .     A
C637   H668    1.083   .     S
C637   C647    1.404   .     A
C638   C643    1.391   .     A
C638   H669    1.083   .     S
C638   C646    1.404   .     A
C639   C644    1.401   .     A
C639   H670    1.081   .     S
C640   H671    1.083   .     S
C640   C645    1.402   .     A
C641   C645    1.401   .     A
C641   H672    1.081   .     S
C642   O688    1.306   .     A
C642   O690    1.310   .     A
C642   C648    1.454   .     S
C643   C644    1.402   .     A
C643   H673    1.083   .     S
C644   C650    1.462   .     S
C645   C651    1.462   .     S
C647   C16     1.472   1_556 S
C649   C656    1.403   .     A
C650   O692    1.310   .     A
C650   O695    1.310   .     A
C651   O693    1.310   .     A
C651   O694    1.310   .     A
C652   S697    1.850   .     S
C652   N676    1.397   .     A
C652   C1075   1.464   1_545 S
C653   S698    1.842   .     S
C653   N675    1.397   .     A
C653   C864    1.464   .     S
C654   N676    1.397   .     A
C654   S699    1.850   .     S
C654   C1073   1.464   1_545 S
C655   N675    1.397   .     A
C655   S700    1.842   .     S
C655   C862    1.464   .     S
C656   H674    1.083   .     S
C656   C773    1.386   1_455 S
Cu657  O677    1.967   .     S
Cu657  N675    2.049   .     S
Cu657  O692    1.958   .     S
Cu657  O690    1.967   .     S
Cu657  O694    1.958   .     S
Cu657  Cu658   2.727   .     S
Cu658  O688    1.967   .     S
Cu658  O691    1.967   .     S
Cu658  O695    1.958   .     S
Cu658  N676    2.049   .     S
Cu658  O693    1.958   .     S
H663   O679    0.991   .     S
H664   O682    0.991   .     S
H665   O685    0.991   .     S
H666   O689    0.991   .     S
O678   S697    1.498   .     D
O679   S697    1.673   .     S
O680   S698    1.502   .     D
O681   S698    1.501   .     D
O682   S698    1.673   .     S
O683   S699    1.504   .     D
O684   S699    1.498   .     D
O685   S699    1.673   .     S
O686   S700    1.502   .     D
O687   S700    1.501   .     D
O689   S700    1.673   .     S
O696   S697    1.504   .     D
C701   C719    1.454   .     S
C701   O747    1.310   .     A
C701   O761    1.306   .     A
C702   C718    1.398   .     A
C702   H730    1.079   .     S
C702   C774    1.382   .     S
C703   H731    1.083   .     S
C703   C718    1.403   .     A
C703   C796    1.386   .     S
C704   H732    1.079   .     S
C704   C719    1.398   .     A
C705   C709    1.389   .     A
C705   H729    1.083   .     S
C705   C716    1.404   .     A
C706   C710    1.391   .     A
C706   H737    1.083   .     S
C706   C717    1.404   .     A
C707   C711    1.389   .     A
C707   H738    1.083   .     S
C707   C717    1.404   .     A
C708   C713    1.391   .     A
C708   H739    1.083   .     S
C708   C716    1.404   .     A
C709   C714    1.401   .     A
C709   H740    1.081   .     S
C710   H741    1.083   .     S
C710   C715    1.402   .     A
C711   C715    1.401   .     A
C711   H742    1.081   .     S
C712   O758    1.306   .     A
C712   O760    1.310   .     A
C712   C718    1.454   .     S
C713   C714    1.402   .     A
C713   H743    1.083   .     S
C714   C720    1.462   .     S
C715   C721    1.462   .     S
C717   C86     1.472   1_556 S
C719   C726    1.403   .     A
C720   O762    1.310   .     A
C720   O765    1.310   .     A
C721   O763    1.310   .     A
C721   O764    1.310   .     A
C722   S767    1.850   .     S
C722   N746    1.397   .     A
C722   C1145   1.464   1_545 S
C723   S768    1.842   .     S
C723   N745    1.397   .     A
C723   C934    1.464   .     S
C724   N746    1.397   .     A
C724   S769    1.850   .     S
C724   C1143   1.464   1_545 S
C725   N745    1.397   .     A
C725   S770    1.842   .     S
C725   C932    1.464   .     S
C726   H744    1.083   .     S
Cu727  O747    1.967   .     S
Cu727  N745    2.049   .     S
Cu727  O762    1.958   .     S
Cu727  O760    1.967   .     S
Cu727  O764    1.958   .     S
Cu727  Cu728   2.727   .     S
Cu728  O758    1.967   .     S
Cu728  O761    1.967   .     S
Cu728  O765    1.958   .     S
Cu728  N746    2.049   .     S
Cu728  O763    1.958   .     S
H733   O749    0.991   .     S
H734   O752    0.991   .     S
H735   O755    0.991   .     S
H736   O759    0.991   .     S
O748   S767    1.498   .     D
O749   S767    1.673   .     S
O750   S768    1.502   .     D
O751   S768    1.501   .     D
O752   S768    1.673   .     S
O753   S769    1.504   .     D
O754   S769    1.498   .     D
O755   S769    1.673   .     S
O756   S770    1.502   .     D
O757   S770    1.501   .     D
O759   S770    1.673   .     S
O766   S767    1.504   .     D
C771   C789    1.454   .     S
C771   O817    1.310   .     A
C771   O831    1.306   .     A
C772   C788    1.398   .     A
C772   H800    1.079   .     S
C772   C634    1.382   1_655 S
C773   H801    1.083   .     S
C773   C788    1.403   .     A
C773   C656    1.386   1_655 S
C774   H802    1.079   .     S
C774   C789    1.398   .     A
C775   C779    1.389   .     A
C775   H799    1.083   .     S
C775   C786    1.404   .     A
C776   C780    1.391   .     A
C776   H807    1.083   .     S
C776   C787    1.404   .     A
C777   C781    1.389   .     A
C777   H808    1.083   .     S
C777   C787    1.404   .     A
C778   C783    1.391   .     A
C778   H809    1.083   .     S
C778   C786    1.404   .     A
C779   C784    1.401   .     A
C779   H810    1.081   .     S
C780   H811    1.083   .     S
C780   C785    1.402   .     A
C781   C785    1.401   .     A
C781   H812    1.081   .     S
C782   O828    1.306   .     A
C782   O830    1.310   .     A
C782   C788    1.454   .     S
C783   C784    1.402   .     A
C783   H813    1.083   .     S
C784   C790    1.462   .     S
C785   C791    1.462   .     S
C787   C156    1.472   1_556 S
C789   C796    1.403   .     A
C790   O832    1.310   .     A
C790   O835    1.310   .     A
C791   O833    1.310   .     A
C791   O834    1.310   .     A
C792   S837    1.850   .     S
C792   N816    1.397   .     A
C792   C1215   1.464   1_545 S
C793   S838    1.842   .     S
C793   N815    1.397   .     A
C793   C1004   1.464   .     S
C794   N816    1.397   .     A
C794   S839    1.850   .     S
C794   C1213   1.464   1_545 S
C795   N815    1.397   .     A
C795   S840    1.842   .     S
C795   C1002   1.464   .     S
C796   H814    1.083   .     S
Cu797  O817    1.967   .     S
Cu797  N815    2.049   .     S
Cu797  O832    1.958   .     S
Cu797  O830    1.967   .     S
Cu797  O834    1.958   .     S
Cu797  Cu798   2.727   .     S
Cu798  O828    1.967   .     S
Cu798  O831    1.967   .     S
Cu798  O835    1.958   .     S
Cu798  N816    2.049   .     S
Cu798  O833    1.958   .     S
H803   O819    0.991   .     S
H804   O822    0.991   .     S
H805   O825    0.991   .     S
H806   O829    0.991   .     S
O818   S837    1.498   .     D
O819   S837    1.673   .     S
O820   S838    1.502   .     D
O821   S838    1.501   .     D
O822   S838    1.673   .     S
O823   S839    1.504   .     D
O824   S839    1.498   .     D
O825   S839    1.673   .     S
O826   S840    1.502   .     D
O827   S840    1.501   .     D
O829   S840    1.673   .     S
O836   S837    1.504   .     D
C841   C859    1.454   .     S
C841   O887    1.310   .     A
C841   O901    1.306   .     A
C842   C858    1.398   .     A
C842   H870    1.079   .     S
C842   C914    1.382   .     S
C843   H871    1.083   .     S
C843   C858    1.403   .     A
C843   C936    1.386   .     S
C844   H872    1.079   .     S
C844   C859    1.398   .     A
C844   C982    1.382   1_455 S
C845   C849    1.389   .     A
C845   H869    1.083   .     S
C845   C856    1.404   .     A
C846   C850    1.391   .     A
C846   H877    1.083   .     S
C846   C857    1.404   .     A
C847   C851    1.389   .     A
C847   H878    1.083   .     S
C847   C857    1.404   .     A
C848   C853    1.391   .     A
C848   H879    1.083   .     S
C848   C856    1.404   .     A
C849   C854    1.401   .     A
C849   H880    1.081   .     S
C850   H881    1.083   .     S
C850   C855    1.402   .     A
C851   C855    1.401   .     A
C851   H882    1.081   .     S
C852   O898    1.306   .     A
C852   O900    1.310   .     A
C852   C858    1.454   .     S
C853   C854    1.402   .     A
C853   H883    1.083   .     S
C854   C860    1.462   .     S
C855   C861    1.462   .     S
C857   C226    1.472   1_556 S
C859   C866    1.403   .     A
C860   O902    1.310   .     A
C860   O905    1.310   .     A
C861   O903    1.310   .     A
C861   O904    1.310   .     A
C862   S907    1.850   .     S
C862   N886    1.397   .     A
C863   S908    1.842   .     S
C863   N885    1.397   .     A
C863   C1074   1.464   .     S
C864   N886    1.397   .     A
C864   S909    1.850   .     S
C865   N885    1.397   .     A
C865   S910    1.842   .     S
C865   C1072   1.464   .     S
C866   H884    1.083   .     S
C866   C983    1.386   1_455 S
Cu867  O887    1.967   .     S
Cu867  N885    2.049   .     S
Cu867  O902    1.958   .     S
Cu867  O900    1.967   .     S
Cu867  O904    1.958   .     S
Cu867  Cu868   2.727   .     S
Cu868  O898    1.967   .     S
Cu868  O901    1.967   .     S
Cu868  O905    1.958   .     S
Cu868  N886    2.049   .     S
Cu868  O903    1.958   .     S
H873   O889    0.991   .     S
H874   O892    0.991   .     S
H875   O895    0.991   .     S
H876   O899    0.991   .     S
O888   S907    1.498   .     D
O889   S907    1.673   .     S
O890   S908    1.502   .     D
O891   S908    1.501   .     D
O892   S908    1.673   .     S
O893   S909    1.504   .     D
O894   S909    1.498   .     D
O895   S909    1.673   .     S
O896   S910    1.502   .     D
O897   S910    1.501   .     D
O899   S910    1.673   .     S
O906   S907    1.504   .     D
C911   C929    1.454   .     S
C911   O957    1.310   .     A
C911   O971    1.306   .     A
C912   C928    1.398   .     A
C912   H940    1.079   .     S
C912   C984    1.382   .     S
C913   H941    1.083   .     S
C913   C928    1.403   .     A
C913   C1006   1.386   .     S
C914   H942    1.079   .     S
C914   C929    1.398   .     A
C915   C919    1.389   .     A
C915   H939    1.083   .     S
C915   C926    1.404   .     A
C916   C920    1.391   .     A
C916   H947    1.083   .     S
C916   C927    1.404   .     A
C917   C921    1.389   .     A
C917   H948    1.083   .     S
C917   C927    1.404   .     A
C918   C923    1.391   .     A
C918   H949    1.083   .     S
C918   C926    1.404   .     A
C919   C924    1.401   .     A
C919   H950    1.081   .     S
C920   H951    1.083   .     S
C920   C925    1.402   .     A
C921   C925    1.401   .     A
C921   H952    1.081   .     S
C922   O968    1.306   .     A
C922   O970    1.310   .     A
C922   C928    1.454   .     S
C923   C924    1.402   .     A
C923   H953    1.083   .     S
C924   C930    1.462   .     S
C925   C931    1.462   .     S
C927   C296    1.472   1_556 S
C929   C936    1.403   .     A
C930   O972    1.310   .     A
C930   O975    1.310   .     A
C931   O973    1.310   .     A
C931   O974    1.310   .     A
C932   S977    1.850   .     S
C932   N956    1.397   .     A
C933   S978    1.842   .     S
C933   N955    1.397   .     A
C933   C1144   1.464   .     S
C934   N956    1.397   .     A
C934   S979    1.850   .     S
C935   N955    1.397   .     A
C935   S980    1.842   .     S
C935   C1142   1.464   .     S
C936   H954    1.083   .     S
Cu937  O957    1.967   .     S
Cu937  N955    2.049   .     S
Cu937  O972    1.958   .     S
Cu937  O970    1.967   .     S
Cu937  O974    1.958   .     S
Cu937  Cu938   2.727   .     S
Cu938  O968    1.967   .     S
Cu938  O971    1.967   .     S
Cu938  O975    1.958   .     S
Cu938  N956    2.049   .     S
Cu938  O973    1.958   .     S
H943   O959    0.991   .     S
H944   O962    0.991   .     S
H945   O965    0.991   .     S
H946   O969    0.991   .     S
O958   S977    1.498   .     D
O959   S977    1.673   .     S
O960   S978    1.502   .     D
O961   S978    1.501   .     D
O962   S978    1.673   .     S
O963   S979    1.504   .     D
O964   S979    1.498   .     D
O965   S979    1.673   .     S
O966   S980    1.502   .     D
O967   S980    1.501   .     D
O969   S980    1.673   .     S
O976   S977    1.504   .     D
C981   C999    1.454   .     S
C981   O1027   1.310   .     A
C981   O1041   1.306   .     A
C982   C998    1.398   .     A
C982   H1010   1.079   .     S
C982   C844    1.382   1_655 S
C983   H1011   1.083   .     S
C983   C998    1.403   .     A
C983   C866    1.386   1_655 S
C984   H1012   1.079   .     S
C984   C999    1.398   .     A
C985   C989    1.389   .     A
C985   H1009   1.083   .     S
C985   C996    1.404   .     A
C986   C990    1.391   .     A
C986   H1017   1.083   .     S
C986   C997    1.404   .     A
C987   C991    1.389   .     A
C987   H1018   1.083   .     S
C987   C997    1.404   .     A
C988   C993    1.391   .     A
C988   H1019   1.083   .     S
C988   C996    1.404   .     A
C989   C994    1.401   .     A
C989   H1020   1.081   .     S
C990   H1021   1.083   .     S
C990   C995    1.402   .     A
C991   C995    1.401   .     A
C991   H1022   1.081   .     S
C992   O1038   1.306   .     A
C992   O1040   1.310   .     A
C992   C998    1.454   .     S
C993   C994    1.402   .     A
C993   H1023   1.083   .     S
C994   C1000   1.462   .     S
C995   C1001   1.462   .     S
C997   C366    1.472   1_556 S
C999   C1006   1.403   .     A
C1000  O1042   1.310   .     A
C1000  O1045   1.310   .     A
C1001  O1043   1.310   .     A
C1001  O1044   1.310   .     A
C1002  S1047   1.850   .     S
C1002  N1026   1.397   .     A
C1003  S1048   1.842   .     S
C1003  N1025   1.397   .     A
C1003  C1214   1.464   .     S
C1004  N1026   1.397   .     A
C1004  S1049   1.850   .     S
C1005  N1025   1.397   .     A
C1005  S1050   1.842   .     S
C1005  C1212   1.464   .     S
C1006  H1024   1.083   .     S
Cu1007 O1027   1.967   .     S
Cu1007 N1025   2.049   .     S
Cu1007 O1042   1.958   .     S
Cu1007 O1040   1.967   .     S
Cu1007 O1044   1.958   .     S
Cu1007 Cu1008  2.727   .     S
Cu1008 O1038   1.967   .     S
Cu1008 O1041   1.967   .     S
Cu1008 O1045   1.958   .     S
Cu1008 N1026   2.049   .     S
Cu1008 O1043   1.958   .     S
H1013  O1029   0.991   .     S
H1014  O1032   0.991   .     S
H1015  O1035   0.991   .     S
H1016  O1039   0.991   .     S
O1028  S1047   1.498   .     D
O1029  S1047   1.673   .     S
O1030  S1048   1.502   .     D
O1031  S1048   1.501   .     D
O1032  S1048   1.673   .     S
O1033  S1049   1.504   .     D
O1034  S1049   1.498   .     D
O1035  S1049   1.673   .     S
O1036  S1050   1.502   .     D
O1037  S1050   1.501   .     D
O1039  S1050   1.673   .     S
O1046  S1047   1.504   .     D
C1051  C1069   1.454   .     S
C1051  O1097   1.310   .     A
C1051  O1111   1.306   .     A
C1052  C1068   1.398   .     A
C1052  H1080   1.079   .     S
C1052  C1124   1.382   .     S
C1053  H1081   1.083   .     S
C1053  C1068   1.403   .     A
C1053  C1146   1.386   .     S
C1054  H1082   1.079   .     S
C1054  C1069   1.398   .     A
C1054  C1192   1.382   1_455 S
C1055  C1059   1.389   .     A
C1055  H1079   1.083   .     S
C1055  C1066   1.404   .     A
C1056  C1060   1.391   .     A
C1056  H1087   1.083   .     S
C1056  C1067   1.404   .     A
C1057  C1061   1.389   .     A
C1057  H1088   1.083   .     S
C1057  C1067   1.404   .     A
C1058  C1063   1.391   .     A
C1058  H1089   1.083   .     S
C1058  C1066   1.404   .     A
C1059  C1064   1.401   .     A
C1059  H1090   1.081   .     S
C1060  H1091   1.083   .     S
C1060  C1065   1.402   .     A
C1061  C1065   1.401   .     A
C1061  H1092   1.081   .     S
C1062  O1108   1.306   .     A
C1062  O1110   1.310   .     A
C1062  C1068   1.454   .     S
C1063  C1064   1.402   .     A
C1063  H1093   1.083   .     S
C1064  C1070   1.462   .     S
C1065  C1071   1.462   .     S
C1067  C436    1.472   1_556 S
C1069  C1076   1.403   .     A
C1070  O1112   1.310   .     A
C1070  O1115   1.310   .     A
C1071  O1113   1.310   .     A
C1071  O1114   1.310   .     A
C1072  S1117   1.850   .     S
C1072  N1096   1.397   .     A
C1073  S1118   1.842   .     S
C1073  N1095   1.397   .     A
C1073  C654    1.464   1_565 S
C1074  N1096   1.397   .     A
C1074  S1119   1.850   .     S
C1075  N1095   1.397   .     A
C1075  S1120   1.842   .     S
C1075  C652    1.464   1_565 S
C1076  H1094   1.083   .     S
C1076  C1193   1.386   1_455 S
Cu1077 O1097   1.967   .     S
Cu1077 N1095   2.049   .     S
Cu1077 O1112   1.958   .     S
Cu1077 O1110   1.967   .     S
Cu1077 O1114   1.958   .     S
Cu1077 Cu1078  2.727   .     S
Cu1078 O1108   1.967   .     S
Cu1078 O1111   1.967   .     S
Cu1078 O1115   1.958   .     S
Cu1078 N1096   2.049   .     S
Cu1078 O1113   1.958   .     S
H1083  O1099   0.991   .     S
H1084  O1102   0.991   .     S
H1085  O1105   0.991   .     S
H1086  O1109   0.991   .     S
O1098  S1117   1.498   .     D
O1099  S1117   1.673   .     S
O1100  S1118   1.502   .     D
O1101  S1118   1.501   .     D
O1102  S1118   1.673   .     S
O1103  S1119   1.504   .     D
O1104  S1119   1.498   .     D
O1105  S1119   1.673   .     S
O1106  S1120   1.502   .     D
O1107  S1120   1.501   .     D
O1109  S1120   1.673   .     S
O1116  S1117   1.504   .     D
C1121  C1139   1.454   .     S
C1121  O1167   1.310   .     A
C1121  O1181   1.306   .     A
C1122  C1138   1.398   .     A
C1122  H1150   1.079   .     S
C1122  C1194   1.382   .     S
C1123  H1151   1.083   .     S
C1123  C1138   1.403   .     A
C1123  C1216   1.386   .     S
C1124  H1152   1.079   .     S
C1124  C1139   1.398   .     A
C1125  C1129   1.389   .     A
C1125  H1149   1.083   .     S
C1125  C1136   1.404   .     A
C1126  C1130   1.391   .     A
C1126  H1157   1.083   .     S
C1126  C1137   1.404   .     A
C1127  C1131   1.389   .     A
C1127  H1158   1.083   .     S
C1127  C1137   1.404   .     A
C1128  C1133   1.391   .     A
C1128  H1159   1.083   .     S
C1128  C1136   1.404   .     A
C1129  C1134   1.401   .     A
C1129  H1160   1.081   .     S
C1130  H1161   1.083   .     S
C1130  C1135   1.402   .     A
C1131  C1135   1.401   .     A
C1131  H1162   1.081   .     S
C1132  O1178   1.306   .     A
C1132  O1180   1.310   .     A
C1132  C1138   1.454   .     S
C1133  C1134   1.402   .     A
C1133  H1163   1.083   .     S
C1134  C1140   1.462   .     S
C1135  C1141   1.462   .     S
C1137  C506    1.472   1_556 S
C1139  C1146   1.403   .     A
C1140  O1182   1.310   .     A
C1140  O1185   1.310   .     A
C1141  O1183   1.310   .     A
C1141  O1184   1.310   .     A
C1142  S1187   1.850   .     S
C1142  N1166   1.397   .     A
C1143  S1188   1.842   .     S
C1143  N1165   1.397   .     A
C1143  C724    1.464   1_565 S
C1144  N1166   1.397   .     A
C1144  S1189   1.850   .     S
C1145  N1165   1.397   .     A
C1145  S1190   1.842   .     S
C1145  C722    1.464   1_565 S
C1146  H1164   1.083   .     S
Cu1147 O1167   1.967   .     S
Cu1147 N1165   2.049   .     S
Cu1147 O1182   1.958   .     S
Cu1147 O1180   1.967   .     S
Cu1147 O1184   1.958   .     S
Cu1147 Cu1148  2.727   .     S
Cu1148 O1178   1.967   .     S
Cu1148 O1181   1.967   .     S
Cu1148 O1185   1.958   .     S
Cu1148 N1166   2.049   .     S
Cu1148 O1183   1.958   .     S
H1153  O1169   0.991   .     S
H1154  O1172   0.991   .     S
H1155  O1175   0.991   .     S
H1156  O1179   0.991   .     S
O1168  S1187   1.498   .     D
O1169  S1187   1.673   .     S
O1170  S1188   1.502   .     D
O1171  S1188   1.501   .     D
O1172  S1188   1.673   .     S
O1173  S1189   1.504   .     D
O1174  S1189   1.498   .     D
O1175  S1189   1.673   .     S
O1176  S1190   1.502   .     D
O1177  S1190   1.501   .     D
O1179  S1190   1.673   .     S
O1186  S1187   1.504   .     D
C1191  C1209   1.454   .     S
C1191  O1237   1.310   .     A
C1191  O1251   1.306   .     A
C1192  C1208   1.398   .     A
C1192  H1220   1.079   .     S
C1192  C1054   1.382   1_655 S
C1193  H1221   1.083   .     S
C1193  C1208   1.403   .     A
C1193  C1076   1.386   1_655 S
C1194  H1222   1.079   .     S
C1194  C1209   1.398   .     A
C1195  C1199   1.389   .     A
C1195  H1219   1.083   .     S
C1195  C1206   1.404   .     A
C1196  C1200   1.391   .     A
C1196  H1227   1.083   .     S
C1196  C1207   1.404   .     A
C1197  C1201   1.389   .     A
C1197  H1228   1.083   .     S
C1197  C1207   1.404   .     A
C1198  C1203   1.391   .     A
C1198  H1229   1.083   .     S
C1198  C1206   1.404   .     A
C1199  C1204   1.401   .     A
C1199  H1230   1.081   .     S
C1200  H1231   1.083   .     S
C1200  C1205   1.402   .     A
C1201  C1205   1.401   .     A
C1201  H1232   1.081   .     S
C1202  O1248   1.306   .     A
C1202  O1250   1.310   .     A
C1202  C1208   1.454   .     S
C1203  C1204   1.402   .     A
C1203  H1233   1.083   .     S
C1204  C1210   1.462   .     S
C1205  C1211   1.462   .     S
C1207  C576    1.472   1_556 S
C1209  C1216   1.403   .     A
C1210  O1252   1.310   .     A
C1210  O1255   1.310   .     A
C1211  O1253   1.310   .     A
C1211  O1254   1.310   .     A
C1212  S1257   1.850   .     S
C1212  N1236   1.397   .     A
C1213  S1258   1.842   .     S
C1213  N1235   1.397   .     A
C1213  C794    1.464   1_565 S
C1214  N1236   1.397   .     A
C1214  S1259   1.850   .     S
C1215  N1235   1.397   .     A
C1215  S1260   1.842   .     S
C1215  C792    1.464   1_565 S
C1216  H1234   1.083   .     S
Cu1217 O1237   1.967   .     S
Cu1217 N1235   2.049   .     S
Cu1217 O1252   1.958   .     S
Cu1217 O1250   1.967   .     S
Cu1217 O1254   1.958   .     S
Cu1217 Cu1218  2.727   .     S
Cu1218 O1248   1.967   .     S
Cu1218 O1251   1.967   .     S
Cu1218 O1255   1.958   .     S
Cu1218 N1236   2.049   .     S
Cu1218 O1253   1.958   .     S
H1223  O1239   0.991   .     S
H1224  O1242   0.991   .     S
H1225  O1245   0.991   .     S
H1226  O1249   0.991   .     S
O1238  S1257   1.498   .     D
O1239  S1257   1.673   .     S
O1240  S1258   1.502   .     D
O1241  S1258   1.501   .     D
O1242  S1258   1.673   .     S
O1243  S1259   1.504   .     D
O1244  S1259   1.498   .     D
O1245  S1259   1.673   .     S
O1246  S1260   1.502   .     D
O1247  S1260   1.501   .     D
O1249  S1260   1.673   .     S
O1256  S1257   1.504   .     D
