data_str_m2_o1_o2_pcu_sym.56
_audit_creation_date              2020-01-03
_audit_creation_method            'Materials Studio'
_symmetry_space_group_name_H-M    'P1'
_symmetry_Int_Tables_number       1
_symmetry_cell_setting            triclinic
loop_
_symmetry_equiv_pos_as_xyz
  x,y,z
_cell_length_a                    32.4991
_cell_length_b                    28.5043
_cell_length_c                    30.3780
_cell_angle_alpha                 89.7031
_cell_angle_beta                  90.2866
_cell_angle_gamma                 90.0252
loop_
_atom_site_label
_atom_site_type_symbol
_atom_site_fract_x
_atom_site_fract_y
_atom_site_fract_z
_atom_site_U_iso_or_equiv
_atom_site_adp_type
_atom_site_occupancy
C1     C     0.08734   0.16666   0.24997   0.00000  Uiso   1.00
C2     C     0.31207   0.20930   0.25058   0.00000  Uiso   1.00
C3     C     0.31202   0.12404   0.24934   0.00000  Uiso   1.00
C4     C     0.02130   0.20929   0.25056   0.00000  Uiso   1.00
C5     C     0.16214   0.20920   0.04662   0.00000  Uiso   1.00
C6     C     0.19312   0.13645   0.45214   0.00000  Uiso   1.00
C7     C     0.14146   0.19763   0.45159   0.00000  Uiso   1.00
C8     C     0.17384   0.12544   0.04707   0.00000  Uiso   1.00
C9     C     0.16205   0.20965   0.09257   0.00000  Uiso   1.00
C10    C     0.19145   0.13407   0.40624   0.00000  Uiso   1.00
C11    C     0.14235   0.19902   0.40564   0.00000  Uiso   1.00
C12    C     0.24599   0.16667   0.25000   0.00000  Uiso   1.00
C13    C     0.17524   0.12523   0.09290   0.00000  Uiso   1.00
C14    C     0.16782   0.16720   0.11625   0.00000  Uiso   1.00
C15    C     0.16678   0.16642   0.38292   0.00000  Uiso   1.00
C16    C     0.16783   0.16731   0.02362   0.00000  Uiso   1.00
C17    C     0.16743   0.16717   0.47512   0.00000  Uiso   1.00
C18    C     0.29060   0.16667   0.24997   0.00000  Uiso   1.00
C19    C     0.04273   0.16666   0.24995   0.00000  Uiso   1.00
C20    C     0.18678   0.28111   0.11278   0.00000  Uiso   1.00
C21    C     0.20441   0.05713   0.39168   0.00000  Uiso   1.00
C22    C     0.13049   0.27544   0.38743   0.00000  Uiso   1.00
C23    C     0.16688   0.16681   0.16480   0.00000  Uiso   1.00
C24    C     0.22491   0.07583   0.11750   0.00000  Uiso   1.00
C25    C     0.16674   0.16656   0.33490   0.00000  Uiso   1.00
C26    C     0.13902   0.02495   0.22493   0.00000  Uiso   1.00
C27    C     0.19440   0.30840   0.27496   0.00000  Uiso   1.00
C28    C     0.19452   0.02471   0.27477   0.00000  Uiso   1.00
C29    C     0.13904   0.30863   0.22491   0.00000  Uiso   1.00
C30    C     0.02126   0.12403   0.24932   0.00000  Uiso   1.00
Cu31   Cu    0.16667   0.21355   0.25000   0.00000  Uiso   1.00
Cu32   Cu    0.16667   0.11978   0.25000   0.00000  Uiso   1.00
H33    H     0.11695   0.04379   0.20479   0.00000  Uiso   1.00
H34    H     0.29607   0.24262   0.25109   0.00000  Uiso   1.00
H35    H     0.29599   0.09071   0.24884   0.00000  Uiso   1.00
H36    H     0.03733   0.24261   0.25106   0.00000  Uiso   1.00
H37    H     0.21489   0.26387   0.12638   0.00000  Uiso   1.00
H38    H     0.18013   0.31194   0.13368   0.00000  Uiso   1.00
H39    H     0.19249   0.29426   0.07884   0.00000  Uiso   1.00
H40    H     0.22443   0.03323   0.37268   0.00000  Uiso   1.00
H41    H     0.17214   0.05154   0.38038   0.00000  Uiso   1.00
H42    H     0.20777   0.04697   0.42689   0.00000  Uiso   1.00
H43    H     0.11247   0.29841   0.36493   0.00000  Uiso   1.00
H44    H     0.21657   0.28958   0.29499   0.00000  Uiso   1.00
H45    H     0.16347   0.27895   0.37810   0.00000  Uiso   1.00
H46    H     0.12569   0.28829   0.42151   0.00000  Uiso   1.00
H47    H     0.23069   0.04388   0.13756   0.00000  Uiso   1.00
H48    H     0.24071   0.10552   0.13430   0.00000  Uiso   1.00
H49    H     0.23843   0.07002   0.08439   0.00000  Uiso   1.00
H50    H     0.21699   0.04341   0.29427   0.00000  Uiso   1.00
H51    H     0.11700   0.28998   0.20473   0.00000  Uiso   1.00
H52    H     0.15754   0.24194   0.02906   0.00000  Uiso   1.00
H53    H     0.21487   0.11443   0.46971   0.00000  Uiso   1.00
H54    H     0.12016   0.22024   0.46867   0.00000  Uiso   1.00
H55    H     0.17731   0.09242   0.03002   0.00000  Uiso   1.00
H56    H     0.03725   0.09071   0.24881   0.00000  Uiso   1.00
N57    N     0.16667   0.28402   0.25000   0.00000  Uiso   1.00
N58    N     0.16667   0.04931   0.25000   0.00000  Uiso   1.00
O59    O     0.10655   0.20625   0.25000   0.00000  Uiso   1.00
O60    O     0.21721   0.10378   0.38389   0.00000  Uiso   1.00
O61    O     0.11631   0.22892   0.38267   0.00000  Uiso   1.00
O62    O     0.18206   0.08314   0.11455   0.00000  Uiso   1.00
O63    O     0.22679   0.12709   0.25001   0.00000  Uiso   1.00
O64    O     0.22679   0.20625   0.25001   0.00000  Uiso   1.00
O65    O     0.10655   0.12709   0.25000   0.00000  Uiso   1.00
O66    O     0.16666   0.20626   0.18573   0.00000  Uiso   1.00
O67    O     0.16667   0.12707   0.31427   0.00000  Uiso   1.00
O68    O     0.16667   0.20626   0.31427   0.00000  Uiso   1.00
O69    O     0.16666   0.12707   0.18573   0.00000  Uiso   1.00
O70    O     0.15244   0.25088   0.11406   0.00000  Uiso   1.00
C71    C     0.42067   0.16666   0.24997   0.00000  Uiso   1.00
C72    C     0.64540   0.20930   0.25058   0.00000  Uiso   1.00
C73    C     0.64535   0.12404   0.24934   0.00000  Uiso   1.00
C74    C     0.35463   0.20929   0.25056   0.00000  Uiso   1.00
C75    C     0.49548   0.20920   0.04662   0.00000  Uiso   1.00
C76    C     0.52645   0.13645   0.45214   0.00000  Uiso   1.00
C77    C     0.47479   0.19763   0.45159   0.00000  Uiso   1.00
C78    C     0.50717   0.12544   0.04707   0.00000  Uiso   1.00
C79    C     0.49539   0.20965   0.09257   0.00000  Uiso   1.00
C80    C     0.52478   0.13407   0.40624   0.00000  Uiso   1.00
C81    C     0.47568   0.19902   0.40564   0.00000  Uiso   1.00
C82    C     0.57933   0.16667   0.25000   0.00000  Uiso   1.00
C83    C     0.50858   0.12523   0.09290   0.00000  Uiso   1.00
C84    C     0.50115   0.16720   0.11625   0.00000  Uiso   1.00
C85    C     0.50011   0.16642   0.38292   0.00000  Uiso   1.00
C86    C     0.50116   0.16731   0.02362   0.00000  Uiso   1.00
C87    C     0.50077   0.16717   0.47512   0.00000  Uiso   1.00
C88    C     0.62393   0.16667   0.24997   0.00000  Uiso   1.00
C89    C     0.37606   0.16666   0.24995   0.00000  Uiso   1.00
C90    C     0.52011   0.28111   0.11278   0.00000  Uiso   1.00
C91    C     0.53775   0.05713   0.39168   0.00000  Uiso   1.00
C92    C     0.46382   0.27544   0.38743   0.00000  Uiso   1.00
C93    C     0.50021   0.16681   0.16480   0.00000  Uiso   1.00
C94    C     0.55825   0.07583   0.11750   0.00000  Uiso   1.00
C95    C     0.50008   0.16656   0.33490   0.00000  Uiso   1.00
C96    C     0.47236   0.02495   0.22493   0.00000  Uiso   1.00
C97    C     0.52773   0.30840   0.27496   0.00000  Uiso   1.00
C98    C     0.52785   0.02471   0.27477   0.00000  Uiso   1.00
C99    C     0.47237   0.30863   0.22491   0.00000  Uiso   1.00
C100   C     0.35459   0.12403   0.24932   0.00000  Uiso   1.00
Cu101  Cu    0.50000   0.21355   0.25000   0.00000  Uiso   1.00
Cu102  Cu    0.50000   0.11978   0.25000   0.00000  Uiso   1.00
H103   H     0.45028   0.04379   0.20479   0.00000  Uiso   1.00
H104   H     0.62940   0.24262   0.25109   0.00000  Uiso   1.00
H105   H     0.62932   0.09071   0.24884   0.00000  Uiso   1.00
H106   H     0.37067   0.24261   0.25106   0.00000  Uiso   1.00
H107   H     0.54822   0.26387   0.12638   0.00000  Uiso   1.00
H108   H     0.51346   0.31194   0.13368   0.00000  Uiso   1.00
H109   H     0.52582   0.29426   0.07884   0.00000  Uiso   1.00
H110   H     0.55776   0.03323   0.37268   0.00000  Uiso   1.00
H111   H     0.50548   0.05154   0.38038   0.00000  Uiso   1.00
H112   H     0.54111   0.04697   0.42689   0.00000  Uiso   1.00
H113   H     0.44580   0.29841   0.36493   0.00000  Uiso   1.00
H114   H     0.54990   0.28958   0.29499   0.00000  Uiso   1.00
H115   H     0.49680   0.27895   0.37810   0.00000  Uiso   1.00
H116   H     0.45902   0.28829   0.42151   0.00000  Uiso   1.00
H117   H     0.56403   0.04388   0.13756   0.00000  Uiso   1.00
H118   H     0.57404   0.10552   0.13430   0.00000  Uiso   1.00
H119   H     0.57177   0.07002   0.08439   0.00000  Uiso   1.00
H120   H     0.55033   0.04341   0.29427   0.00000  Uiso   1.00
H121   H     0.45033   0.28998   0.20473   0.00000  Uiso   1.00
H122   H     0.49087   0.24194   0.02906   0.00000  Uiso   1.00
H123   H     0.54820   0.11443   0.46971   0.00000  Uiso   1.00
H124   H     0.45349   0.22024   0.46867   0.00000  Uiso   1.00
H125   H     0.51064   0.09242   0.03002   0.00000  Uiso   1.00
H126   H     0.37059   0.09071   0.24881   0.00000  Uiso   1.00
N127   N     0.50000   0.28402   0.25000   0.00000  Uiso   1.00
N128   N     0.50000   0.04931   0.25000   0.00000  Uiso   1.00
O129   O     0.43988   0.20625   0.25000   0.00000  Uiso   1.00
O130   O     0.55054   0.10378   0.38389   0.00000  Uiso   1.00
O131   O     0.44964   0.22892   0.38267   0.00000  Uiso   1.00
O132   O     0.51539   0.08314   0.11455   0.00000  Uiso   1.00
O133   O     0.56012   0.12709   0.25001   0.00000  Uiso   1.00
O134   O     0.56012   0.20625   0.25001   0.00000  Uiso   1.00
O135   O     0.43988   0.12709   0.25000   0.00000  Uiso   1.00
O136   O     0.50000   0.20626   0.18573   0.00000  Uiso   1.00
O137   O     0.50000   0.12707   0.31427   0.00000  Uiso   1.00
O138   O     0.50000   0.20626   0.31427   0.00000  Uiso   1.00
O139   O     0.50000   0.12707   0.18573   0.00000  Uiso   1.00
O140   O     0.48577   0.25088   0.11406   0.00000  Uiso   1.00
C141   C     0.75400   0.16666   0.24997   0.00000  Uiso   1.00
C142   C     0.97873   0.20930   0.25058   0.00000  Uiso   1.00
C143   C     0.97869   0.12404   0.24934   0.00000  Uiso   1.00
C144   C     0.68797   0.20929   0.25056   0.00000  Uiso   1.00
C145   C     0.82881   0.20920   0.04662   0.00000  Uiso   1.00
C146   C     0.85978   0.13645   0.45214   0.00000  Uiso   1.00
C147   C     0.80812   0.19763   0.45159   0.00000  Uiso   1.00
C148   C     0.84051   0.12544   0.04707   0.00000  Uiso   1.00
C149   C     0.82872   0.20965   0.09257   0.00000  Uiso   1.00
C150   C     0.85812   0.13407   0.40624   0.00000  Uiso   1.00
C151   C     0.80901   0.19902   0.40564   0.00000  Uiso   1.00
C152   C     0.91266   0.16667   0.25000   0.00000  Uiso   1.00
C153   C     0.84191   0.12523   0.09290   0.00000  Uiso   1.00
C154   C     0.83448   0.16720   0.11625   0.00000  Uiso   1.00
C155   C     0.83344   0.16642   0.38292   0.00000  Uiso   1.00
C156   C     0.83450   0.16731   0.02362   0.00000  Uiso   1.00
C157   C     0.83410   0.16717   0.47512   0.00000  Uiso   1.00
C158   C     0.95726   0.16667   0.24997   0.00000  Uiso   1.00
C159   C     0.70939   0.16666   0.24995   0.00000  Uiso   1.00
C160   C     0.85345   0.28111   0.11278   0.00000  Uiso   1.00
C161   C     0.87108   0.05713   0.39168   0.00000  Uiso   1.00
C162   C     0.79716   0.27544   0.38743   0.00000  Uiso   1.00
C163   C     0.83355   0.16681   0.16480   0.00000  Uiso   1.00
C164   C     0.89158   0.07583   0.11750   0.00000  Uiso   1.00
C165   C     0.83341   0.16656   0.33490   0.00000  Uiso   1.00
C166   C     0.80569   0.02495   0.22493   0.00000  Uiso   1.00
C167   C     0.86106   0.30840   0.27496   0.00000  Uiso   1.00
C168   C     0.86118   0.02471   0.27477   0.00000  Uiso   1.00
C169   C     0.80571   0.30863   0.22491   0.00000  Uiso   1.00
C170   C     0.68792   0.12403   0.24932   0.00000  Uiso   1.00
Cu171  Cu    0.83333   0.21355   0.25000   0.00000  Uiso   1.00
Cu172  Cu    0.83333   0.11978   0.25000   0.00000  Uiso   1.00
H173   H     0.78362   0.04379   0.20479   0.00000  Uiso   1.00
H174   H     0.96273   0.24262   0.25109   0.00000  Uiso   1.00
H175   H     0.96265   0.09071   0.24884   0.00000  Uiso   1.00
H176   H     0.70400   0.24261   0.25106   0.00000  Uiso   1.00
H177   H     0.88155   0.26387   0.12638   0.00000  Uiso   1.00
H178   H     0.84680   0.31194   0.13368   0.00000  Uiso   1.00
H179   H     0.85916   0.29426   0.07884   0.00000  Uiso   1.00
H180   H     0.89109   0.03323   0.37268   0.00000  Uiso   1.00
H181   H     0.83881   0.05154   0.38038   0.00000  Uiso   1.00
H182   H     0.87444   0.04697   0.42689   0.00000  Uiso   1.00
H183   H     0.77914   0.29841   0.36493   0.00000  Uiso   1.00
H184   H     0.88323   0.28958   0.29499   0.00000  Uiso   1.00
H185   H     0.83014   0.27895   0.37810   0.00000  Uiso   1.00
H186   H     0.79235   0.28829   0.42151   0.00000  Uiso   1.00
H187   H     0.89736   0.04388   0.13756   0.00000  Uiso   1.00
H188   H     0.90737   0.10552   0.13430   0.00000  Uiso   1.00
H189   H     0.90510   0.07002   0.08439   0.00000  Uiso   1.00
H190   H     0.88366   0.04341   0.29427   0.00000  Uiso   1.00
H191   H     0.78366   0.28998   0.20473   0.00000  Uiso   1.00
H192   H     0.82421   0.24194   0.02906   0.00000  Uiso   1.00
H193   H     0.88153   0.11443   0.46971   0.00000  Uiso   1.00
H194   H     0.78682   0.22024   0.46867   0.00000  Uiso   1.00
H195   H     0.84398   0.09242   0.03002   0.00000  Uiso   1.00
H196   H     0.70392   0.09071   0.24881   0.00000  Uiso   1.00
N197   N     0.83333   0.28402   0.25000   0.00000  Uiso   1.00
N198   N     0.83333   0.04931   0.25000   0.00000  Uiso   1.00
O199   O     0.77321   0.20625   0.25000   0.00000  Uiso   1.00
O200   O     0.88387   0.10378   0.38389   0.00000  Uiso   1.00
O201   O     0.78297   0.22892   0.38267   0.00000  Uiso   1.00
O202   O     0.84872   0.08314   0.11455   0.00000  Uiso   1.00
O203   O     0.89345   0.12709   0.25001   0.00000  Uiso   1.00
O204   O     0.89345   0.20625   0.25001   0.00000  Uiso   1.00
O205   O     0.77321   0.12709   0.25000   0.00000  Uiso   1.00
O206   O     0.83333   0.20626   0.18573   0.00000  Uiso   1.00
O207   O     0.83334   0.12707   0.31427   0.00000  Uiso   1.00
O208   O     0.83334   0.20626   0.31427   0.00000  Uiso   1.00
O209   O     0.83333   0.12707   0.18573   0.00000  Uiso   1.00
O210   O     0.81910   0.25088   0.11406   0.00000  Uiso   1.00
C211   C     0.08734   0.49999   0.24997   0.00000  Uiso   1.00
C212   C     0.31207   0.54263   0.25058   0.00000  Uiso   1.00
C213   C     0.31202   0.45737   0.24934   0.00000  Uiso   1.00
C214   C     0.02130   0.54262   0.25056   0.00000  Uiso   1.00
C215   C     0.16214   0.54254   0.04662   0.00000  Uiso   1.00
C216   C     0.19312   0.46979   0.45214   0.00000  Uiso   1.00
C217   C     0.14146   0.53096   0.45159   0.00000  Uiso   1.00
C218   C     0.17384   0.45878   0.04707   0.00000  Uiso   1.00
C219   C     0.16205   0.54298   0.09257   0.00000  Uiso   1.00
C220   C     0.19145   0.46740   0.40624   0.00000  Uiso   1.00
C221   C     0.14235   0.53235   0.40564   0.00000  Uiso   1.00
C222   C     0.24599   0.50000   0.25000   0.00000  Uiso   1.00
C223   C     0.17524   0.45856   0.09290   0.00000  Uiso   1.00
C224   C     0.16782   0.50053   0.11625   0.00000  Uiso   1.00
C225   C     0.16678   0.49975   0.38292   0.00000  Uiso   1.00
C226   C     0.16783   0.50064   0.02362   0.00000  Uiso   1.00
C227   C     0.16743   0.50050   0.47512   0.00000  Uiso   1.00
C228   C     0.29060   0.50000   0.24997   0.00000  Uiso   1.00
C229   C     0.04273   0.49999   0.24995   0.00000  Uiso   1.00
C230   C     0.18678   0.61444   0.11278   0.00000  Uiso   1.00
C231   C     0.20441   0.39046   0.39168   0.00000  Uiso   1.00
C232   C     0.13049   0.60877   0.38743   0.00000  Uiso   1.00
C233   C     0.16688   0.50014   0.16480   0.00000  Uiso   1.00
C234   C     0.22491   0.40917   0.11750   0.00000  Uiso   1.00
C235   C     0.16674   0.49989   0.33490   0.00000  Uiso   1.00
C236   C     0.13902   0.35828   0.22493   0.00000  Uiso   1.00
C237   C     0.19440   0.64173   0.27496   0.00000  Uiso   1.00
C238   C     0.19452   0.35804   0.27477   0.00000  Uiso   1.00
C239   C     0.13904   0.64196   0.22491   0.00000  Uiso   1.00
C240   C     0.02126   0.45736   0.24932   0.00000  Uiso   1.00
Cu241  Cu    0.16667   0.54689   0.25000   0.00000  Uiso   1.00
Cu242  Cu    0.16667   0.45311   0.25000   0.00000  Uiso   1.00
H243   H     0.11695   0.37712   0.20479   0.00000  Uiso   1.00
H244   H     0.29607   0.57595   0.25109   0.00000  Uiso   1.00
H245   H     0.29599   0.42405   0.24884   0.00000  Uiso   1.00
H246   H     0.03733   0.57595   0.25106   0.00000  Uiso   1.00
H247   H     0.21489   0.59720   0.12638   0.00000  Uiso   1.00
H248   H     0.18013   0.64527   0.13368   0.00000  Uiso   1.00
H249   H     0.19249   0.62759   0.07884   0.00000  Uiso   1.00
H250   H     0.22443   0.36656   0.37268   0.00000  Uiso   1.00
H251   H     0.17214   0.38487   0.38038   0.00000  Uiso   1.00
H252   H     0.20777   0.38030   0.42689   0.00000  Uiso   1.00
H253   H     0.11247   0.63175   0.36493   0.00000  Uiso   1.00
H254   H     0.21657   0.62291   0.29499   0.00000  Uiso   1.00
H255   H     0.16347   0.61229   0.37810   0.00000  Uiso   1.00
H256   H     0.12569   0.62162   0.42151   0.00000  Uiso   1.00
H257   H     0.23069   0.37721   0.13756   0.00000  Uiso   1.00
H258   H     0.24071   0.43886   0.13430   0.00000  Uiso   1.00
H259   H     0.23843   0.40335   0.08439   0.00000  Uiso   1.00
H260   H     0.21699   0.37675   0.29427   0.00000  Uiso   1.00
H261   H     0.11700   0.62331   0.20473   0.00000  Uiso   1.00
H262   H     0.15754   0.57527   0.02906   0.00000  Uiso   1.00
H263   H     0.21487   0.44776   0.46971   0.00000  Uiso   1.00
H264   H     0.12016   0.55357   0.46867   0.00000  Uiso   1.00
H265   H     0.17731   0.42576   0.03002   0.00000  Uiso   1.00
H266   H     0.03725   0.42404   0.24881   0.00000  Uiso   1.00
N267   N     0.16667   0.61736   0.25000   0.00000  Uiso   1.00
N268   N     0.16667   0.38264   0.25000   0.00000  Uiso   1.00
O269   O     0.10655   0.53958   0.25000   0.00000  Uiso   1.00
O270   O     0.21721   0.43711   0.38389   0.00000  Uiso   1.00
O271   O     0.11631   0.56225   0.38267   0.00000  Uiso   1.00
O272   O     0.18206   0.41647   0.11455   0.00000  Uiso   1.00
O273   O     0.22679   0.46042   0.25001   0.00000  Uiso   1.00
O274   O     0.22679   0.53958   0.25001   0.00000  Uiso   1.00
O275   O     0.10655   0.46042   0.25000   0.00000  Uiso   1.00
O276   O     0.16666   0.53959   0.18573   0.00000  Uiso   1.00
O277   O     0.16667   0.46041   0.31427   0.00000  Uiso   1.00
O278   O     0.16667   0.53959   0.31427   0.00000  Uiso   1.00
O279   O     0.16666   0.46041   0.18573   0.00000  Uiso   1.00
O280   O     0.15244   0.58421   0.11406   0.00000  Uiso   1.00
C281   C     0.42067   0.49999   0.24997   0.00000  Uiso   1.00
C282   C     0.64540   0.54263   0.25058   0.00000  Uiso   1.00
C283   C     0.64535   0.45737   0.24934   0.00000  Uiso   1.00
C284   C     0.35463   0.54262   0.25056   0.00000  Uiso   1.00
C285   C     0.49548   0.54254   0.04662   0.00000  Uiso   1.00
C286   C     0.52645   0.46979   0.45214   0.00000  Uiso   1.00
C287   C     0.47479   0.53096   0.45159   0.00000  Uiso   1.00
C288   C     0.50717   0.45878   0.04707   0.00000  Uiso   1.00
C289   C     0.49539   0.54298   0.09257   0.00000  Uiso   1.00
C290   C     0.52478   0.46740   0.40624   0.00000  Uiso   1.00
C291   C     0.47568   0.53235   0.40564   0.00000  Uiso   1.00
C292   C     0.57933   0.50000   0.25000   0.00000  Uiso   1.00
C293   C     0.50858   0.45856   0.09290   0.00000  Uiso   1.00
C294   C     0.50115   0.50053   0.11625   0.00000  Uiso   1.00
C295   C     0.50011   0.49975   0.38292   0.00000  Uiso   1.00
C296   C     0.50116   0.50064   0.02362   0.00000  Uiso   1.00
C297   C     0.50077   0.50050   0.47512   0.00000  Uiso   1.00
C298   C     0.62393   0.50000   0.24997   0.00000  Uiso   1.00
C299   C     0.37606   0.49999   0.24995   0.00000  Uiso   1.00
C300   C     0.52011   0.61444   0.11278   0.00000  Uiso   1.00
C301   C     0.53775   0.39046   0.39168   0.00000  Uiso   1.00
C302   C     0.46382   0.60877   0.38743   0.00000  Uiso   1.00
C303   C     0.50021   0.50014   0.16480   0.00000  Uiso   1.00
C304   C     0.55825   0.40917   0.11750   0.00000  Uiso   1.00
C305   C     0.50008   0.49989   0.33490   0.00000  Uiso   1.00
C306   C     0.47236   0.35828   0.22493   0.00000  Uiso   1.00
C307   C     0.52773   0.64173   0.27496   0.00000  Uiso   1.00
C308   C     0.52785   0.35804   0.27477   0.00000  Uiso   1.00
C309   C     0.47237   0.64196   0.22491   0.00000  Uiso   1.00
C310   C     0.35459   0.45736   0.24932   0.00000  Uiso   1.00
Cu311  Cu    0.50000   0.54689   0.25000   0.00000  Uiso   1.00
Cu312  Cu    0.50000   0.45311   0.25000   0.00000  Uiso   1.00
H313   H     0.45028   0.37712   0.20479   0.00000  Uiso   1.00
H314   H     0.62940   0.57595   0.25109   0.00000  Uiso   1.00
H315   H     0.62932   0.42405   0.24884   0.00000  Uiso   1.00
H316   H     0.37067   0.57595   0.25106   0.00000  Uiso   1.00
H317   H     0.54822   0.59720   0.12638   0.00000  Uiso   1.00
H318   H     0.51346   0.64527   0.13368   0.00000  Uiso   1.00
H319   H     0.52582   0.62759   0.07884   0.00000  Uiso   1.00
H320   H     0.55776   0.36656   0.37268   0.00000  Uiso   1.00
H321   H     0.50548   0.38487   0.38038   0.00000  Uiso   1.00
H322   H     0.54111   0.38030   0.42689   0.00000  Uiso   1.00
H323   H     0.44580   0.63175   0.36493   0.00000  Uiso   1.00
H324   H     0.54990   0.62291   0.29499   0.00000  Uiso   1.00
H325   H     0.49680   0.61229   0.37810   0.00000  Uiso   1.00
H326   H     0.45902   0.62162   0.42151   0.00000  Uiso   1.00
H327   H     0.56403   0.37721   0.13756   0.00000  Uiso   1.00
H328   H     0.57404   0.43886   0.13430   0.00000  Uiso   1.00
H329   H     0.57177   0.40335   0.08439   0.00000  Uiso   1.00
H330   H     0.55033   0.37675   0.29427   0.00000  Uiso   1.00
H331   H     0.45033   0.62331   0.20473   0.00000  Uiso   1.00
H332   H     0.49087   0.57527   0.02906   0.00000  Uiso   1.00
H333   H     0.54820   0.44776   0.46971   0.00000  Uiso   1.00
H334   H     0.45349   0.55357   0.46867   0.00000  Uiso   1.00
H335   H     0.51064   0.42576   0.03002   0.00000  Uiso   1.00
H336   H     0.37059   0.42404   0.24881   0.00000  Uiso   1.00
N337   N     0.50000   0.61736   0.25000   0.00000  Uiso   1.00
N338   N     0.50000   0.38264   0.25000   0.00000  Uiso   1.00
O339   O     0.43988   0.53958   0.25000   0.00000  Uiso   1.00
O340   O     0.55054   0.43711   0.38389   0.00000  Uiso   1.00
O341   O     0.44964   0.56225   0.38267   0.00000  Uiso   1.00
O342   O     0.51539   0.41647   0.11455   0.00000  Uiso   1.00
O343   O     0.56012   0.46042   0.25001   0.00000  Uiso   1.00
O344   O     0.56012   0.53958   0.25001   0.00000  Uiso   1.00
O345   O     0.43988   0.46042   0.25000   0.00000  Uiso   1.00
O346   O     0.50000   0.53959   0.18573   0.00000  Uiso   1.00
O347   O     0.50000   0.46041   0.31427   0.00000  Uiso   1.00
O348   O     0.50000   0.53959   0.31427   0.00000  Uiso   1.00
O349   O     0.50000   0.46041   0.18573   0.00000  Uiso   1.00
O350   O     0.48577   0.58421   0.11406   0.00000  Uiso   1.00
C351   C     0.75400   0.49999   0.24997   0.00000  Uiso   1.00
C352   C     0.97873   0.54263   0.25058   0.00000  Uiso   1.00
C353   C     0.97869   0.45737   0.24934   0.00000  Uiso   1.00
C354   C     0.68797   0.54262   0.25056   0.00000  Uiso   1.00
C355   C     0.82881   0.54254   0.04662   0.00000  Uiso   1.00
C356   C     0.85978   0.46979   0.45214   0.00000  Uiso   1.00
C357   C     0.80812   0.53096   0.45159   0.00000  Uiso   1.00
C358   C     0.84051   0.45878   0.04707   0.00000  Uiso   1.00
C359   C     0.82872   0.54298   0.09257   0.00000  Uiso   1.00
C360   C     0.85812   0.46740   0.40624   0.00000  Uiso   1.00
C361   C     0.80901   0.53235   0.40564   0.00000  Uiso   1.00
C362   C     0.91266   0.50000   0.25000   0.00000  Uiso   1.00
C363   C     0.84191   0.45856   0.09290   0.00000  Uiso   1.00
C364   C     0.83448   0.50053   0.11625   0.00000  Uiso   1.00
C365   C     0.83344   0.49975   0.38292   0.00000  Uiso   1.00
C366   C     0.83450   0.50064   0.02362   0.00000  Uiso   1.00
C367   C     0.83410   0.50050   0.47512   0.00000  Uiso   1.00
C368   C     0.95726   0.50000   0.24997   0.00000  Uiso   1.00
C369   C     0.70939   0.49999   0.24995   0.00000  Uiso   1.00
C370   C     0.85345   0.61444   0.11278   0.00000  Uiso   1.00
C371   C     0.87108   0.39046   0.39168   0.00000  Uiso   1.00
C372   C     0.79716   0.60877   0.38743   0.00000  Uiso   1.00
C373   C     0.83355   0.50014   0.16480   0.00000  Uiso   1.00
C374   C     0.89158   0.40917   0.11750   0.00000  Uiso   1.00
C375   C     0.83341   0.49989   0.33490   0.00000  Uiso   1.00
C376   C     0.80569   0.35828   0.22493   0.00000  Uiso   1.00
C377   C     0.86106   0.64173   0.27496   0.00000  Uiso   1.00
C378   C     0.86118   0.35804   0.27477   0.00000  Uiso   1.00
C379   C     0.80571   0.64196   0.22491   0.00000  Uiso   1.00
C380   C     0.68792   0.45736   0.24932   0.00000  Uiso   1.00
Cu381  Cu    0.83333   0.54689   0.25000   0.00000  Uiso   1.00
Cu382  Cu    0.83333   0.45311   0.25000   0.00000  Uiso   1.00
H383   H     0.78362   0.37712   0.20479   0.00000  Uiso   1.00
H384   H     0.96273   0.57595   0.25109   0.00000  Uiso   1.00
H385   H     0.96265   0.42405   0.24884   0.00000  Uiso   1.00
H386   H     0.70400   0.57595   0.25106   0.00000  Uiso   1.00
H387   H     0.88155   0.59720   0.12638   0.00000  Uiso   1.00
H388   H     0.84680   0.64527   0.13368   0.00000  Uiso   1.00
H389   H     0.85916   0.62759   0.07884   0.00000  Uiso   1.00
H390   H     0.89109   0.36656   0.37268   0.00000  Uiso   1.00
H391   H     0.83881   0.38487   0.38038   0.00000  Uiso   1.00
H392   H     0.87444   0.38030   0.42689   0.00000  Uiso   1.00
H393   H     0.77914   0.63175   0.36493   0.00000  Uiso   1.00
H394   H     0.88323   0.62291   0.29499   0.00000  Uiso   1.00
H395   H     0.83014   0.61229   0.37810   0.00000  Uiso   1.00
H396   H     0.79235   0.62162   0.42151   0.00000  Uiso   1.00
H397   H     0.89736   0.37721   0.13756   0.00000  Uiso   1.00
H398   H     0.90737   0.43886   0.13430   0.00000  Uiso   1.00
H399   H     0.90510   0.40335   0.08439   0.00000  Uiso   1.00
H400   H     0.88366   0.37675   0.29427   0.00000  Uiso   1.00
H401   H     0.78366   0.62331   0.20473   0.00000  Uiso   1.00
H402   H     0.82421   0.57527   0.02906   0.00000  Uiso   1.00
H403   H     0.88153   0.44776   0.46971   0.00000  Uiso   1.00
H404   H     0.78682   0.55357   0.46867   0.00000  Uiso   1.00
H405   H     0.84398   0.42576   0.03002   0.00000  Uiso   1.00
H406   H     0.70392   0.42404   0.24881   0.00000  Uiso   1.00
N407   N     0.83333   0.61736   0.25000   0.00000  Uiso   1.00
N408   N     0.83333   0.38264   0.25000   0.00000  Uiso   1.00
O409   O     0.77321   0.53958   0.25000   0.00000  Uiso   1.00
O410   O     0.88387   0.43711   0.38389   0.00000  Uiso   1.00
O411   O     0.78297   0.56225   0.38267   0.00000  Uiso   1.00
O412   O     0.84872   0.41647   0.11455   0.00000  Uiso   1.00
O413   O     0.89345   0.46042   0.25001   0.00000  Uiso   1.00
O414   O     0.89345   0.53958   0.25001   0.00000  Uiso   1.00
O415   O     0.77321   0.46042   0.25000   0.00000  Uiso   1.00
O416   O     0.83333   0.53959   0.18573   0.00000  Uiso   1.00
O417   O     0.83334   0.46041   0.31427   0.00000  Uiso   1.00
O418   O     0.83334   0.53959   0.31427   0.00000  Uiso   1.00
O419   O     0.83333   0.46041   0.18573   0.00000  Uiso   1.00
O420   O     0.81910   0.58421   0.11406   0.00000  Uiso   1.00
C421   C     0.08734   0.83333   0.24997   0.00000  Uiso   1.00
C422   C     0.31207   0.87596   0.25058   0.00000  Uiso   1.00
C423   C     0.31202   0.79070   0.24934   0.00000  Uiso   1.00
C424   C     0.02130   0.87596   0.25056   0.00000  Uiso   1.00
C425   C     0.16214   0.87587   0.04662   0.00000  Uiso   1.00
C426   C     0.19312   0.80312   0.45214   0.00000  Uiso   1.00
C427   C     0.14146   0.86430   0.45159   0.00000  Uiso   1.00
C428   C     0.17384   0.79211   0.04707   0.00000  Uiso   1.00
C429   C     0.16205   0.87632   0.09257   0.00000  Uiso   1.00
C430   C     0.19145   0.80074   0.40624   0.00000  Uiso   1.00
C431   C     0.14235   0.86569   0.40564   0.00000  Uiso   1.00
C432   C     0.24599   0.83334   0.25000   0.00000  Uiso   1.00
C433   C     0.17524   0.79189   0.09290   0.00000  Uiso   1.00
C434   C     0.16782   0.83387   0.11625   0.00000  Uiso   1.00
C435   C     0.16678   0.83308   0.38292   0.00000  Uiso   1.00
C436   C     0.16783   0.83397   0.02362   0.00000  Uiso   1.00
C437   C     0.16743   0.83384   0.47512   0.00000  Uiso   1.00
C438   C     0.29060   0.83334   0.24997   0.00000  Uiso   1.00
C439   C     0.04273   0.83332   0.24995   0.00000  Uiso   1.00
C440   C     0.18678   0.94778   0.11278   0.00000  Uiso   1.00
C441   C     0.20441   0.72380   0.39168   0.00000  Uiso   1.00
C442   C     0.13049   0.94211   0.38743   0.00000  Uiso   1.00
C443   C     0.16688   0.83348   0.16480   0.00000  Uiso   1.00
C444   C     0.22491   0.74250   0.11750   0.00000  Uiso   1.00
C445   C     0.16674   0.83323   0.33490   0.00000  Uiso   1.00
C446   C     0.13902   0.69161   0.22493   0.00000  Uiso   1.00
C447   C     0.19440   0.97507   0.27496   0.00000  Uiso   1.00
C448   C     0.19452   0.69138   0.27477   0.00000  Uiso   1.00
C449   C     0.13904   0.97530   0.22491   0.00000  Uiso   1.00
C450   C     0.02126   0.79070   0.24932   0.00000  Uiso   1.00
Cu451  Cu    0.16667   0.88022   0.25000   0.00000  Uiso   1.00
Cu452  Cu    0.16667   0.78645   0.25000   0.00000  Uiso   1.00
H453   H     0.11695   0.71045   0.20479   0.00000  Uiso   1.00
H454   H     0.29607   0.90929   0.25109   0.00000  Uiso   1.00
H455   H     0.29599   0.75738   0.24884   0.00000  Uiso   1.00
H456   H     0.03733   0.90928   0.25106   0.00000  Uiso   1.00
H457   H     0.21489   0.93053   0.12638   0.00000  Uiso   1.00
H458   H     0.18013   0.97860   0.13368   0.00000  Uiso   1.00
H459   H     0.19249   0.96092   0.07884   0.00000  Uiso   1.00
H460   H     0.22443   0.69989   0.37268   0.00000  Uiso   1.00
H461   H     0.17214   0.71821   0.38038   0.00000  Uiso   1.00
H462   H     0.20777   0.71364   0.42689   0.00000  Uiso   1.00
H463   H     0.11247   0.96508   0.36493   0.00000  Uiso   1.00
H464   H     0.21657   0.95624   0.29499   0.00000  Uiso   1.00
H465   H     0.16347   0.94562   0.37810   0.00000  Uiso   1.00
H466   H     0.12569   0.95496   0.42151   0.00000  Uiso   1.00
H467   H     0.23069   0.71055   0.13756   0.00000  Uiso   1.00
H468   H     0.24071   0.77219   0.13430   0.00000  Uiso   1.00
H469   H     0.23843   0.73669   0.08439   0.00000  Uiso   1.00
H470   H     0.21699   0.71008   0.29427   0.00000  Uiso   1.00
H471   H     0.11700   0.95665   0.20473   0.00000  Uiso   1.00
H472   H     0.15754   0.90860   0.02906   0.00000  Uiso   1.00
H473   H     0.21487   0.78110   0.46971   0.00000  Uiso   1.00
H474   H     0.12016   0.88691   0.46867   0.00000  Uiso   1.00
H475   H     0.17731   0.75909   0.03002   0.00000  Uiso   1.00
H476   H     0.03725   0.75737   0.24881   0.00000  Uiso   1.00
N477   N     0.16667   0.95069   0.25000   0.00000  Uiso   1.00
N478   N     0.16667   0.71598   0.25000   0.00000  Uiso   1.00
O479   O     0.10655   0.87291   0.25000   0.00000  Uiso   1.00
O480   O     0.21721   0.77045   0.38389   0.00000  Uiso   1.00
O481   O     0.11631   0.89558   0.38267   0.00000  Uiso   1.00
O482   O     0.18206   0.74980   0.11455   0.00000  Uiso   1.00
O483   O     0.22679   0.79375   0.25001   0.00000  Uiso   1.00
O484   O     0.22679   0.87291   0.25001   0.00000  Uiso   1.00
O485   O     0.10655   0.79375   0.25000   0.00000  Uiso   1.00
O486   O     0.16666   0.87293   0.18573   0.00000  Uiso   1.00
O487   O     0.16667   0.79374   0.31427   0.00000  Uiso   1.00
O488   O     0.16667   0.87293   0.31427   0.00000  Uiso   1.00
O489   O     0.16666   0.79374   0.18573   0.00000  Uiso   1.00
O490   O     0.15244   0.91755   0.11406   0.00000  Uiso   1.00
C491   C     0.42067   0.83333   0.24997   0.00000  Uiso   1.00
C492   C     0.64540   0.87596   0.25058   0.00000  Uiso   1.00
C493   C     0.64535   0.79070   0.24934   0.00000  Uiso   1.00
C494   C     0.35463   0.87596   0.25056   0.00000  Uiso   1.00
C495   C     0.49548   0.87587   0.04662   0.00000  Uiso   1.00
C496   C     0.52645   0.80312   0.45214   0.00000  Uiso   1.00
C497   C     0.47479   0.86430   0.45159   0.00000  Uiso   1.00
C498   C     0.50717   0.79211   0.04707   0.00000  Uiso   1.00
C499   C     0.49539   0.87632   0.09257   0.00000  Uiso   1.00
C500   C     0.52478   0.80074   0.40624   0.00000  Uiso   1.00
C501   C     0.47568   0.86569   0.40564   0.00000  Uiso   1.00
C502   C     0.57933   0.83334   0.25000   0.00000  Uiso   1.00
C503   C     0.50858   0.79189   0.09290   0.00000  Uiso   1.00
C504   C     0.50115   0.83387   0.11625   0.00000  Uiso   1.00
C505   C     0.50011   0.83308   0.38292   0.00000  Uiso   1.00
C506   C     0.50116   0.83397   0.02362   0.00000  Uiso   1.00
C507   C     0.50077   0.83384   0.47512   0.00000  Uiso   1.00
C508   C     0.62393   0.83334   0.24997   0.00000  Uiso   1.00
C509   C     0.37606   0.83332   0.24995   0.00000  Uiso   1.00
C510   C     0.52011   0.94778   0.11278   0.00000  Uiso   1.00
C511   C     0.53775   0.72380   0.39168   0.00000  Uiso   1.00
C512   C     0.46382   0.94211   0.38743   0.00000  Uiso   1.00
C513   C     0.50021   0.83348   0.16480   0.00000  Uiso   1.00
C514   C     0.55825   0.74250   0.11750   0.00000  Uiso   1.00
C515   C     0.50008   0.83323   0.33490   0.00000  Uiso   1.00
C516   C     0.47236   0.69161   0.22493   0.00000  Uiso   1.00
C517   C     0.52773   0.97507   0.27496   0.00000  Uiso   1.00
C518   C     0.52785   0.69138   0.27477   0.00000  Uiso   1.00
C519   C     0.47237   0.97530   0.22491   0.00000  Uiso   1.00
C520   C     0.35459   0.79070   0.24932   0.00000  Uiso   1.00
Cu521  Cu    0.50000   0.88022   0.25000   0.00000  Uiso   1.00
Cu522  Cu    0.50000   0.78645   0.25000   0.00000  Uiso   1.00
H523   H     0.45028   0.71045   0.20479   0.00000  Uiso   1.00
H524   H     0.62940   0.90929   0.25109   0.00000  Uiso   1.00
H525   H     0.62932   0.75738   0.24884   0.00000  Uiso   1.00
H526   H     0.37067   0.90928   0.25106   0.00000  Uiso   1.00
H527   H     0.54822   0.93053   0.12638   0.00000  Uiso   1.00
H528   H     0.51346   0.97860   0.13368   0.00000  Uiso   1.00
H529   H     0.52582   0.96092   0.07884   0.00000  Uiso   1.00
H530   H     0.55776   0.69989   0.37268   0.00000  Uiso   1.00
H531   H     0.50548   0.71821   0.38038   0.00000  Uiso   1.00
H532   H     0.54111   0.71364   0.42689   0.00000  Uiso   1.00
H533   H     0.44580   0.96508   0.36493   0.00000  Uiso   1.00
H534   H     0.54990   0.95624   0.29499   0.00000  Uiso   1.00
H535   H     0.49680   0.94562   0.37810   0.00000  Uiso   1.00
H536   H     0.45902   0.95496   0.42151   0.00000  Uiso   1.00
H537   H     0.56403   0.71055   0.13756   0.00000  Uiso   1.00
H538   H     0.57404   0.77219   0.13430   0.00000  Uiso   1.00
H539   H     0.57177   0.73669   0.08439   0.00000  Uiso   1.00
H540   H     0.55033   0.71008   0.29427   0.00000  Uiso   1.00
H541   H     0.45033   0.95665   0.20473   0.00000  Uiso   1.00
H542   H     0.49087   0.90860   0.02906   0.00000  Uiso   1.00
H543   H     0.54820   0.78110   0.46971   0.00000  Uiso   1.00
H544   H     0.45349   0.88691   0.46867   0.00000  Uiso   1.00
H545   H     0.51064   0.75909   0.03002   0.00000  Uiso   1.00
H546   H     0.37059   0.75737   0.24881   0.00000  Uiso   1.00
N547   N     0.50000   0.95069   0.25000   0.00000  Uiso   1.00
N548   N     0.50000   0.71598   0.25000   0.00000  Uiso   1.00
O549   O     0.43988   0.87291   0.25000   0.00000  Uiso   1.00
O550   O     0.55054   0.77045   0.38389   0.00000  Uiso   1.00
O551   O     0.44964   0.89558   0.38267   0.00000  Uiso   1.00
O552   O     0.51539   0.74980   0.11455   0.00000  Uiso   1.00
O553   O     0.56012   0.79375   0.25001   0.00000  Uiso   1.00
O554   O     0.56012   0.87291   0.25001   0.00000  Uiso   1.00
O555   O     0.43988   0.79375   0.25000   0.00000  Uiso   1.00
O556   O     0.50000   0.87293   0.18573   0.00000  Uiso   1.00
O557   O     0.50000   0.79374   0.31427   0.00000  Uiso   1.00
O558   O     0.50000   0.87293   0.31427   0.00000  Uiso   1.00
O559   O     0.50000   0.79374   0.18573   0.00000  Uiso   1.00
O560   O     0.48577   0.91755   0.11406   0.00000  Uiso   1.00
C561   C     0.75400   0.83333   0.24997   0.00000  Uiso   1.00
C562   C     0.97873   0.87596   0.25058   0.00000  Uiso   1.00
C563   C     0.97869   0.79070   0.24934   0.00000  Uiso   1.00
C564   C     0.68797   0.87596   0.25056   0.00000  Uiso   1.00
C565   C     0.82881   0.87587   0.04662   0.00000  Uiso   1.00
C566   C     0.85978   0.80312   0.45214   0.00000  Uiso   1.00
C567   C     0.80812   0.86430   0.45159   0.00000  Uiso   1.00
C568   C     0.84051   0.79211   0.04707   0.00000  Uiso   1.00
C569   C     0.82872   0.87632   0.09257   0.00000  Uiso   1.00
C570   C     0.85812   0.80074   0.40624   0.00000  Uiso   1.00
C571   C     0.80901   0.86569   0.40564   0.00000  Uiso   1.00
C572   C     0.91266   0.83334   0.25000   0.00000  Uiso   1.00
C573   C     0.84191   0.79189   0.09290   0.00000  Uiso   1.00
C574   C     0.83448   0.83387   0.11625   0.00000  Uiso   1.00
C575   C     0.83344   0.83308   0.38292   0.00000  Uiso   1.00
C576   C     0.83450   0.83397   0.02362   0.00000  Uiso   1.00
C577   C     0.83410   0.83384   0.47512   0.00000  Uiso   1.00
C578   C     0.95726   0.83334   0.24997   0.00000  Uiso   1.00
C579   C     0.70939   0.83332   0.24995   0.00000  Uiso   1.00
C580   C     0.85345   0.94778   0.11278   0.00000  Uiso   1.00
C581   C     0.87108   0.72380   0.39168   0.00000  Uiso   1.00
C582   C     0.79716   0.94211   0.38743   0.00000  Uiso   1.00
C583   C     0.83355   0.83348   0.16480   0.00000  Uiso   1.00
C584   C     0.89158   0.74250   0.11750   0.00000  Uiso   1.00
C585   C     0.83341   0.83323   0.33490   0.00000  Uiso   1.00
C586   C     0.80569   0.69161   0.22493   0.00000  Uiso   1.00
C587   C     0.86106   0.97507   0.27496   0.00000  Uiso   1.00
C588   C     0.86118   0.69138   0.27477   0.00000  Uiso   1.00
C589   C     0.80571   0.97530   0.22491   0.00000  Uiso   1.00
C590   C     0.68792   0.79070   0.24932   0.00000  Uiso   1.00
Cu591  Cu    0.83333   0.88022   0.25000   0.00000  Uiso   1.00
Cu592  Cu    0.83333   0.78645   0.25000   0.00000  Uiso   1.00
H593   H     0.78362   0.71045   0.20479   0.00000  Uiso   1.00
H594   H     0.96273   0.90929   0.25109   0.00000  Uiso   1.00
H595   H     0.96265   0.75738   0.24884   0.00000  Uiso   1.00
H596   H     0.70400   0.90928   0.25106   0.00000  Uiso   1.00
H597   H     0.88155   0.93053   0.12638   0.00000  Uiso   1.00
H598   H     0.84680   0.97860   0.13368   0.00000  Uiso   1.00
H599   H     0.85916   0.96092   0.07884   0.00000  Uiso   1.00
H600   H     0.89109   0.69989   0.37268   0.00000  Uiso   1.00
H601   H     0.83881   0.71821   0.38038   0.00000  Uiso   1.00
H602   H     0.87444   0.71364   0.42689   0.00000  Uiso   1.00
H603   H     0.77914   0.96508   0.36493   0.00000  Uiso   1.00
H604   H     0.88323   0.95624   0.29499   0.00000  Uiso   1.00
H605   H     0.83014   0.94562   0.37810   0.00000  Uiso   1.00
H606   H     0.79235   0.95496   0.42151   0.00000  Uiso   1.00
H607   H     0.89736   0.71055   0.13756   0.00000  Uiso   1.00
H608   H     0.90737   0.77219   0.13430   0.00000  Uiso   1.00
H609   H     0.90510   0.73669   0.08439   0.00000  Uiso   1.00
H610   H     0.88366   0.71008   0.29427   0.00000  Uiso   1.00
H611   H     0.78366   0.95665   0.20473   0.00000  Uiso   1.00
H612   H     0.82421   0.90860   0.02906   0.00000  Uiso   1.00
H613   H     0.88153   0.78110   0.46971   0.00000  Uiso   1.00
H614   H     0.78682   0.88691   0.46867   0.00000  Uiso   1.00
H615   H     0.84398   0.75909   0.03002   0.00000  Uiso   1.00
H616   H     0.70392   0.75737   0.24881   0.00000  Uiso   1.00
N617   N     0.83333   0.95069   0.25000   0.00000  Uiso   1.00
N618   N     0.83333   0.71598   0.25000   0.00000  Uiso   1.00
O619   O     0.77321   0.87291   0.25000   0.00000  Uiso   1.00
O620   O     0.88387   0.77045   0.38389   0.00000  Uiso   1.00
O621   O     0.78297   0.89558   0.38267   0.00000  Uiso   1.00
O622   O     0.84872   0.74980   0.11455   0.00000  Uiso   1.00
O623   O     0.89345   0.79375   0.25001   0.00000  Uiso   1.00
O624   O     0.89345   0.87291   0.25001   0.00000  Uiso   1.00
O625   O     0.77321   0.79375   0.25000   0.00000  Uiso   1.00
O626   O     0.83333   0.87293   0.18573   0.00000  Uiso   1.00
O627   O     0.83334   0.79374   0.31427   0.00000  Uiso   1.00
O628   O     0.83334   0.87293   0.31427   0.00000  Uiso   1.00
O629   O     0.83333   0.79374   0.18573   0.00000  Uiso   1.00
O630   O     0.81910   0.91755   0.11406   0.00000  Uiso   1.00
C631   C     0.08734   0.16666   0.74997   0.00000  Uiso   1.00
C632   C     0.31207   0.20930   0.75058   0.00000  Uiso   1.00
C633   C     0.31202   0.12404   0.74934   0.00000  Uiso   1.00
C634   C     0.02130   0.20929   0.75056   0.00000  Uiso   1.00
C635   C     0.16214   0.20920   0.54662   0.00000  Uiso   1.00
C636   C     0.19312   0.13645   0.95214   0.00000  Uiso   1.00
C637   C     0.14146   0.19763   0.95159   0.00000  Uiso   1.00
C638   C     0.17384   0.12544   0.54707   0.00000  Uiso   1.00
C639   C     0.16205   0.20965   0.59257   0.00000  Uiso   1.00
C640   C     0.19145   0.13407   0.90624   0.00000  Uiso   1.00
C641   C     0.14235   0.19902   0.90564   0.00000  Uiso   1.00
C642   C     0.24599   0.16667   0.75000   0.00000  Uiso   1.00
C643   C     0.17524   0.12523   0.59290   0.00000  Uiso   1.00
C644   C     0.16782   0.16720   0.61625   0.00000  Uiso   1.00
C645   C     0.16678   0.16642   0.88292   0.00000  Uiso   1.00
C646   C     0.16783   0.16731   0.52362   0.00000  Uiso   1.00
C647   C     0.16743   0.16717   0.97512   0.00000  Uiso   1.00
C648   C     0.29060   0.16667   0.74997   0.00000  Uiso   1.00
C649   C     0.04273   0.16666   0.74995   0.00000  Uiso   1.00
C650   C     0.18678   0.28111   0.61278   0.00000  Uiso   1.00
C651   C     0.20441   0.05713   0.89168   0.00000  Uiso   1.00
C652   C     0.13049   0.27544   0.88743   0.00000  Uiso   1.00
C653   C     0.16688   0.16681   0.66480   0.00000  Uiso   1.00
C654   C     0.22491   0.07583   0.61750   0.00000  Uiso   1.00
C655   C     0.16674   0.16656   0.83490   0.00000  Uiso   1.00
C656   C     0.13902   0.02495   0.72493   0.00000  Uiso   1.00
C657   C     0.19440   0.30840   0.77496   0.00000  Uiso   1.00
C658   C     0.19452   0.02471   0.77477   0.00000  Uiso   1.00
C659   C     0.13904   0.30863   0.72491   0.00000  Uiso   1.00
C660   C     0.02126   0.12403   0.74932   0.00000  Uiso   1.00
Cu661  Cu    0.16667   0.21355   0.75000   0.00000  Uiso   1.00
Cu662  Cu    0.16667   0.11978   0.75000   0.00000  Uiso   1.00
H663   H     0.11695   0.04379   0.70479   0.00000  Uiso   1.00
H664   H     0.29607   0.24262   0.75109   0.00000  Uiso   1.00
H665   H     0.29599   0.09071   0.74884   0.00000  Uiso   1.00
H666   H     0.03733   0.24261   0.75106   0.00000  Uiso   1.00
H667   H     0.21489   0.26387   0.62638   0.00000  Uiso   1.00
H668   H     0.18013   0.31194   0.63368   0.00000  Uiso   1.00
H669   H     0.19249   0.29426   0.57884   0.00000  Uiso   1.00
H670   H     0.22443   0.03323   0.87268   0.00000  Uiso   1.00
H671   H     0.17214   0.05154   0.88038   0.00000  Uiso   1.00
H672   H     0.20777   0.04697   0.92689   0.00000  Uiso   1.00
H673   H     0.11247   0.29841   0.86493   0.00000  Uiso   1.00
H674   H     0.21657   0.28958   0.79499   0.00000  Uiso   1.00
H675   H     0.16347   0.27895   0.87810   0.00000  Uiso   1.00
H676   H     0.12569   0.28829   0.92151   0.00000  Uiso   1.00
H677   H     0.23069   0.04388   0.63756   0.00000  Uiso   1.00
H678   H     0.24071   0.10552   0.63430   0.00000  Uiso   1.00
H679   H     0.23843   0.07002   0.58439   0.00000  Uiso   1.00
H680   H     0.21699   0.04341   0.79427   0.00000  Uiso   1.00
H681   H     0.11700   0.28998   0.70473   0.00000  Uiso   1.00
H682   H     0.15754   0.24194   0.52906   0.00000  Uiso   1.00
H683   H     0.21487   0.11443   0.96971   0.00000  Uiso   1.00
H684   H     0.12016   0.22024   0.96867   0.00000  Uiso   1.00
H685   H     0.17731   0.09242   0.53002   0.00000  Uiso   1.00
H686   H     0.03725   0.09071   0.74881   0.00000  Uiso   1.00
N687   N     0.16667   0.28402   0.75000   0.00000  Uiso   1.00
N688   N     0.16667   0.04931   0.75000   0.00000  Uiso   1.00
O689   O     0.10655   0.20625   0.75000   0.00000  Uiso   1.00
O690   O     0.21721   0.10378   0.88389   0.00000  Uiso   1.00
O691   O     0.11631   0.22892   0.88267   0.00000  Uiso   1.00
O692   O     0.18206   0.08314   0.61455   0.00000  Uiso   1.00
O693   O     0.22679   0.12709   0.75001   0.00000  Uiso   1.00
O694   O     0.22679   0.20625   0.75001   0.00000  Uiso   1.00
O695   O     0.10655   0.12709   0.75000   0.00000  Uiso   1.00
O696   O     0.16666   0.20626   0.68573   0.00000  Uiso   1.00
O697   O     0.16667   0.12707   0.81427   0.00000  Uiso   1.00
O698   O     0.16667   0.20626   0.81427   0.00000  Uiso   1.00
O699   O     0.16666   0.12707   0.68573   0.00000  Uiso   1.00
O700   O     0.15244   0.25088   0.61406   0.00000  Uiso   1.00
C701   C     0.42067   0.16666   0.74997   0.00000  Uiso   1.00
C702   C     0.64540   0.20930   0.75058   0.00000  Uiso   1.00
C703   C     0.64535   0.12404   0.74934   0.00000  Uiso   1.00
C704   C     0.35463   0.20929   0.75056   0.00000  Uiso   1.00
C705   C     0.49548   0.20920   0.54662   0.00000  Uiso   1.00
C706   C     0.52645   0.13645   0.95214   0.00000  Uiso   1.00
C707   C     0.47479   0.19763   0.95159   0.00000  Uiso   1.00
C708   C     0.50717   0.12544   0.54707   0.00000  Uiso   1.00
C709   C     0.49539   0.20965   0.59257   0.00000  Uiso   1.00
C710   C     0.52478   0.13407   0.90624   0.00000  Uiso   1.00
C711   C     0.47568   0.19902   0.90564   0.00000  Uiso   1.00
C712   C     0.57933   0.16667   0.75000   0.00000  Uiso   1.00
C713   C     0.50858   0.12523   0.59290   0.00000  Uiso   1.00
C714   C     0.50115   0.16720   0.61625   0.00000  Uiso   1.00
C715   C     0.50011   0.16642   0.88292   0.00000  Uiso   1.00
C716   C     0.50116   0.16731   0.52362   0.00000  Uiso   1.00
C717   C     0.50077   0.16717   0.97512   0.00000  Uiso   1.00
C718   C     0.62393   0.16667   0.74997   0.00000  Uiso   1.00
C719   C     0.37606   0.16666   0.74995   0.00000  Uiso   1.00
C720   C     0.52011   0.28111   0.61278   0.00000  Uiso   1.00
C721   C     0.53775   0.05713   0.89168   0.00000  Uiso   1.00
C722   C     0.46382   0.27544   0.88743   0.00000  Uiso   1.00
C723   C     0.50021   0.16681   0.66480   0.00000  Uiso   1.00
C724   C     0.55825   0.07583   0.61750   0.00000  Uiso   1.00
C725   C     0.50008   0.16656   0.83490   0.00000  Uiso   1.00
C726   C     0.47236   0.02495   0.72493   0.00000  Uiso   1.00
C727   C     0.52773   0.30840   0.77496   0.00000  Uiso   1.00
C728   C     0.52785   0.02471   0.77477   0.00000  Uiso   1.00
C729   C     0.47237   0.30863   0.72491   0.00000  Uiso   1.00
C730   C     0.35459   0.12403   0.74932   0.00000  Uiso   1.00
Cu731  Cu    0.50000   0.21355   0.75000   0.00000  Uiso   1.00
Cu732  Cu    0.50000   0.11978   0.75000   0.00000  Uiso   1.00
H733   H     0.45028   0.04379   0.70479   0.00000  Uiso   1.00
H734   H     0.62940   0.24262   0.75109   0.00000  Uiso   1.00
H735   H     0.62932   0.09071   0.74884   0.00000  Uiso   1.00
H736   H     0.37067   0.24261   0.75106   0.00000  Uiso   1.00
H737   H     0.54822   0.26387   0.62638   0.00000  Uiso   1.00
H738   H     0.51346   0.31194   0.63368   0.00000  Uiso   1.00
H739   H     0.52582   0.29426   0.57884   0.00000  Uiso   1.00
H740   H     0.55776   0.03323   0.87268   0.00000  Uiso   1.00
H741   H     0.50548   0.05154   0.88038   0.00000  Uiso   1.00
H742   H     0.54111   0.04697   0.92689   0.00000  Uiso   1.00
H743   H     0.44580   0.29841   0.86493   0.00000  Uiso   1.00
H744   H     0.54990   0.28958   0.79499   0.00000  Uiso   1.00
H745   H     0.49680   0.27895   0.87810   0.00000  Uiso   1.00
H746   H     0.45902   0.28829   0.92151   0.00000  Uiso   1.00
H747   H     0.56403   0.04388   0.63756   0.00000  Uiso   1.00
H748   H     0.57404   0.10552   0.63430   0.00000  Uiso   1.00
H749   H     0.57177   0.07002   0.58439   0.00000  Uiso   1.00
H750   H     0.55033   0.04341   0.79427   0.00000  Uiso   1.00
H751   H     0.45033   0.28998   0.70473   0.00000  Uiso   1.00
H752   H     0.49087   0.24194   0.52906   0.00000  Uiso   1.00
H753   H     0.54820   0.11443   0.96971   0.00000  Uiso   1.00
H754   H     0.45349   0.22024   0.96867   0.00000  Uiso   1.00
H755   H     0.51064   0.09242   0.53002   0.00000  Uiso   1.00
H756   H     0.37059   0.09071   0.74881   0.00000  Uiso   1.00
N757   N     0.50000   0.28402   0.75000   0.00000  Uiso   1.00
N758   N     0.50000   0.04931   0.75000   0.00000  Uiso   1.00
O759   O     0.43988   0.20625   0.75000   0.00000  Uiso   1.00
O760   O     0.55054   0.10378   0.88389   0.00000  Uiso   1.00
O761   O     0.44964   0.22892   0.88267   0.00000  Uiso   1.00
O762   O     0.51539   0.08314   0.61455   0.00000  Uiso   1.00
O763   O     0.56012   0.12709   0.75001   0.00000  Uiso   1.00
O764   O     0.56012   0.20625   0.75001   0.00000  Uiso   1.00
O765   O     0.43988   0.12709   0.75000   0.00000  Uiso   1.00
O766   O     0.50000   0.20626   0.68573   0.00000  Uiso   1.00
O767   O     0.50000   0.12707   0.81427   0.00000  Uiso   1.00
O768   O     0.50000   0.20626   0.81427   0.00000  Uiso   1.00
O769   O     0.50000   0.12707   0.68573   0.00000  Uiso   1.00
O770   O     0.48577   0.25088   0.61406   0.00000  Uiso   1.00
C771   C     0.75400   0.16666   0.74997   0.00000  Uiso   1.00
C772   C     0.97873   0.20930   0.75058   0.00000  Uiso   1.00
C773   C     0.97869   0.12404   0.74934   0.00000  Uiso   1.00
C774   C     0.68797   0.20929   0.75056   0.00000  Uiso   1.00
C775   C     0.82881   0.20920   0.54662   0.00000  Uiso   1.00
C776   C     0.85978   0.13645   0.95214   0.00000  Uiso   1.00
C777   C     0.80812   0.19763   0.95159   0.00000  Uiso   1.00
C778   C     0.84051   0.12544   0.54707   0.00000  Uiso   1.00
C779   C     0.82872   0.20965   0.59257   0.00000  Uiso   1.00
C780   C     0.85812   0.13407   0.90624   0.00000  Uiso   1.00
C781   C     0.80901   0.19902   0.90564   0.00000  Uiso   1.00
C782   C     0.91266   0.16667   0.75000   0.00000  Uiso   1.00
C783   C     0.84191   0.12523   0.59290   0.00000  Uiso   1.00
C784   C     0.83448   0.16720   0.61625   0.00000  Uiso   1.00
C785   C     0.83344   0.16642   0.88292   0.00000  Uiso   1.00
C786   C     0.83450   0.16731   0.52362   0.00000  Uiso   1.00
C787   C     0.83410   0.16717   0.97512   0.00000  Uiso   1.00
C788   C     0.95726   0.16667   0.74997   0.00000  Uiso   1.00
C789   C     0.70939   0.16666   0.74995   0.00000  Uiso   1.00
C790   C     0.85345   0.28111   0.61278   0.00000  Uiso   1.00
C791   C     0.87108   0.05713   0.89168   0.00000  Uiso   1.00
C792   C     0.79716   0.27544   0.88743   0.00000  Uiso   1.00
C793   C     0.83355   0.16681   0.66480   0.00000  Uiso   1.00
C794   C     0.89158   0.07583   0.61750   0.00000  Uiso   1.00
C795   C     0.83341   0.16656   0.83490   0.00000  Uiso   1.00
C796   C     0.80569   0.02495   0.72493   0.00000  Uiso   1.00
C797   C     0.86106   0.30840   0.77496   0.00000  Uiso   1.00
C798   C     0.86118   0.02471   0.77477   0.00000  Uiso   1.00
C799   C     0.80571   0.30863   0.72491   0.00000  Uiso   1.00
C800   C     0.68792   0.12403   0.74932   0.00000  Uiso   1.00
Cu801  Cu    0.83333   0.21355   0.75000   0.00000  Uiso   1.00
Cu802  Cu    0.83333   0.11978   0.75000   0.00000  Uiso   1.00
H803   H     0.78362   0.04379   0.70479   0.00000  Uiso   1.00
H804   H     0.96273   0.24262   0.75109   0.00000  Uiso   1.00
H805   H     0.96265   0.09071   0.74884   0.00000  Uiso   1.00
H806   H     0.70400   0.24261   0.75106   0.00000  Uiso   1.00
H807   H     0.88155   0.26387   0.62638   0.00000  Uiso   1.00
H808   H     0.84680   0.31194   0.63368   0.00000  Uiso   1.00
H809   H     0.85916   0.29426   0.57884   0.00000  Uiso   1.00
H810   H     0.89109   0.03323   0.87268   0.00000  Uiso   1.00
H811   H     0.83881   0.05154   0.88038   0.00000  Uiso   1.00
H812   H     0.87444   0.04697   0.92689   0.00000  Uiso   1.00
H813   H     0.77914   0.29841   0.86493   0.00000  Uiso   1.00
H814   H     0.88323   0.28958   0.79499   0.00000  Uiso   1.00
H815   H     0.83014   0.27895   0.87810   0.00000  Uiso   1.00
H816   H     0.79235   0.28829   0.92151   0.00000  Uiso   1.00
H817   H     0.89736   0.04388   0.63756   0.00000  Uiso   1.00
H818   H     0.90737   0.10552   0.63430   0.00000  Uiso   1.00
H819   H     0.90510   0.07002   0.58439   0.00000  Uiso   1.00
H820   H     0.88366   0.04341   0.79427   0.00000  Uiso   1.00
H821   H     0.78366   0.28998   0.70473   0.00000  Uiso   1.00
H822   H     0.82421   0.24194   0.52906   0.00000  Uiso   1.00
H823   H     0.88153   0.11443   0.96971   0.00000  Uiso   1.00
H824   H     0.78682   0.22024   0.96867   0.00000  Uiso   1.00
H825   H     0.84398   0.09242   0.53002   0.00000  Uiso   1.00
H826   H     0.70392   0.09071   0.74881   0.00000  Uiso   1.00
N827   N     0.83333   0.28402   0.75000   0.00000  Uiso   1.00
N828   N     0.83333   0.04931   0.75000   0.00000  Uiso   1.00
O829   O     0.77321   0.20625   0.75000   0.00000  Uiso   1.00
O830   O     0.88387   0.10378   0.88389   0.00000  Uiso   1.00
O831   O     0.78297   0.22892   0.88267   0.00000  Uiso   1.00
O832   O     0.84872   0.08314   0.61455   0.00000  Uiso   1.00
O833   O     0.89345   0.12709   0.75001   0.00000  Uiso   1.00
O834   O     0.89345   0.20625   0.75001   0.00000  Uiso   1.00
O835   O     0.77321   0.12709   0.75000   0.00000  Uiso   1.00
O836   O     0.83333   0.20626   0.68573   0.00000  Uiso   1.00
O837   O     0.83334   0.12707   0.81427   0.00000  Uiso   1.00
O838   O     0.83334   0.20626   0.81427   0.00000  Uiso   1.00
O839   O     0.83333   0.12707   0.68573   0.00000  Uiso   1.00
O840   O     0.81910   0.25088   0.61406   0.00000  Uiso   1.00
C841   C     0.08734   0.49999   0.74997   0.00000  Uiso   1.00
C842   C     0.31207   0.54263   0.75058   0.00000  Uiso   1.00
C843   C     0.31202   0.45737   0.74934   0.00000  Uiso   1.00
C844   C     0.02130   0.54262   0.75056   0.00000  Uiso   1.00
C845   C     0.16214   0.54254   0.54662   0.00000  Uiso   1.00
C846   C     0.19312   0.46979   0.95214   0.00000  Uiso   1.00
C847   C     0.14146   0.53096   0.95159   0.00000  Uiso   1.00
C848   C     0.17384   0.45878   0.54707   0.00000  Uiso   1.00
C849   C     0.16205   0.54298   0.59257   0.00000  Uiso   1.00
C850   C     0.19145   0.46740   0.90624   0.00000  Uiso   1.00
C851   C     0.14235   0.53235   0.90564   0.00000  Uiso   1.00
C852   C     0.24599   0.50000   0.75000   0.00000  Uiso   1.00
C853   C     0.17524   0.45856   0.59290   0.00000  Uiso   1.00
C854   C     0.16782   0.50053   0.61625   0.00000  Uiso   1.00
C855   C     0.16678   0.49975   0.88292   0.00000  Uiso   1.00
C856   C     0.16783   0.50064   0.52362   0.00000  Uiso   1.00
C857   C     0.16743   0.50050   0.97512   0.00000  Uiso   1.00
C858   C     0.29060   0.50000   0.74997   0.00000  Uiso   1.00
C859   C     0.04273   0.49999   0.74995   0.00000  Uiso   1.00
C860   C     0.18678   0.61444   0.61278   0.00000  Uiso   1.00
C861   C     0.20441   0.39046   0.89168   0.00000  Uiso   1.00
C862   C     0.13049   0.60877   0.88743   0.00000  Uiso   1.00
C863   C     0.16688   0.50014   0.66480   0.00000  Uiso   1.00
C864   C     0.22491   0.40917   0.61750   0.00000  Uiso   1.00
C865   C     0.16674   0.49989   0.83490   0.00000  Uiso   1.00
C866   C     0.13902   0.35828   0.72493   0.00000  Uiso   1.00
C867   C     0.19440   0.64173   0.77496   0.00000  Uiso   1.00
C868   C     0.19452   0.35804   0.77477   0.00000  Uiso   1.00
C869   C     0.13904   0.64196   0.72491   0.00000  Uiso   1.00
C870   C     0.02126   0.45736   0.74932   0.00000  Uiso   1.00
Cu871  Cu    0.16667   0.54689   0.75000   0.00000  Uiso   1.00
Cu872  Cu    0.16667   0.45311   0.75000   0.00000  Uiso   1.00
H873   H     0.11695   0.37712   0.70479   0.00000  Uiso   1.00
H874   H     0.29607   0.57595   0.75109   0.00000  Uiso   1.00
H875   H     0.29599   0.42405   0.74884   0.00000  Uiso   1.00
H876   H     0.03733   0.57595   0.75106   0.00000  Uiso   1.00
H877   H     0.21489   0.59720   0.62638   0.00000  Uiso   1.00
H878   H     0.18013   0.64527   0.63368   0.00000  Uiso   1.00
H879   H     0.19249   0.62759   0.57884   0.00000  Uiso   1.00
H880   H     0.22443   0.36656   0.87268   0.00000  Uiso   1.00
H881   H     0.17214   0.38487   0.88038   0.00000  Uiso   1.00
H882   H     0.20777   0.38030   0.92689   0.00000  Uiso   1.00
H883   H     0.11247   0.63175   0.86493   0.00000  Uiso   1.00
H884   H     0.21657   0.62291   0.79499   0.00000  Uiso   1.00
H885   H     0.16347   0.61229   0.87810   0.00000  Uiso   1.00
H886   H     0.12569   0.62162   0.92151   0.00000  Uiso   1.00
H887   H     0.23069   0.37721   0.63756   0.00000  Uiso   1.00
H888   H     0.24071   0.43886   0.63430   0.00000  Uiso   1.00
H889   H     0.23843   0.40335   0.58439   0.00000  Uiso   1.00
H890   H     0.21699   0.37675   0.79427   0.00000  Uiso   1.00
H891   H     0.11700   0.62331   0.70473   0.00000  Uiso   1.00
H892   H     0.15754   0.57527   0.52906   0.00000  Uiso   1.00
H893   H     0.21487   0.44776   0.96971   0.00000  Uiso   1.00
H894   H     0.12016   0.55357   0.96867   0.00000  Uiso   1.00
H895   H     0.17731   0.42576   0.53002   0.00000  Uiso   1.00
H896   H     0.03725   0.42404   0.74881   0.00000  Uiso   1.00
N897   N     0.16667   0.61736   0.75000   0.00000  Uiso   1.00
N898   N     0.16667   0.38264   0.75000   0.00000  Uiso   1.00
O899   O     0.10655   0.53958   0.75000   0.00000  Uiso   1.00
O900   O     0.21721   0.43711   0.88389   0.00000  Uiso   1.00
O901   O     0.11631   0.56225   0.88267   0.00000  Uiso   1.00
O902   O     0.18206   0.41647   0.61455   0.00000  Uiso   1.00
O903   O     0.22679   0.46042   0.75001   0.00000  Uiso   1.00
O904   O     0.22679   0.53958   0.75001   0.00000  Uiso   1.00
O905   O     0.10655   0.46042   0.75000   0.00000  Uiso   1.00
O906   O     0.16666   0.53959   0.68573   0.00000  Uiso   1.00
O907   O     0.16667   0.46041   0.81427   0.00000  Uiso   1.00
O908   O     0.16667   0.53959   0.81427   0.00000  Uiso   1.00
O909   O     0.16666   0.46041   0.68573   0.00000  Uiso   1.00
O910   O     0.15244   0.58421   0.61406   0.00000  Uiso   1.00
C911   C     0.42067   0.49999   0.74997   0.00000  Uiso   1.00
C912   C     0.64540   0.54263   0.75058   0.00000  Uiso   1.00
C913   C     0.64535   0.45737   0.74934   0.00000  Uiso   1.00
C914   C     0.35463   0.54262   0.75056   0.00000  Uiso   1.00
C915   C     0.49548   0.54254   0.54662   0.00000  Uiso   1.00
C916   C     0.52645   0.46979   0.95214   0.00000  Uiso   1.00
C917   C     0.47479   0.53096   0.95159   0.00000  Uiso   1.00
C918   C     0.50717   0.45878   0.54707   0.00000  Uiso   1.00
C919   C     0.49539   0.54298   0.59257   0.00000  Uiso   1.00
C920   C     0.52478   0.46740   0.90624   0.00000  Uiso   1.00
C921   C     0.47568   0.53235   0.90564   0.00000  Uiso   1.00
C922   C     0.57933   0.50000   0.75000   0.00000  Uiso   1.00
C923   C     0.50858   0.45856   0.59290   0.00000  Uiso   1.00
C924   C     0.50115   0.50053   0.61625   0.00000  Uiso   1.00
C925   C     0.50011   0.49975   0.88292   0.00000  Uiso   1.00
C926   C     0.50116   0.50064   0.52362   0.00000  Uiso   1.00
C927   C     0.50077   0.50050   0.97512   0.00000  Uiso   1.00
C928   C     0.62393   0.50000   0.74997   0.00000  Uiso   1.00
C929   C     0.37606   0.49999   0.74995   0.00000  Uiso   1.00
C930   C     0.52011   0.61444   0.61278   0.00000  Uiso   1.00
C931   C     0.53775   0.39046   0.89168   0.00000  Uiso   1.00
C932   C     0.46382   0.60877   0.88743   0.00000  Uiso   1.00
C933   C     0.50021   0.50014   0.66480   0.00000  Uiso   1.00
C934   C     0.55825   0.40917   0.61750   0.00000  Uiso   1.00
C935   C     0.50008   0.49989   0.83490   0.00000  Uiso   1.00
C936   C     0.47236   0.35828   0.72493   0.00000  Uiso   1.00
C937   C     0.52773   0.64173   0.77496   0.00000  Uiso   1.00
C938   C     0.52785   0.35804   0.77477   0.00000  Uiso   1.00
C939   C     0.47237   0.64196   0.72491   0.00000  Uiso   1.00
C940   C     0.35459   0.45736   0.74932   0.00000  Uiso   1.00
Cu941  Cu    0.50000   0.54689   0.75000   0.00000  Uiso   1.00
Cu942  Cu    0.50000   0.45311   0.75000   0.00000  Uiso   1.00
H943   H     0.45028   0.37712   0.70479   0.00000  Uiso   1.00
H944   H     0.62940   0.57595   0.75109   0.00000  Uiso   1.00
H945   H     0.62932   0.42405   0.74884   0.00000  Uiso   1.00
H946   H     0.37067   0.57595   0.75106   0.00000  Uiso   1.00
H947   H     0.54822   0.59720   0.62638   0.00000  Uiso   1.00
H948   H     0.51346   0.64527   0.63368   0.00000  Uiso   1.00
H949   H     0.52582   0.62759   0.57884   0.00000  Uiso   1.00
H950   H     0.55776   0.36656   0.87268   0.00000  Uiso   1.00
H951   H     0.50548   0.38487   0.88038   0.00000  Uiso   1.00
H952   H     0.54111   0.38030   0.92689   0.00000  Uiso   1.00
H953   H     0.44580   0.63175   0.86493   0.00000  Uiso   1.00
H954   H     0.54990   0.62291   0.79499   0.00000  Uiso   1.00
H955   H     0.49680   0.61229   0.87810   0.00000  Uiso   1.00
H956   H     0.45902   0.62162   0.92151   0.00000  Uiso   1.00
H957   H     0.56403   0.37721   0.63756   0.00000  Uiso   1.00
H958   H     0.57404   0.43886   0.63430   0.00000  Uiso   1.00
H959   H     0.57177   0.40335   0.58439   0.00000  Uiso   1.00
H960   H     0.55033   0.37675   0.79427   0.00000  Uiso   1.00
H961   H     0.45033   0.62331   0.70473   0.00000  Uiso   1.00
H962   H     0.49087   0.57527   0.52906   0.00000  Uiso   1.00
H963   H     0.54820   0.44776   0.96971   0.00000  Uiso   1.00
H964   H     0.45349   0.55357   0.96867   0.00000  Uiso   1.00
H965   H     0.51064   0.42576   0.53002   0.00000  Uiso   1.00
H966   H     0.37059   0.42404   0.74881   0.00000  Uiso   1.00
N967   N     0.50000   0.61736   0.75000   0.00000  Uiso   1.00
N968   N     0.50000   0.38264   0.75000   0.00000  Uiso   1.00
O969   O     0.43988   0.53958   0.75000   0.00000  Uiso   1.00
O970   O     0.55054   0.43711   0.88389   0.00000  Uiso   1.00
O971   O     0.44964   0.56225   0.88267   0.00000  Uiso   1.00
O972   O     0.51539   0.41647   0.61455   0.00000  Uiso   1.00
O973   O     0.56012   0.46042   0.75001   0.00000  Uiso   1.00
O974   O     0.56012   0.53958   0.75001   0.00000  Uiso   1.00
O975   O     0.43988   0.46042   0.75000   0.00000  Uiso   1.00
O976   O     0.50000   0.53959   0.68573   0.00000  Uiso   1.00
O977   O     0.50000   0.46041   0.81427   0.00000  Uiso   1.00
O978   O     0.50000   0.53959   0.81427   0.00000  Uiso   1.00
O979   O     0.50000   0.46041   0.68573   0.00000  Uiso   1.00
O980   O     0.48577   0.58421   0.61406   0.00000  Uiso   1.00
C981   C     0.75400   0.49999   0.74997   0.00000  Uiso   1.00
C982   C     0.97873   0.54263   0.75058   0.00000  Uiso   1.00
C983   C     0.97869   0.45737   0.74934   0.00000  Uiso   1.00
C984   C     0.68797   0.54262   0.75056   0.00000  Uiso   1.00
C985   C     0.82881   0.54254   0.54662   0.00000  Uiso   1.00
C986   C     0.85978   0.46979   0.95214   0.00000  Uiso   1.00
C987   C     0.80812   0.53096   0.95159   0.00000  Uiso   1.00
C988   C     0.84051   0.45878   0.54707   0.00000  Uiso   1.00
C989   C     0.82872   0.54298   0.59257   0.00000  Uiso   1.00
C990   C     0.85812   0.46740   0.90624   0.00000  Uiso   1.00
C991   C     0.80901   0.53235   0.90564   0.00000  Uiso   1.00
C992   C     0.91266   0.50000   0.75000   0.00000  Uiso   1.00
C993   C     0.84191   0.45856   0.59290   0.00000  Uiso   1.00
C994   C     0.83448   0.50053   0.61625   0.00000  Uiso   1.00
C995   C     0.83344   0.49975   0.88292   0.00000  Uiso   1.00
C996   C     0.83450   0.50064   0.52362   0.00000  Uiso   1.00
C997   C     0.83410   0.50050   0.97512   0.00000  Uiso   1.00
C998   C     0.95726   0.50000   0.74997   0.00000  Uiso   1.00
C999   C     0.70939   0.49999   0.74995   0.00000  Uiso   1.00
C1000  C     0.85345   0.61444   0.61278   0.00000  Uiso   1.00
C1001  C     0.87108   0.39046   0.89168   0.00000  Uiso   1.00
C1002  C     0.79716   0.60877   0.88743   0.00000  Uiso   1.00
C1003  C     0.83355   0.50014   0.66480   0.00000  Uiso   1.00
C1004  C     0.89158   0.40917   0.61750   0.00000  Uiso   1.00
C1005  C     0.83341   0.49989   0.83490   0.00000  Uiso   1.00
C1006  C     0.80569   0.35828   0.72493   0.00000  Uiso   1.00
C1007  C     0.86106   0.64173   0.77496   0.00000  Uiso   1.00
C1008  C     0.86118   0.35804   0.77477   0.00000  Uiso   1.00
C1009  C     0.80571   0.64196   0.72491   0.00000  Uiso   1.00
C1010  C     0.68792   0.45736   0.74932   0.00000  Uiso   1.00
Cu1011 Cu    0.83333   0.54689   0.75000   0.00000  Uiso   1.00
Cu1012 Cu    0.83333   0.45311   0.75000   0.00000  Uiso   1.00
H1013  H     0.78362   0.37712   0.70479   0.00000  Uiso   1.00
H1014  H     0.96273   0.57595   0.75109   0.00000  Uiso   1.00
H1015  H     0.96265   0.42405   0.74884   0.00000  Uiso   1.00
H1016  H     0.70400   0.57595   0.75106   0.00000  Uiso   1.00
H1017  H     0.88155   0.59720   0.62638   0.00000  Uiso   1.00
H1018  H     0.84680   0.64527   0.63368   0.00000  Uiso   1.00
H1019  H     0.85916   0.62759   0.57884   0.00000  Uiso   1.00
H1020  H     0.89109   0.36656   0.87268   0.00000  Uiso   1.00
H1021  H     0.83881   0.38487   0.88038   0.00000  Uiso   1.00
H1022  H     0.87444   0.38030   0.92689   0.00000  Uiso   1.00
H1023  H     0.77914   0.63175   0.86493   0.00000  Uiso   1.00
H1024  H     0.88323   0.62291   0.79499   0.00000  Uiso   1.00
H1025  H     0.83014   0.61229   0.87810   0.00000  Uiso   1.00
H1026  H     0.79235   0.62162   0.92151   0.00000  Uiso   1.00
H1027  H     0.89736   0.37721   0.63756   0.00000  Uiso   1.00
H1028  H     0.90737   0.43886   0.63430   0.00000  Uiso   1.00
H1029  H     0.90510   0.40335   0.58439   0.00000  Uiso   1.00
H1030  H     0.88366   0.37675   0.79427   0.00000  Uiso   1.00
H1031  H     0.78366   0.62331   0.70473   0.00000  Uiso   1.00
H1032  H     0.82421   0.57527   0.52906   0.00000  Uiso   1.00
H1033  H     0.88153   0.44776   0.96971   0.00000  Uiso   1.00
H1034  H     0.78682   0.55357   0.96867   0.00000  Uiso   1.00
H1035  H     0.84398   0.42576   0.53002   0.00000  Uiso   1.00
H1036  H     0.70392   0.42404   0.74881   0.00000  Uiso   1.00
N1037  N     0.83333   0.61736   0.75000   0.00000  Uiso   1.00
N1038  N     0.83333   0.38264   0.75000   0.00000  Uiso   1.00
O1039  O     0.77321   0.53958   0.75000   0.00000  Uiso   1.00
O1040  O     0.88387   0.43711   0.88389   0.00000  Uiso   1.00
O1041  O     0.78297   0.56225   0.88267   0.00000  Uiso   1.00
O1042  O     0.84872   0.41647   0.61455   0.00000  Uiso   1.00
O1043  O     0.89345   0.46042   0.75001   0.00000  Uiso   1.00
O1044  O     0.89345   0.53958   0.75001   0.00000  Uiso   1.00
O1045  O     0.77321   0.46042   0.75000   0.00000  Uiso   1.00
O1046  O     0.83333   0.53959   0.68573   0.00000  Uiso   1.00
O1047  O     0.83334   0.46041   0.81427   0.00000  Uiso   1.00
O1048  O     0.83334   0.53959   0.81427   0.00000  Uiso   1.00
O1049  O     0.83333   0.46041   0.68573   0.00000  Uiso   1.00
O1050  O     0.81910   0.58421   0.61406   0.00000  Uiso   1.00
C1051  C     0.08734   0.83333   0.74997   0.00000  Uiso   1.00
C1052  C     0.31207   0.87596   0.75058   0.00000  Uiso   1.00
C1053  C     0.31202   0.79070   0.74934   0.00000  Uiso   1.00
C1054  C     0.02130   0.87596   0.75056   0.00000  Uiso   1.00
C1055  C     0.16214   0.87587   0.54662   0.00000  Uiso   1.00
C1056  C     0.19312   0.80312   0.95214   0.00000  Uiso   1.00
C1057  C     0.14146   0.86430   0.95159   0.00000  Uiso   1.00
C1058  C     0.17384   0.79211   0.54707   0.00000  Uiso   1.00
C1059  C     0.16205   0.87632   0.59257   0.00000  Uiso   1.00
C1060  C     0.19145   0.80074   0.90624   0.00000  Uiso   1.00
C1061  C     0.14235   0.86569   0.90564   0.00000  Uiso   1.00
C1062  C     0.24599   0.83334   0.75000   0.00000  Uiso   1.00
C1063  C     0.17524   0.79189   0.59290   0.00000  Uiso   1.00
C1064  C     0.16782   0.83387   0.61625   0.00000  Uiso   1.00
C1065  C     0.16678   0.83308   0.88292   0.00000  Uiso   1.00
C1066  C     0.16783   0.83397   0.52362   0.00000  Uiso   1.00
C1067  C     0.16743   0.83384   0.97512   0.00000  Uiso   1.00
C1068  C     0.29060   0.83334   0.74997   0.00000  Uiso   1.00
C1069  C     0.04273   0.83332   0.74995   0.00000  Uiso   1.00
C1070  C     0.18678   0.94778   0.61278   0.00000  Uiso   1.00
C1071  C     0.20441   0.72380   0.89168   0.00000  Uiso   1.00
C1072  C     0.13049   0.94211   0.88743   0.00000  Uiso   1.00
C1073  C     0.16688   0.83348   0.66480   0.00000  Uiso   1.00
C1074  C     0.22491   0.74250   0.61750   0.00000  Uiso   1.00
C1075  C     0.16674   0.83323   0.83490   0.00000  Uiso   1.00
C1076  C     0.13902   0.69161   0.72493   0.00000  Uiso   1.00
C1077  C     0.19440   0.97507   0.77496   0.00000  Uiso   1.00
C1078  C     0.19452   0.69138   0.77477   0.00000  Uiso   1.00
C1079  C     0.13904   0.97530   0.72491   0.00000  Uiso   1.00
C1080  C     0.02126   0.79070   0.74932   0.00000  Uiso   1.00
Cu1081 Cu    0.16667   0.88022   0.75000   0.00000  Uiso   1.00
Cu1082 Cu    0.16667   0.78645   0.75000   0.00000  Uiso   1.00
H1083  H     0.11695   0.71045   0.70479   0.00000  Uiso   1.00
H1084  H     0.29607   0.90929   0.75109   0.00000  Uiso   1.00
H1085  H     0.29599   0.75738   0.74884   0.00000  Uiso   1.00
H1086  H     0.03733   0.90928   0.75106   0.00000  Uiso   1.00
H1087  H     0.21489   0.93053   0.62638   0.00000  Uiso   1.00
H1088  H     0.18013   0.97860   0.63368   0.00000  Uiso   1.00
H1089  H     0.19249   0.96092   0.57884   0.00000  Uiso   1.00
H1090  H     0.22443   0.69989   0.87268   0.00000  Uiso   1.00
H1091  H     0.17214   0.71821   0.88038   0.00000  Uiso   1.00
H1092  H     0.20777   0.71364   0.92689   0.00000  Uiso   1.00
H1093  H     0.11247   0.96508   0.86493   0.00000  Uiso   1.00
H1094  H     0.21657   0.95624   0.79499   0.00000  Uiso   1.00
H1095  H     0.16347   0.94562   0.87810   0.00000  Uiso   1.00
H1096  H     0.12569   0.95496   0.92151   0.00000  Uiso   1.00
H1097  H     0.23069   0.71055   0.63756   0.00000  Uiso   1.00
H1098  H     0.24071   0.77219   0.63430   0.00000  Uiso   1.00
H1099  H     0.23843   0.73669   0.58439   0.00000  Uiso   1.00
H1100  H     0.21699   0.71008   0.79427   0.00000  Uiso   1.00
H1101  H     0.11700   0.95665   0.70473   0.00000  Uiso   1.00
H1102  H     0.15754   0.90860   0.52906   0.00000  Uiso   1.00
H1103  H     0.21487   0.78110   0.96971   0.00000  Uiso   1.00
H1104  H     0.12016   0.88691   0.96867   0.00000  Uiso   1.00
H1105  H     0.17731   0.75909   0.53002   0.00000  Uiso   1.00
H1106  H     0.03725   0.75737   0.74881   0.00000  Uiso   1.00
N1107  N     0.16667   0.95069   0.75000   0.00000  Uiso   1.00
N1108  N     0.16667   0.71598   0.75000   0.00000  Uiso   1.00
O1109  O     0.10655   0.87291   0.75000   0.00000  Uiso   1.00
O1110  O     0.21721   0.77045   0.88389   0.00000  Uiso   1.00
O1111  O     0.11631   0.89558   0.88267   0.00000  Uiso   1.00
O1112  O     0.18206   0.74980   0.61455   0.00000  Uiso   1.00
O1113  O     0.22679   0.79375   0.75001   0.00000  Uiso   1.00
O1114  O     0.22679   0.87291   0.75001   0.00000  Uiso   1.00
O1115  O     0.10655   0.79375   0.75000   0.00000  Uiso   1.00
O1116  O     0.16666   0.87293   0.68573   0.00000  Uiso   1.00
O1117  O     0.16667   0.79374   0.81427   0.00000  Uiso   1.00
O1118  O     0.16667   0.87293   0.81427   0.00000  Uiso   1.00
O1119  O     0.16666   0.79374   0.68573   0.00000  Uiso   1.00
O1120  O     0.15244   0.91755   0.61406   0.00000  Uiso   1.00
C1121  C     0.42067   0.83333   0.74997   0.00000  Uiso   1.00
C1122  C     0.64540   0.87596   0.75058   0.00000  Uiso   1.00
C1123  C     0.64535   0.79070   0.74934   0.00000  Uiso   1.00
C1124  C     0.35463   0.87596   0.75056   0.00000  Uiso   1.00
C1125  C     0.49548   0.87587   0.54662   0.00000  Uiso   1.00
C1126  C     0.52645   0.80312   0.95214   0.00000  Uiso   1.00
C1127  C     0.47479   0.86430   0.95159   0.00000  Uiso   1.00
C1128  C     0.50717   0.79211   0.54707   0.00000  Uiso   1.00
C1129  C     0.49539   0.87632   0.59257   0.00000  Uiso   1.00
C1130  C     0.52478   0.80074   0.90624   0.00000  Uiso   1.00
C1131  C     0.47568   0.86569   0.90564   0.00000  Uiso   1.00
C1132  C     0.57933   0.83334   0.75000   0.00000  Uiso   1.00
C1133  C     0.50858   0.79189   0.59290   0.00000  Uiso   1.00
C1134  C     0.50115   0.83387   0.61625   0.00000  Uiso   1.00
C1135  C     0.50011   0.83308   0.88292   0.00000  Uiso   1.00
C1136  C     0.50116   0.83397   0.52362   0.00000  Uiso   1.00
C1137  C     0.50077   0.83384   0.97512   0.00000  Uiso   1.00
C1138  C     0.62393   0.83334   0.74997   0.00000  Uiso   1.00
C1139  C     0.37606   0.83332   0.74995   0.00000  Uiso   1.00
C1140  C     0.52011   0.94778   0.61278   0.00000  Uiso   1.00
C1141  C     0.53775   0.72380   0.89168   0.00000  Uiso   1.00
C1142  C     0.46382   0.94211   0.88743   0.00000  Uiso   1.00
C1143  C     0.50021   0.83348   0.66480   0.00000  Uiso   1.00
C1144  C     0.55825   0.74250   0.61750   0.00000  Uiso   1.00
C1145  C     0.50008   0.83323   0.83490   0.00000  Uiso   1.00
C1146  C     0.47236   0.69161   0.72493   0.00000  Uiso   1.00
C1147  C     0.52773   0.97507   0.77496   0.00000  Uiso   1.00
C1148  C     0.52785   0.69138   0.77477   0.00000  Uiso   1.00
C1149  C     0.47237   0.97530   0.72491   0.00000  Uiso   1.00
C1150  C     0.35459   0.79070   0.74932   0.00000  Uiso   1.00
Cu1151 Cu    0.50000   0.88022   0.75000   0.00000  Uiso   1.00
Cu1152 Cu    0.50000   0.78645   0.75000   0.00000  Uiso   1.00
H1153  H     0.45028   0.71045   0.70479   0.00000  Uiso   1.00
H1154  H     0.62940   0.90929   0.75109   0.00000  Uiso   1.00
H1155  H     0.62932   0.75738   0.74884   0.00000  Uiso   1.00
H1156  H     0.37067   0.90928   0.75106   0.00000  Uiso   1.00
H1157  H     0.54822   0.93053   0.62638   0.00000  Uiso   1.00
H1158  H     0.51346   0.97860   0.63368   0.00000  Uiso   1.00
H1159  H     0.52582   0.96092   0.57884   0.00000  Uiso   1.00
H1160  H     0.55776   0.69989   0.87268   0.00000  Uiso   1.00
H1161  H     0.50548   0.71821   0.88038   0.00000  Uiso   1.00
H1162  H     0.54111   0.71364   0.92689   0.00000  Uiso   1.00
H1163  H     0.44580   0.96508   0.86493   0.00000  Uiso   1.00
H1164  H     0.54990   0.95624   0.79499   0.00000  Uiso   1.00
H1165  H     0.49680   0.94562   0.87810   0.00000  Uiso   1.00
H1166  H     0.45902   0.95496   0.92151   0.00000  Uiso   1.00
H1167  H     0.56403   0.71055   0.63756   0.00000  Uiso   1.00
H1168  H     0.57404   0.77219   0.63430   0.00000  Uiso   1.00
H1169  H     0.57177   0.73669   0.58439   0.00000  Uiso   1.00
H1170  H     0.55033   0.71008   0.79427   0.00000  Uiso   1.00
H1171  H     0.45033   0.95665   0.70473   0.00000  Uiso   1.00
H1172  H     0.49087   0.90860   0.52906   0.00000  Uiso   1.00
H1173  H     0.54820   0.78110   0.96971   0.00000  Uiso   1.00
H1174  H     0.45349   0.88691   0.96867   0.00000  Uiso   1.00
H1175  H     0.51064   0.75909   0.53002   0.00000  Uiso   1.00
H1176  H     0.37059   0.75737   0.74881   0.00000  Uiso   1.00
N1177  N     0.50000   0.95069   0.75000   0.00000  Uiso   1.00
N1178  N     0.50000   0.71598   0.75000   0.00000  Uiso   1.00
O1179  O     0.43988   0.87291   0.75000   0.00000  Uiso   1.00
O1180  O     0.55054   0.77045   0.88389   0.00000  Uiso   1.00
O1181  O     0.44964   0.89558   0.88267   0.00000  Uiso   1.00
O1182  O     0.51539   0.74980   0.61455   0.00000  Uiso   1.00
O1183  O     0.56012   0.79375   0.75001   0.00000  Uiso   1.00
O1184  O     0.56012   0.87291   0.75001   0.00000  Uiso   1.00
O1185  O     0.43988   0.79375   0.75000   0.00000  Uiso   1.00
O1186  O     0.50000   0.87293   0.68573   0.00000  Uiso   1.00
O1187  O     0.50000   0.79374   0.81427   0.00000  Uiso   1.00
O1188  O     0.50000   0.87293   0.81427   0.00000  Uiso   1.00
O1189  O     0.50000   0.79374   0.68573   0.00000  Uiso   1.00
O1190  O     0.48577   0.91755   0.61406   0.00000  Uiso   1.00
C1191  C     0.75400   0.83333   0.74997   0.00000  Uiso   1.00
C1192  C     0.97873   0.87596   0.75058   0.00000  Uiso   1.00
C1193  C     0.97869   0.79070   0.74934   0.00000  Uiso   1.00
C1194  C     0.68797   0.87596   0.75056   0.00000  Uiso   1.00
C1195  C     0.82881   0.87587   0.54662   0.00000  Uiso   1.00
C1196  C     0.85978   0.80312   0.95214   0.00000  Uiso   1.00
C1197  C     0.80812   0.86430   0.95159   0.00000  Uiso   1.00
C1198  C     0.84051   0.79211   0.54707   0.00000  Uiso   1.00
C1199  C     0.82872   0.87632   0.59257   0.00000  Uiso   1.00
C1200  C     0.85812   0.80074   0.90624   0.00000  Uiso   1.00
C1201  C     0.80901   0.86569   0.90564   0.00000  Uiso   1.00
C1202  C     0.91266   0.83334   0.75000   0.00000  Uiso   1.00
C1203  C     0.84191   0.79189   0.59290   0.00000  Uiso   1.00
C1204  C     0.83448   0.83387   0.61625   0.00000  Uiso   1.00
C1205  C     0.83344   0.83308   0.88292   0.00000  Uiso   1.00
C1206  C     0.83450   0.83397   0.52362   0.00000  Uiso   1.00
C1207  C     0.83410   0.83384   0.97512   0.00000  Uiso   1.00
C1208  C     0.95726   0.83334   0.74997   0.00000  Uiso   1.00
C1209  C     0.70939   0.83332   0.74995   0.00000  Uiso   1.00
C1210  C     0.85345   0.94778   0.61278   0.00000  Uiso   1.00
C1211  C     0.87108   0.72380   0.89168   0.00000  Uiso   1.00
C1212  C     0.79716   0.94211   0.88743   0.00000  Uiso   1.00
C1213  C     0.83355   0.83348   0.66480   0.00000  Uiso   1.00
C1214  C     0.89158   0.74250   0.61750   0.00000  Uiso   1.00
C1215  C     0.83341   0.83323   0.83490   0.00000  Uiso   1.00
C1216  C     0.80569   0.69161   0.72493   0.00000  Uiso   1.00
C1217  C     0.86106   0.97507   0.77496   0.00000  Uiso   1.00
C1218  C     0.86118   0.69138   0.77477   0.00000  Uiso   1.00
C1219  C     0.80571   0.97530   0.72491   0.00000  Uiso   1.00
C1220  C     0.68792   0.79070   0.74932   0.00000  Uiso   1.00
Cu1221 Cu    0.83333   0.88022   0.75000   0.00000  Uiso   1.00
Cu1222 Cu    0.83333   0.78645   0.75000   0.00000  Uiso   1.00
H1223  H     0.78362   0.71045   0.70479   0.00000  Uiso   1.00
H1224  H     0.96273   0.90929   0.75109   0.00000  Uiso   1.00
H1225  H     0.96265   0.75738   0.74884   0.00000  Uiso   1.00
H1226  H     0.70400   0.90928   0.75106   0.00000  Uiso   1.00
H1227  H     0.88155   0.93053   0.62638   0.00000  Uiso   1.00
H1228  H     0.84680   0.97860   0.63368   0.00000  Uiso   1.00
H1229  H     0.85916   0.96092   0.57884   0.00000  Uiso   1.00
H1230  H     0.89109   0.69989   0.87268   0.00000  Uiso   1.00
H1231  H     0.83881   0.71821   0.88038   0.00000  Uiso   1.00
H1232  H     0.87444   0.71364   0.92689   0.00000  Uiso   1.00
H1233  H     0.77914   0.96508   0.86493   0.00000  Uiso   1.00
H1234  H     0.88323   0.95624   0.79499   0.00000  Uiso   1.00
H1235  H     0.83014   0.94562   0.87810   0.00000  Uiso   1.00
H1236  H     0.79235   0.95496   0.92151   0.00000  Uiso   1.00
H1237  H     0.89736   0.71055   0.63756   0.00000  Uiso   1.00
H1238  H     0.90737   0.77219   0.63430   0.00000  Uiso   1.00
H1239  H     0.90510   0.73669   0.58439   0.00000  Uiso   1.00
H1240  H     0.88366   0.71008   0.79427   0.00000  Uiso   1.00
H1241  H     0.78366   0.95665   0.70473   0.00000  Uiso   1.00
H1242  H     0.82421   0.90860   0.52906   0.00000  Uiso   1.00
H1243  H     0.88153   0.78110   0.96971   0.00000  Uiso   1.00
H1244  H     0.78682   0.88691   0.96867   0.00000  Uiso   1.00
H1245  H     0.84398   0.75909   0.53002   0.00000  Uiso   1.00
H1246  H     0.70392   0.75737   0.74881   0.00000  Uiso   1.00
N1247  N     0.83333   0.95069   0.75000   0.00000  Uiso   1.00
N1248  N     0.83333   0.71598   0.75000   0.00000  Uiso   1.00
O1249  O     0.77321   0.87291   0.75000   0.00000  Uiso   1.00
O1250  O     0.88387   0.77045   0.88389   0.00000  Uiso   1.00
O1251  O     0.78297   0.89558   0.88267   0.00000  Uiso   1.00
O1252  O     0.84872   0.74980   0.61455   0.00000  Uiso   1.00
O1253  O     0.89345   0.79375   0.75001   0.00000  Uiso   1.00
O1254  O     0.89345   0.87291   0.75001   0.00000  Uiso   1.00
O1255  O     0.77321   0.79375   0.75000   0.00000  Uiso   1.00
O1256  O     0.83333   0.87293   0.68573   0.00000  Uiso   1.00
O1257  O     0.83334   0.79374   0.81427   0.00000  Uiso   1.00
O1258  O     0.83334   0.87293   0.81427   0.00000  Uiso   1.00
O1259  O     0.83333   0.79374   0.68573   0.00000  Uiso   1.00
O1260  O     0.81910   0.91755   0.61406   0.00000  Uiso   1.00
loop_
_geom_bond_atom_site_label_1
_geom_bond_atom_site_label_2
_geom_bond_distance
_geom_bond_site_symmetry_2
_ccdc_geom_bond_type
C1     O65     1.290   .     A
C1     O59     1.289   .     A
C1     C19     1.450   .     S
C2     C18     1.401   .     A
C2     H34     1.083   .     S
C2     C74     1.383   .     S
C3     H35     1.083   .     S
C3     C18     1.401   .     A
C3     C100    1.383   .     S
C4     H36     1.083   .     S
C4     C19     1.401   .     A
C4     C142    1.383   1_455 S
C5     H52     1.082   .     S
C5     C9      1.396   .     A
C5     C16     1.400   .     A
C6     C10     1.397   .     A
C6     H53     1.082   .     S
C6     C17     1.401   .     A
C7     C11     1.397   .     A
C7     H54     1.082   .     S
C7     C17     1.402   .     A
C8     C13     1.393   .     A
C8     C16     1.400   .     A
C8     H55     1.083   .     S
C9     C14     1.416   .     A
C9     O70     1.384   .     S
C10    C15     1.408   .     A
C10    O60     1.386   .     S
C11    C15     1.408   .     A
C11    O61     1.385   .     S
C12    O64     1.290   .     A
C12    C18     1.450   .     S
C12    O63     1.289   .     A
C13    C14     1.416   .     A
C13    O62     1.383   .     S
C14    C23     1.475   .     S
C15    C25     1.459   .     S
C16    C647    1.473   1_554 S
C17    C646    1.473   .     S
C19    C30     1.401   .     A
C20    H38     1.109   .     S
C20    H37     1.114   .     S
C20    O70     1.410   .     S
C20    H39     1.112   .     S
C21    O60     1.412   .     S
C21    H41     1.114   .     S
C21    H42     1.112   .     S
C21    H40     1.109   .     S
C22    H43     1.109   .     S
C22    O61     1.412   .     S
C22    H46     1.112   .     S
C22    H45     1.114   .     S
C23    O69     1.296   .     A
C23    O66     1.295   .     A
C24    H47     1.109   .     S
C24    H48     1.114   .     S
C24    H49     1.113   .     S
C24    O62     1.411   .     S
C25    O67     1.291   .     A
C25    O68     1.291   .     A
C26    H33     1.082   .     S
C26    N58     1.367   .     A
C26    C449    1.415   1_545 S
C27    H44     1.082   .     S
C27    N57     1.367   .     A
C27    C238    1.415   .     S
C28    N58     1.366   .     A
C28    H50     1.080   .     S
C28    C447    1.415   1_545 S
C29    N57     1.366   .     A
C29    H51     1.082   .     S
C29    C236    1.415   .     S
C30    H56     1.083   .     S
C30    C143    1.383   1_455 S
Cu31   N57     2.009   .     S
Cu31   O66     1.965   .     S
Cu31   O68     1.962   .     S
Cu31   O59     1.965   .     S
Cu31   O64     1.965   .     S
Cu31   Cu32    2.673   .     S
Cu32   N58     2.009   .     S
Cu32   O69     1.962   .     S
Cu32   O67     1.965   .     S
Cu32   O63     1.965   .     S
Cu32   O65     1.965   .     S
C71    O135    1.290   .     A
C71    O129    1.289   .     A
C71    C89     1.450   .     S
C72    C88     1.401   .     A
C72    H104    1.083   .     S
C72    C144    1.383   .     S
C73    H105    1.083   .     S
C73    C88     1.401   .     A
C73    C170    1.383   .     S
C74    H106    1.083   .     S
C74    C89     1.401   .     A
C75    H122    1.082   .     S
C75    C79     1.396   .     A
C75    C86     1.400   .     A
C76    C80     1.397   .     A
C76    H123    1.082   .     S
C76    C87     1.401   .     A
C77    C81     1.397   .     A
C77    H124    1.082   .     S
C77    C87     1.402   .     A
C78    C83     1.393   .     A
C78    C86     1.400   .     A
C78    H125    1.083   .     S
C79    C84     1.416   .     A
C79    O140    1.384   .     S
C80    C85     1.408   .     A
C80    O130    1.386   .     S
C81    C85     1.408   .     A
C81    O131    1.385   .     S
C82    O134    1.290   .     A
C82    C88     1.450   .     S
C82    O133    1.289   .     A
C83    C84     1.416   .     A
C83    O132    1.383   .     S
C84    C93     1.475   .     S
C85    C95     1.459   .     S
C86    C717    1.473   1_554 S
C87    C716    1.473   .     S
C89    C100    1.401   .     A
C90    H108    1.109   .     S
C90    H107    1.114   .     S
C90    O140    1.410   .     S
C90    H109    1.112   .     S
C91    O130    1.412   .     S
C91    H111    1.114   .     S
C91    H112    1.112   .     S
C91    H110    1.109   .     S
C92    H113    1.109   .     S
C92    O131    1.412   .     S
C92    H116    1.112   .     S
C92    H115    1.114   .     S
C93    O139    1.296   .     A
C93    O136    1.295   .     A
C94    H117    1.109   .     S
C94    H118    1.114   .     S
C94    H119    1.113   .     S
C94    O132    1.411   .     S
C95    O137    1.291   .     A
C95    O138    1.291   .     A
C96    H103    1.082   .     S
C96    N128    1.367   .     A
C96    C519    1.415   1_545 S
C97    H114    1.082   .     S
C97    N127    1.367   .     A
C97    C308    1.415   .     S
C98    N128    1.366   .     A
C98    H120    1.080   .     S
C98    C517    1.415   1_545 S
C99    N127    1.366   .     A
C99    H121    1.082   .     S
C99    C306    1.415   .     S
C100   H126    1.083   .     S
Cu101  N127    2.009   .     S
Cu101  O136    1.965   .     S
Cu101  O138    1.962   .     S
Cu101  O129    1.965   .     S
Cu101  O134    1.965   .     S
Cu101  Cu102   2.673   .     S
Cu102  N128    2.009   .     S
Cu102  O139    1.962   .     S
Cu102  O137    1.965   .     S
Cu102  O133    1.965   .     S
Cu102  O135    1.965   .     S
C141   O205    1.290   .     A
C141   O199    1.289   .     A
C141   C159    1.450   .     S
C142   C158    1.401   .     A
C142   H174    1.083   .     S
C142   C4      1.383   1_655 S
C143   H175    1.083   .     S
C143   C158    1.401   .     A
C143   C30     1.383   1_655 S
C144   H176    1.083   .     S
C144   C159    1.401   .     A
C145   H192    1.082   .     S
C145   C149    1.396   .     A
C145   C156    1.400   .     A
C146   C150    1.397   .     A
C146   H193    1.082   .     S
C146   C157    1.401   .     A
C147   C151    1.397   .     A
C147   H194    1.082   .     S
C147   C157    1.402   .     A
C148   C153    1.393   .     A
C148   C156    1.400   .     A
C148   H195    1.083   .     S
C149   C154    1.416   .     A
C149   O210    1.384   .     S
C150   C155    1.408   .     A
C150   O200    1.386   .     S
C151   C155    1.408   .     A
C151   O201    1.385   .     S
C152   O204    1.290   .     A
C152   C158    1.450   .     S
C152   O203    1.289   .     A
C153   C154    1.416   .     A
C153   O202    1.383   .     S
C154   C163    1.475   .     S
C155   C165    1.459   .     S
C156   C787    1.473   1_554 S
C157   C786    1.473   .     S
C159   C170    1.401   .     A
C160   H178    1.109   .     S
C160   H177    1.114   .     S
C160   O210    1.410   .     S
C160   H179    1.112   .     S
C161   O200    1.412   .     S
C161   H181    1.114   .     S
C161   H182    1.112   .     S
C161   H180    1.109   .     S
C162   H183    1.109   .     S
C162   O201    1.412   .     S
C162   H186    1.112   .     S
C162   H185    1.114   .     S
C163   O209    1.296   .     A
C163   O206    1.295   .     A
C164   H187    1.109   .     S
C164   H188    1.114   .     S
C164   H189    1.113   .     S
C164   O202    1.411   .     S
C165   O207    1.291   .     A
C165   O208    1.291   .     A
C166   H173    1.082   .     S
C166   N198    1.367   .     A
C166   C589    1.415   1_545 S
C167   H184    1.082   .     S
C167   N197    1.367   .     A
C167   C378    1.415   .     S
C168   N198    1.366   .     A
C168   H190    1.080   .     S
C168   C587    1.415   1_545 S
C169   N197    1.366   .     A
C169   H191    1.082   .     S
C169   C376    1.415   .     S
C170   H196    1.083   .     S
Cu171  N197    2.009   .     S
Cu171  O206    1.965   .     S
Cu171  O208    1.962   .     S
Cu171  O199    1.965   .     S
Cu171  O204    1.965   .     S
Cu171  Cu172   2.673   .     S
Cu172  N198    2.009   .     S
Cu172  O209    1.962   .     S
Cu172  O207    1.965   .     S
Cu172  O203    1.965   .     S
Cu172  O205    1.965   .     S
C211   O275    1.290   .     A
C211   O269    1.289   .     A
C211   C229    1.450   .     S
C212   C228    1.401   .     A
C212   H244    1.083   .     S
C212   C284    1.383   .     S
C213   H245    1.083   .     S
C213   C228    1.401   .     A
C213   C310    1.383   .     S
C214   H246    1.083   .     S
C214   C229    1.401   .     A
C214   C352    1.383   1_455 S
C215   H262    1.082   .     S
C215   C219    1.396   .     A
C215   C226    1.400   .     A
C216   C220    1.397   .     A
C216   H263    1.082   .     S
C216   C227    1.401   .     A
C217   C221    1.397   .     A
C217   H264    1.082   .     S
C217   C227    1.402   .     A
C218   C223    1.393   .     A
C218   C226    1.400   .     A
C218   H265    1.083   .     S
C219   C224    1.416   .     A
C219   O280    1.384   .     S
C220   C225    1.408   .     A
C220   O270    1.386   .     S
C221   C225    1.408   .     A
C221   O271    1.385   .     S
C222   O274    1.290   .     A
C222   C228    1.450   .     S
C222   O273    1.289   .     A
C223   C224    1.416   .     A
C223   O272    1.383   .     S
C224   C233    1.475   .     S
C225   C235    1.459   .     S
C226   C857    1.473   1_554 S
C227   C856    1.473   .     S
C229   C240    1.401   .     A
C230   H248    1.109   .     S
C230   H247    1.114   .     S
C230   O280    1.410   .     S
C230   H249    1.112   .     S
C231   O270    1.412   .     S
C231   H251    1.114   .     S
C231   H252    1.112   .     S
C231   H250    1.109   .     S
C232   H253    1.109   .     S
C232   O271    1.412   .     S
C232   H256    1.112   .     S
C232   H255    1.114   .     S
C233   O279    1.296   .     A
C233   O276    1.295   .     A
C234   H257    1.109   .     S
C234   H258    1.114   .     S
C234   H259    1.113   .     S
C234   O272    1.411   .     S
C235   O277    1.291   .     A
C235   O278    1.291   .     A
C236   H243    1.082   .     S
C236   N268    1.367   .     A
C237   H254    1.082   .     S
C237   N267    1.367   .     A
C237   C448    1.415   .     S
C238   N268    1.366   .     A
C238   H260    1.080   .     S
C239   N267    1.366   .     A
C239   H261    1.082   .     S
C239   C446    1.415   .     S
C240   H266    1.083   .     S
C240   C353    1.383   1_455 S
Cu241  N267    2.009   .     S
Cu241  O276    1.965   .     S
Cu241  O278    1.962   .     S
Cu241  O269    1.965   .     S
Cu241  O274    1.965   .     S
Cu241  Cu242   2.673   .     S
Cu242  N268    2.009   .     S
Cu242  O279    1.962   .     S
Cu242  O277    1.965   .     S
Cu242  O273    1.965   .     S
Cu242  O275    1.965   .     S
C281   O345    1.290   .     A
C281   O339    1.289   .     A
C281   C299    1.450   .     S
C282   C298    1.401   .     A
C282   H314    1.083   .     S
C282   C354    1.383   .     S
C283   H315    1.083   .     S
C283   C298    1.401   .     A
C283   C380    1.383   .     S
C284   H316    1.083   .     S
C284   C299    1.401   .     A
C285   H332    1.082   .     S
C285   C289    1.396   .     A
C285   C296    1.400   .     A
C286   C290    1.397   .     A
C286   H333    1.082   .     S
C286   C297    1.401   .     A
C287   C291    1.397   .     A
C287   H334    1.082   .     S
C287   C297    1.402   .     A
C288   C293    1.393   .     A
C288   C296    1.400   .     A
C288   H335    1.083   .     S
C289   C294    1.416   .     A
C289   O350    1.384   .     S
C290   C295    1.408   .     A
C290   O340    1.386   .     S
C291   C295    1.408   .     A
C291   O341    1.385   .     S
C292   O344    1.290   .     A
C292   C298    1.450   .     S
C292   O343    1.289   .     A
C293   C294    1.416   .     A
C293   O342    1.383   .     S
C294   C303    1.475   .     S
C295   C305    1.459   .     S
C296   C927    1.473   1_554 S
C297   C926    1.473   .     S
C299   C310    1.401   .     A
C300   H318    1.109   .     S
C300   H317    1.114   .     S
C300   O350    1.410   .     S
C300   H319    1.112   .     S
C301   O340    1.412   .     S
C301   H321    1.114   .     S
C301   H322    1.112   .     S
C301   H320    1.109   .     S
C302   H323    1.109   .     S
C302   O341    1.412   .     S
C302   H326    1.112   .     S
C302   H325    1.114   .     S
C303   O349    1.296   .     A
C303   O346    1.295   .     A
C304   H327    1.109   .     S
C304   H328    1.114   .     S
C304   H329    1.113   .     S
C304   O342    1.411   .     S
C305   O347    1.291   .     A
C305   O348    1.291   .     A
C306   H313    1.082   .     S
C306   N338    1.367   .     A
C307   H324    1.082   .     S
C307   N337    1.367   .     A
C307   C518    1.415   .     S
C308   N338    1.366   .     A
C308   H330    1.080   .     S
C309   N337    1.366   .     A
C309   H331    1.082   .     S
C309   C516    1.415   .     S
C310   H336    1.083   .     S
Cu311  N337    2.009   .     S
Cu311  O346    1.965   .     S
Cu311  O348    1.962   .     S
Cu311  O339    1.965   .     S
Cu311  O344    1.965   .     S
Cu311  Cu312   2.673   .     S
Cu312  N338    2.009   .     S
Cu312  O349    1.962   .     S
Cu312  O347    1.965   .     S
Cu312  O343    1.965   .     S
Cu312  O345    1.965   .     S
C351   O415    1.290   .     A
C351   O409    1.289   .     A
C351   C369    1.450   .     S
C352   C368    1.401   .     A
C352   H384    1.083   .     S
C352   C214    1.383   1_655 S
C353   H385    1.083   .     S
C353   C368    1.401   .     A
C353   C240    1.383   1_655 S
C354   H386    1.083   .     S
C354   C369    1.401   .     A
C355   H402    1.082   .     S
C355   C359    1.396   .     A
C355   C366    1.400   .     A
C356   C360    1.397   .     A
C356   H403    1.082   .     S
C356   C367    1.401   .     A
C357   C361    1.397   .     A
C357   H404    1.082   .     S
C357   C367    1.402   .     A
C358   C363    1.393   .     A
C358   C366    1.400   .     A
C358   H405    1.083   .     S
C359   C364    1.416   .     A
C359   O420    1.384   .     S
C360   C365    1.408   .     A
C360   O410    1.386   .     S
C361   C365    1.408   .     A
C361   O411    1.385   .     S
C362   O414    1.290   .     A
C362   C368    1.450   .     S
C362   O413    1.289   .     A
C363   C364    1.416   .     A
C363   O412    1.383   .     S
C364   C373    1.475   .     S
C365   C375    1.459   .     S
C366   C997    1.473   1_554 S
C367   C996    1.473   .     S
C369   C380    1.401   .     A
C370   H388    1.109   .     S
C370   H387    1.114   .     S
C370   O420    1.410   .     S
C370   H389    1.112   .     S
C371   O410    1.412   .     S
C371   H391    1.114   .     S
C371   H392    1.112   .     S
C371   H390    1.109   .     S
C372   H393    1.109   .     S
C372   O411    1.412   .     S
C372   H396    1.112   .     S
C372   H395    1.114   .     S
C373   O419    1.296   .     A
C373   O416    1.295   .     A
C374   H397    1.109   .     S
C374   H398    1.114   .     S
C374   H399    1.113   .     S
C374   O412    1.411   .     S
C375   O417    1.291   .     A
C375   O418    1.291   .     A
C376   H383    1.082   .     S
C376   N408    1.367   .     A
C377   H394    1.082   .     S
C377   N407    1.367   .     A
C377   C588    1.415   .     S
C378   N408    1.366   .     A
C378   H400    1.080   .     S
C379   N407    1.366   .     A
C379   H401    1.082   .     S
C379   C586    1.415   .     S
C380   H406    1.083   .     S
Cu381  N407    2.009   .     S
Cu381  O416    1.965   .     S
Cu381  O418    1.962   .     S
Cu381  O409    1.965   .     S
Cu381  O414    1.965   .     S
Cu381  Cu382   2.673   .     S
Cu382  N408    2.009   .     S
Cu382  O419    1.962   .     S
Cu382  O417    1.965   .     S
Cu382  O413    1.965   .     S
Cu382  O415    1.965   .     S
C421   O485    1.290   .     A
C421   O479    1.289   .     A
C421   C439    1.450   .     S
C422   C438    1.401   .     A
C422   H454    1.083   .     S
C422   C494    1.383   .     S
C423   H455    1.083   .     S
C423   C438    1.401   .     A
C423   C520    1.383   .     S
C424   H456    1.083   .     S
C424   C439    1.401   .     A
C424   C562    1.383   1_455 S
C425   H472    1.082   .     S
C425   C429    1.396   .     A
C425   C436    1.400   .     A
C426   C430    1.397   .     A
C426   H473    1.082   .     S
C426   C437    1.401   .     A
C427   C431    1.397   .     A
C427   H474    1.082   .     S
C427   C437    1.402   .     A
C428   C433    1.393   .     A
C428   C436    1.400   .     A
C428   H475    1.083   .     S
C429   C434    1.416   .     A
C429   O490    1.384   .     S
C430   C435    1.408   .     A
C430   O480    1.386   .     S
C431   C435    1.408   .     A
C431   O481    1.385   .     S
C432   O484    1.290   .     A
C432   C438    1.450   .     S
C432   O483    1.289   .     A
C433   C434    1.416   .     A
C433   O482    1.383   .     S
C434   C443    1.475   .     S
C435   C445    1.459   .     S
C436   C1067   1.473   1_554 S
C437   C1066   1.473   .     S
C439   C450    1.401   .     A
C440   H458    1.109   .     S
C440   H457    1.114   .     S
C440   O490    1.410   .     S
C440   H459    1.112   .     S
C441   O480    1.412   .     S
C441   H461    1.114   .     S
C441   H462    1.112   .     S
C441   H460    1.109   .     S
C442   H463    1.109   .     S
C442   O481    1.412   .     S
C442   H466    1.112   .     S
C442   H465    1.114   .     S
C443   O489    1.296   .     A
C443   O486    1.295   .     A
C444   H467    1.109   .     S
C444   H468    1.114   .     S
C444   H469    1.113   .     S
C444   O482    1.411   .     S
C445   O487    1.291   .     A
C445   O488    1.291   .     A
C446   H453    1.082   .     S
C446   N478    1.367   .     A
C447   H464    1.082   .     S
C447   N477    1.367   .     A
C447   C28     1.415   1_565 S
C448   N478    1.366   .     A
C448   H470    1.080   .     S
C449   N477    1.366   .     A
C449   H471    1.082   .     S
C449   C26     1.415   1_565 S
C450   H476    1.083   .     S
C450   C563    1.383   1_455 S
Cu451  N477    2.009   .     S
Cu451  O486    1.965   .     S
Cu451  O488    1.962   .     S
Cu451  O479    1.965   .     S
Cu451  O484    1.965   .     S
Cu451  Cu452   2.673   .     S
Cu452  N478    2.009   .     S
Cu452  O489    1.962   .     S
Cu452  O487    1.965   .     S
Cu452  O483    1.965   .     S
Cu452  O485    1.965   .     S
C491   O555    1.290   .     A
C491   O549    1.289   .     A
C491   C509    1.450   .     S
C492   C508    1.401   .     A
C492   H524    1.083   .     S
C492   C564    1.383   .     S
C493   H525    1.083   .     S
C493   C508    1.401   .     A
C493   C590    1.383   .     S
C494   H526    1.083   .     S
C494   C509    1.401   .     A
C495   H542    1.082   .     S
C495   C499    1.396   .     A
C495   C506    1.400   .     A
C496   C500    1.397   .     A
C496   H543    1.082   .     S
C496   C507    1.401   .     A
C497   C501    1.397   .     A
C497   H544    1.082   .     S
C497   C507    1.402   .     A
C498   C503    1.393   .     A
C498   C506    1.400   .     A
C498   H545    1.083   .     S
C499   C504    1.416   .     A
C499   O560    1.384   .     S
C500   C505    1.408   .     A
C500   O550    1.386   .     S
C501   C505    1.408   .     A
C501   O551    1.385   .     S
C502   O554    1.290   .     A
C502   C508    1.450   .     S
C502   O553    1.289   .     A
C503   C504    1.416   .     A
C503   O552    1.383   .     S
C504   C513    1.475   .     S
C505   C515    1.459   .     S
C506   C1137   1.473   1_554 S
C507   C1136   1.473   .     S
C509   C520    1.401   .     A
C510   H528    1.109   .     S
C510   H527    1.114   .     S
C510   O560    1.410   .     S
C510   H529    1.112   .     S
C511   O550    1.412   .     S
C511   H531    1.114   .     S
C511   H532    1.112   .     S
C511   H530    1.109   .     S
C512   H533    1.109   .     S
C512   O551    1.412   .     S
C512   H536    1.112   .     S
C512   H535    1.114   .     S
C513   O559    1.296   .     A
C513   O556    1.295   .     A
C514   H537    1.109   .     S
C514   H538    1.114   .     S
C514   H539    1.113   .     S
C514   O552    1.411   .     S
C515   O557    1.291   .     A
C515   O558    1.291   .     A
C516   H523    1.082   .     S
C516   N548    1.367   .     A
C517   H534    1.082   .     S
C517   N547    1.367   .     A
C517   C98     1.415   1_565 S
C518   N548    1.366   .     A
C518   H540    1.080   .     S
C519   N547    1.366   .     A
C519   H541    1.082   .     S
C519   C96     1.415   1_565 S
C520   H546    1.083   .     S
Cu521  N547    2.009   .     S
Cu521  O556    1.965   .     S
Cu521  O558    1.962   .     S
Cu521  O549    1.965   .     S
Cu521  O554    1.965   .     S
Cu521  Cu522   2.673   .     S
Cu522  N548    2.009   .     S
Cu522  O559    1.962   .     S
Cu522  O557    1.965   .     S
Cu522  O553    1.965   .     S
Cu522  O555    1.965   .     S
C561   O625    1.290   .     A
C561   O619    1.289   .     A
C561   C579    1.450   .     S
C562   C578    1.401   .     A
C562   H594    1.083   .     S
C562   C424    1.383   1_655 S
C563   H595    1.083   .     S
C563   C578    1.401   .     A
C563   C450    1.383   1_655 S
C564   H596    1.083   .     S
C564   C579    1.401   .     A
C565   H612    1.082   .     S
C565   C569    1.396   .     A
C565   C576    1.400   .     A
C566   C570    1.397   .     A
C566   H613    1.082   .     S
C566   C577    1.401   .     A
C567   C571    1.397   .     A
C567   H614    1.082   .     S
C567   C577    1.402   .     A
C568   C573    1.393   .     A
C568   C576    1.400   .     A
C568   H615    1.083   .     S
C569   C574    1.416   .     A
C569   O630    1.384   .     S
C570   C575    1.408   .     A
C570   O620    1.386   .     S
C571   C575    1.408   .     A
C571   O621    1.385   .     S
C572   O624    1.290   .     A
C572   C578    1.450   .     S
C572   O623    1.289   .     A
C573   C574    1.416   .     A
C573   O622    1.383   .     S
C574   C583    1.475   .     S
C575   C585    1.459   .     S
C576   C1207   1.473   1_554 S
C577   C1206   1.473   .     S
C579   C590    1.401   .     A
C580   H598    1.109   .     S
C580   H597    1.114   .     S
C580   O630    1.410   .     S
C580   H599    1.112   .     S
C581   O620    1.412   .     S
C581   H601    1.114   .     S
C581   H602    1.112   .     S
C581   H600    1.109   .     S
C582   H603    1.109   .     S
C582   O621    1.412   .     S
C582   H606    1.112   .     S
C582   H605    1.114   .     S
C583   O629    1.296   .     A
C583   O626    1.295   .     A
C584   H607    1.109   .     S
C584   H608    1.114   .     S
C584   H609    1.113   .     S
C584   O622    1.411   .     S
C585   O627    1.291   .     A
C585   O628    1.291   .     A
C586   H593    1.082   .     S
C586   N618    1.367   .     A
C587   H604    1.082   .     S
C587   N617    1.367   .     A
C587   C168    1.415   1_565 S
C588   N618    1.366   .     A
C588   H610    1.080   .     S
C589   N617    1.366   .     A
C589   H611    1.082   .     S
C589   C166    1.415   1_565 S
C590   H616    1.083   .     S
Cu591  N617    2.009   .     S
Cu591  O626    1.965   .     S
Cu591  O628    1.962   .     S
Cu591  O619    1.965   .     S
Cu591  O624    1.965   .     S
Cu591  Cu592   2.673   .     S
Cu592  N618    2.009   .     S
Cu592  O629    1.962   .     S
Cu592  O627    1.965   .     S
Cu592  O623    1.965   .     S
Cu592  O625    1.965   .     S
C631   O695    1.290   .     A
C631   O689    1.289   .     A
C631   C649    1.450   .     S
C632   C648    1.401   .     A
C632   H664    1.083   .     S
C632   C704    1.383   .     S
C633   H665    1.083   .     S
C633   C648    1.401   .     A
C633   C730    1.383   .     S
C634   H666    1.083   .     S
C634   C649    1.401   .     A
C634   C772    1.383   1_455 S
C635   H682    1.082   .     S
C635   C639    1.396   .     A
C635   C646    1.400   .     A
C636   C640    1.397   .     A
C636   H683    1.082   .     S
C636   C647    1.401   .     A
C637   C641    1.397   .     A
C637   H684    1.082   .     S
C637   C647    1.402   .     A
C638   C643    1.393   .     A
C638   C646    1.400   .     A
C638   H685    1.083   .     S
C639   C644    1.416   .     A
C639   O700    1.384   .     S
C640   C645    1.408   .     A
C640   O690    1.386   .     S
C641   C645    1.408   .     A
C641   O691    1.385   .     S
C642   O694    1.290   .     A
C642   C648    1.450   .     S
C642   O693    1.289   .     A
C643   C644    1.416   .     A
C643   O692    1.383   .     S
C644   C653    1.475   .     S
C645   C655    1.459   .     S
C647   C16     1.473   1_556 S
C649   C660    1.401   .     A
C650   H668    1.109   .     S
C650   H667    1.114   .     S
C650   O700    1.410   .     S
C650   H669    1.112   .     S
C651   O690    1.412   .     S
C651   H671    1.114   .     S
C651   H672    1.112   .     S
C651   H670    1.109   .     S
C652   H673    1.109   .     S
C652   O691    1.412   .     S
C652   H676    1.112   .     S
C652   H675    1.114   .     S
C653   O699    1.296   .     A
C653   O696    1.295   .     A
C654   H677    1.109   .     S
C654   H678    1.114   .     S
C654   H679    1.113   .     S
C654   O692    1.411   .     S
C655   O697    1.291   .     A
C655   O698    1.291   .     A
C656   H663    1.082   .     S
C656   N688    1.367   .     A
C656   C1079   1.415   1_545 S
C657   H674    1.082   .     S
C657   N687    1.367   .     A
C657   C868    1.415   .     S
C658   N688    1.366   .     A
C658   H680    1.080   .     S
C658   C1077   1.415   1_545 S
C659   N687    1.366   .     A
C659   H681    1.082   .     S
C659   C866    1.415   .     S
C660   H686    1.083   .     S
C660   C773    1.383   1_455 S
Cu661  N687    2.009   .     S
Cu661  O696    1.965   .     S
Cu661  O698    1.962   .     S
Cu661  O689    1.965   .     S
Cu661  O694    1.965   .     S
Cu661  Cu662   2.673   .     S
Cu662  N688    2.009   .     S
Cu662  O699    1.962   .     S
Cu662  O697    1.965   .     S
Cu662  O693    1.965   .     S
Cu662  O695    1.965   .     S
C701   O765    1.290   .     A
C701   O759    1.289   .     A
C701   C719    1.450   .     S
C702   C718    1.401   .     A
C702   H734    1.083   .     S
C702   C774    1.383   .     S
C703   H735    1.083   .     S
C703   C718    1.401   .     A
C703   C800    1.383   .     S
C704   H736    1.083   .     S
C704   C719    1.401   .     A
C705   H752    1.082   .     S
C705   C709    1.396   .     A
C705   C716    1.400   .     A
C706   C710    1.397   .     A
C706   H753    1.082   .     S
C706   C717    1.401   .     A
C707   C711    1.397   .     A
C707   H754    1.082   .     S
C707   C717    1.402   .     A
C708   C713    1.393   .     A
C708   C716    1.400   .     A
C708   H755    1.083   .     S
C709   C714    1.416   .     A
C709   O770    1.384   .     S
C710   C715    1.408   .     A
C710   O760    1.386   .     S
C711   C715    1.408   .     A
C711   O761    1.385   .     S
C712   O764    1.290   .     A
C712   C718    1.450   .     S
C712   O763    1.289   .     A
C713   C714    1.416   .     A
C713   O762    1.383   .     S
C714   C723    1.475   .     S
C715   C725    1.459   .     S
C717   C86     1.473   1_556 S
C719   C730    1.401   .     A
C720   H738    1.109   .     S
C720   H737    1.114   .     S
C720   O770    1.410   .     S
C720   H739    1.112   .     S
C721   O760    1.412   .     S
C721   H741    1.114   .     S
C721   H742    1.112   .     S
C721   H740    1.109   .     S
C722   H743    1.109   .     S
C722   O761    1.412   .     S
C722   H746    1.112   .     S
C722   H745    1.114   .     S
C723   O769    1.296   .     A
C723   O766    1.295   .     A
C724   H747    1.109   .     S
C724   H748    1.114   .     S
C724   H749    1.113   .     S
C724   O762    1.411   .     S
C725   O767    1.291   .     A
C725   O768    1.291   .     A
C726   H733    1.082   .     S
C726   N758    1.367   .     A
C726   C1149   1.415   1_545 S
C727   H744    1.082   .     S
C727   N757    1.367   .     A
C727   C938    1.415   .     S
C728   N758    1.366   .     A
C728   H750    1.080   .     S
C728   C1147   1.415   1_545 S
C729   N757    1.366   .     A
C729   H751    1.082   .     S
C729   C936    1.415   .     S
C730   H756    1.083   .     S
Cu731  N757    2.009   .     S
Cu731  O766    1.965   .     S
Cu731  O768    1.962   .     S
Cu731  O759    1.965   .     S
Cu731  O764    1.965   .     S
Cu731  Cu732   2.673   .     S
Cu732  N758    2.009   .     S
Cu732  O769    1.962   .     S
Cu732  O767    1.965   .     S
Cu732  O763    1.965   .     S
Cu732  O765    1.965   .     S
C771   O835    1.290   .     A
C771   O829    1.289   .     A
C771   C789    1.450   .     S
C772   C788    1.401   .     A
C772   H804    1.083   .     S
C772   C634    1.383   1_655 S
C773   H805    1.083   .     S
C773   C788    1.401   .     A
C773   C660    1.383   1_655 S
C774   H806    1.083   .     S
C774   C789    1.401   .     A
C775   H822    1.082   .     S
C775   C779    1.396   .     A
C775   C786    1.400   .     A
C776   C780    1.397   .     A
C776   H823    1.082   .     S
C776   C787    1.401   .     A
C777   C781    1.397   .     A
C777   H824    1.082   .     S
C777   C787    1.402   .     A
C778   C783    1.393   .     A
C778   C786    1.400   .     A
C778   H825    1.083   .     S
C779   C784    1.416   .     A
C779   O840    1.384   .     S
C780   C785    1.408   .     A
C780   O830    1.386   .     S
C781   C785    1.408   .     A
C781   O831    1.385   .     S
C782   O834    1.290   .     A
C782   C788    1.450   .     S
C782   O833    1.289   .     A
C783   C784    1.416   .     A
C783   O832    1.383   .     S
C784   C793    1.475   .     S
C785   C795    1.459   .     S
C787   C156    1.473   1_556 S
C789   C800    1.401   .     A
C790   H808    1.109   .     S
C790   H807    1.114   .     S
C790   O840    1.410   .     S
C790   H809    1.112   .     S
C791   O830    1.412   .     S
C791   H811    1.114   .     S
C791   H812    1.112   .     S
C791   H810    1.109   .     S
C792   H813    1.109   .     S
C792   O831    1.412   .     S
C792   H816    1.112   .     S
C792   H815    1.114   .     S
C793   O839    1.296   .     A
C793   O836    1.295   .     A
C794   H817    1.109   .     S
C794   H818    1.114   .     S
C794   H819    1.113   .     S
C794   O832    1.411   .     S
C795   O837    1.291   .     A
C795   O838    1.291   .     A
C796   H803    1.082   .     S
C796   N828    1.367   .     A
C796   C1219   1.415   1_545 S
C797   H814    1.082   .     S
C797   N827    1.367   .     A
C797   C1008   1.415   .     S
C798   N828    1.366   .     A
C798   H820    1.080   .     S
C798   C1217   1.415   1_545 S
C799   N827    1.366   .     A
C799   H821    1.082   .     S
C799   C1006   1.415   .     S
C800   H826    1.083   .     S
Cu801  N827    2.009   .     S
Cu801  O836    1.965   .     S
Cu801  O838    1.962   .     S
Cu801  O829    1.965   .     S
Cu801  O834    1.965   .     S
Cu801  Cu802   2.673   .     S
Cu802  N828    2.009   .     S
Cu802  O839    1.962   .     S
Cu802  O837    1.965   .     S
Cu802  O833    1.965   .     S
Cu802  O835    1.965   .     S
C841   O905    1.290   .     A
C841   O899    1.289   .     A
C841   C859    1.450   .     S
C842   C858    1.401   .     A
C842   H874    1.083   .     S
C842   C914    1.383   .     S
C843   H875    1.083   .     S
C843   C858    1.401   .     A
C843   C940    1.383   .     S
C844   H876    1.083   .     S
C844   C859    1.401   .     A
C844   C982    1.383   1_455 S
C845   H892    1.082   .     S
C845   C849    1.396   .     A
C845   C856    1.400   .     A
C846   C850    1.397   .     A
C846   H893    1.082   .     S
C846   C857    1.401   .     A
C847   C851    1.397   .     A
C847   H894    1.082   .     S
C847   C857    1.402   .     A
C848   C853    1.393   .     A
C848   C856    1.400   .     A
C848   H895    1.083   .     S
C849   C854    1.416   .     A
C849   O910    1.384   .     S
C850   C855    1.408   .     A
C850   O900    1.386   .     S
C851   C855    1.408   .     A
C851   O901    1.385   .     S
C852   O904    1.290   .     A
C852   C858    1.450   .     S
C852   O903    1.289   .     A
C853   C854    1.416   .     A
C853   O902    1.383   .     S
C854   C863    1.475   .     S
C855   C865    1.459   .     S
C857   C226    1.473   1_556 S
C859   C870    1.401   .     A
C860   H878    1.109   .     S
C860   H877    1.114   .     S
C860   O910    1.410   .     S
C860   H879    1.112   .     S
C861   O900    1.412   .     S
C861   H881    1.114   .     S
C861   H882    1.112   .     S
C861   H880    1.109   .     S
C862   H883    1.109   .     S
C862   O901    1.412   .     S
C862   H886    1.112   .     S
C862   H885    1.114   .     S
C863   O909    1.296   .     A
C863   O906    1.295   .     A
C864   H887    1.109   .     S
C864   H888    1.114   .     S
C864   H889    1.113   .     S
C864   O902    1.411   .     S
C865   O907    1.291   .     A
C865   O908    1.291   .     A
C866   H873    1.082   .     S
C866   N898    1.367   .     A
C867   H884    1.082   .     S
C867   N897    1.367   .     A
C867   C1078   1.415   .     S
C868   N898    1.366   .     A
C868   H890    1.080   .     S
C869   N897    1.366   .     A
C869   H891    1.082   .     S
C869   C1076   1.415   .     S
C870   H896    1.083   .     S
C870   C983    1.383   1_455 S
Cu871  N897    2.009   .     S
Cu871  O906    1.965   .     S
Cu871  O908    1.962   .     S
Cu871  O899    1.965   .     S
Cu871  O904    1.965   .     S
Cu871  Cu872   2.673   .     S
Cu872  N898    2.009   .     S
Cu872  O909    1.962   .     S
Cu872  O907    1.965   .     S
Cu872  O903    1.965   .     S
Cu872  O905    1.965   .     S
C911   O975    1.290   .     A
C911   O969    1.289   .     A
C911   C929    1.450   .     S
C912   C928    1.401   .     A
C912   H944    1.083   .     S
C912   C984    1.383   .     S
C913   H945    1.083   .     S
C913   C928    1.401   .     A
C913   C1010   1.383   .     S
C914   H946    1.083   .     S
C914   C929    1.401   .     A
C915   H962    1.082   .     S
C915   C919    1.396   .     A
C915   C926    1.400   .     A
C916   C920    1.397   .     A
C916   H963    1.082   .     S
C916   C927    1.401   .     A
C917   C921    1.397   .     A
C917   H964    1.082   .     S
C917   C927    1.402   .     A
C918   C923    1.393   .     A
C918   C926    1.400   .     A
C918   H965    1.083   .     S
C919   C924    1.416   .     A
C919   O980    1.384   .     S
C920   C925    1.408   .     A
C920   O970    1.386   .     S
C921   C925    1.408   .     A
C921   O971    1.385   .     S
C922   O974    1.290   .     A
C922   C928    1.450   .     S
C922   O973    1.289   .     A
C923   C924    1.416   .     A
C923   O972    1.383   .     S
C924   C933    1.475   .     S
C925   C935    1.459   .     S
C927   C296    1.473   1_556 S
C929   C940    1.401   .     A
C930   H948    1.109   .     S
C930   H947    1.114   .     S
C930   O980    1.410   .     S
C930   H949    1.112   .     S
C931   O970    1.412   .     S
C931   H951    1.114   .     S
C931   H952    1.112   .     S
C931   H950    1.109   .     S
C932   H953    1.109   .     S
C932   O971    1.412   .     S
C932   H956    1.112   .     S
C932   H955    1.114   .     S
C933   O979    1.296   .     A
C933   O976    1.295   .     A
C934   H957    1.109   .     S
C934   H958    1.114   .     S
C934   H959    1.113   .     S
C934   O972    1.411   .     S
C935   O977    1.291   .     A
C935   O978    1.291   .     A
C936   H943    1.082   .     S
C936   N968    1.367   .     A
C937   H954    1.082   .     S
C937   N967    1.367   .     A
C937   C1148   1.415   .     S
C938   N968    1.366   .     A
C938   H960    1.080   .     S
C939   N967    1.366   .     A
C939   H961    1.082   .     S
C939   C1146   1.415   .     S
C940   H966    1.083   .     S
Cu941  N967    2.009   .     S
Cu941  O976    1.965   .     S
Cu941  O978    1.962   .     S
Cu941  O969    1.965   .     S
Cu941  O974    1.965   .     S
Cu941  Cu942   2.673   .     S
Cu942  N968    2.009   .     S
Cu942  O979    1.962   .     S
Cu942  O977    1.965   .     S
Cu942  O973    1.965   .     S
Cu942  O975    1.965   .     S
C981   O1045   1.290   .     A
C981   O1039   1.289   .     A
C981   C999    1.450   .     S
C982   C998    1.401   .     A
C982   H1014   1.083   .     S
C982   C844    1.383   1_655 S
C983   H1015   1.083   .     S
C983   C998    1.401   .     A
C983   C870    1.383   1_655 S
C984   H1016   1.083   .     S
C984   C999    1.401   .     A
C985   H1032   1.082   .     S
C985   C989    1.396   .     A
C985   C996    1.400   .     A
C986   C990    1.397   .     A
C986   H1033   1.082   .     S
C986   C997    1.401   .     A
C987   C991    1.397   .     A
C987   H1034   1.082   .     S
C987   C997    1.402   .     A
C988   C993    1.393   .     A
C988   C996    1.400   .     A
C988   H1035   1.083   .     S
C989   C994    1.416   .     A
C989   O1050   1.384   .     S
C990   C995    1.408   .     A
C990   O1040   1.386   .     S
C991   C995    1.408   .     A
C991   O1041   1.385   .     S
C992   O1044   1.290   .     A
C992   C998    1.450   .     S
C992   O1043   1.289   .     A
C993   C994    1.416   .     A
C993   O1042   1.383   .     S
C994   C1003   1.475   .     S
C995   C1005   1.459   .     S
C997   C366    1.473   1_556 S
C999   C1010   1.401   .     A
C1000  H1018   1.109   .     S
C1000  H1017   1.114   .     S
C1000  O1050   1.410   .     S
C1000  H1019   1.112   .     S
C1001  O1040   1.412   .     S
C1001  H1021   1.114   .     S
C1001  H1022   1.112   .     S
C1001  H1020   1.109   .     S
C1002  H1023   1.109   .     S
C1002  O1041   1.412   .     S
C1002  H1026   1.112   .     S
C1002  H1025   1.114   .     S
C1003  O1049   1.296   .     A
C1003  O1046   1.295   .     A
C1004  H1027   1.109   .     S
C1004  H1028   1.114   .     S
C1004  H1029   1.113   .     S
C1004  O1042   1.411   .     S
C1005  O1047   1.291   .     A
C1005  O1048   1.291   .     A
C1006  H1013   1.082   .     S
C1006  N1038   1.367   .     A
C1007  H1024   1.082   .     S
C1007  N1037   1.367   .     A
C1007  C1218   1.415   .     S
C1008  N1038   1.366   .     A
C1008  H1030   1.080   .     S
C1009  N1037   1.366   .     A
C1009  H1031   1.082   .     S
C1009  C1216   1.415   .     S
C1010  H1036   1.083   .     S
Cu1011 N1037   2.009   .     S
Cu1011 O1046   1.965   .     S
Cu1011 O1048   1.962   .     S
Cu1011 O1039   1.965   .     S
Cu1011 O1044   1.965   .     S
Cu1011 Cu1012  2.673   .     S
Cu1012 N1038   2.009   .     S
Cu1012 O1049   1.962   .     S
Cu1012 O1047   1.965   .     S
Cu1012 O1043   1.965   .     S
Cu1012 O1045   1.965   .     S
C1051  O1115   1.290   .     A
C1051  O1109   1.289   .     A
C1051  C1069   1.450   .     S
C1052  C1068   1.401   .     A
C1052  H1084   1.083   .     S
C1052  C1124   1.383   .     S
C1053  H1085   1.083   .     S
C1053  C1068   1.401   .     A
C1053  C1150   1.383   .     S
C1054  H1086   1.083   .     S
C1054  C1069   1.401   .     A
C1054  C1192   1.383   1_455 S
C1055  H1102   1.082   .     S
C1055  C1059   1.396   .     A
C1055  C1066   1.400   .     A
C1056  C1060   1.397   .     A
C1056  H1103   1.082   .     S
C1056  C1067   1.401   .     A
C1057  C1061   1.397   .     A
C1057  H1104   1.082   .     S
C1057  C1067   1.402   .     A
C1058  C1063   1.393   .     A
C1058  C1066   1.400   .     A
C1058  H1105   1.083   .     S
C1059  C1064   1.416   .     A
C1059  O1120   1.384   .     S
C1060  C1065   1.408   .     A
C1060  O1110   1.386   .     S
C1061  C1065   1.408   .     A
C1061  O1111   1.385   .     S
C1062  O1114   1.290   .     A
C1062  C1068   1.450   .     S
C1062  O1113   1.289   .     A
C1063  C1064   1.416   .     A
C1063  O1112   1.383   .     S
C1064  C1073   1.475   .     S
C1065  C1075   1.459   .     S
C1067  C436    1.473   1_556 S
C1069  C1080   1.401   .     A
C1070  H1088   1.109   .     S
C1070  H1087   1.114   .     S
C1070  O1120   1.410   .     S
C1070  H1089   1.112   .     S
C1071  O1110   1.412   .     S
C1071  H1091   1.114   .     S
C1071  H1092   1.112   .     S
C1071  H1090   1.109   .     S
C1072  H1093   1.109   .     S
C1072  O1111   1.412   .     S
C1072  H1096   1.112   .     S
C1072  H1095   1.114   .     S
C1073  O1119   1.296   .     A
C1073  O1116   1.295   .     A
C1074  H1097   1.109   .     S
C1074  H1098   1.114   .     S
C1074  H1099   1.113   .     S
C1074  O1112   1.411   .     S
C1075  O1117   1.291   .     A
C1075  O1118   1.291   .     A
C1076  H1083   1.082   .     S
C1076  N1108   1.367   .     A
C1077  H1094   1.082   .     S
C1077  N1107   1.367   .     A
C1077  C658    1.415   1_565 S
C1078  N1108   1.366   .     A
C1078  H1100   1.080   .     S
C1079  N1107   1.366   .     A
C1079  H1101   1.082   .     S
C1079  C656    1.415   1_565 S
C1080  H1106   1.083   .     S
C1080  C1193   1.383   1_455 S
Cu1081 N1107   2.009   .     S
Cu1081 O1116   1.965   .     S
Cu1081 O1118   1.962   .     S
Cu1081 O1109   1.965   .     S
Cu1081 O1114   1.965   .     S
Cu1081 Cu1082  2.673   .     S
Cu1082 N1108   2.009   .     S
Cu1082 O1119   1.962   .     S
Cu1082 O1117   1.965   .     S
Cu1082 O1113   1.965   .     S
Cu1082 O1115   1.965   .     S
C1121  O1185   1.290   .     A
C1121  O1179   1.289   .     A
C1121  C1139   1.450   .     S
C1122  C1138   1.401   .     A
C1122  H1154   1.083   .     S
C1122  C1194   1.383   .     S
C1123  H1155   1.083   .     S
C1123  C1138   1.401   .     A
C1123  C1220   1.383   .     S
C1124  H1156   1.083   .     S
C1124  C1139   1.401   .     A
C1125  H1172   1.082   .     S
C1125  C1129   1.396   .     A
C1125  C1136   1.400   .     A
C1126  C1130   1.397   .     A
C1126  H1173   1.082   .     S
C1126  C1137   1.401   .     A
C1127  C1131   1.397   .     A
C1127  H1174   1.082   .     S
C1127  C1137   1.402   .     A
C1128  C1133   1.393   .     A
C1128  C1136   1.400   .     A
C1128  H1175   1.083   .     S
C1129  C1134   1.416   .     A
C1129  O1190   1.384   .     S
C1130  C1135   1.408   .     A
C1130  O1180   1.386   .     S
C1131  C1135   1.408   .     A
C1131  O1181   1.385   .     S
C1132  O1184   1.290   .     A
C1132  C1138   1.450   .     S
C1132  O1183   1.289   .     A
C1133  C1134   1.416   .     A
C1133  O1182   1.383   .     S
C1134  C1143   1.475   .     S
C1135  C1145   1.459   .     S
C1137  C506    1.473   1_556 S
C1139  C1150   1.401   .     A
C1140  H1158   1.109   .     S
C1140  H1157   1.114   .     S
C1140  O1190   1.410   .     S
C1140  H1159   1.112   .     S
C1141  O1180   1.412   .     S
C1141  H1161   1.114   .     S
C1141  H1162   1.112   .     S
C1141  H1160   1.109   .     S
C1142  H1163   1.109   .     S
C1142  O1181   1.412   .     S
C1142  H1166   1.112   .     S
C1142  H1165   1.114   .     S
C1143  O1189   1.296   .     A
C1143  O1186   1.295   .     A
C1144  H1167   1.109   .     S
C1144  H1168   1.114   .     S
C1144  H1169   1.113   .     S
C1144  O1182   1.411   .     S
C1145  O1187   1.291   .     A
C1145  O1188   1.291   .     A
C1146  H1153   1.082   .     S
C1146  N1178   1.367   .     A
C1147  H1164   1.082   .     S
C1147  N1177   1.367   .     A
C1147  C728    1.415   1_565 S
C1148  N1178   1.366   .     A
C1148  H1170   1.080   .     S
C1149  N1177   1.366   .     A
C1149  H1171   1.082   .     S
C1149  C726    1.415   1_565 S
C1150  H1176   1.083   .     S
Cu1151 N1177   2.009   .     S
Cu1151 O1186   1.965   .     S
Cu1151 O1188   1.962   .     S
Cu1151 O1179   1.965   .     S
Cu1151 O1184   1.965   .     S
Cu1151 Cu1152  2.673   .     S
Cu1152 N1178   2.009   .     S
Cu1152 O1189   1.962   .     S
Cu1152 O1187   1.965   .     S
Cu1152 O1183   1.965   .     S
Cu1152 O1185   1.965   .     S
C1191  O1255   1.290   .     A
C1191  O1249   1.289   .     A
C1191  C1209   1.450   .     S
C1192  C1208   1.401   .     A
C1192  H1224   1.083   .     S
C1192  C1054   1.383   1_655 S
C1193  H1225   1.083   .     S
C1193  C1208   1.401   .     A
C1193  C1080   1.383   1_655 S
C1194  H1226   1.083   .     S
C1194  C1209   1.401   .     A
C1195  H1242   1.082   .     S
C1195  C1199   1.396   .     A
C1195  C1206   1.400   .     A
C1196  C1200   1.397   .     A
C1196  H1243   1.082   .     S
C1196  C1207   1.401   .     A
C1197  C1201   1.397   .     A
C1197  H1244   1.082   .     S
C1197  C1207   1.402   .     A
C1198  C1203   1.393   .     A
C1198  C1206   1.400   .     A
C1198  H1245   1.083   .     S
C1199  C1204   1.416   .     A
C1199  O1260   1.384   .     S
C1200  C1205   1.408   .     A
C1200  O1250   1.386   .     S
C1201  C1205   1.408   .     A
C1201  O1251   1.385   .     S
C1202  O1254   1.290   .     A
C1202  C1208   1.450   .     S
C1202  O1253   1.289   .     A
C1203  C1204   1.416   .     A
C1203  O1252   1.383   .     S
C1204  C1213   1.475   .     S
C1205  C1215   1.459   .     S
C1207  C576    1.473   1_556 S
C1209  C1220   1.401   .     A
C1210  H1228   1.109   .     S
C1210  H1227   1.114   .     S
C1210  O1260   1.410   .     S
C1210  H1229   1.112   .     S
C1211  O1250   1.412   .     S
C1211  H1231   1.114   .     S
C1211  H1232   1.112   .     S
C1211  H1230   1.109   .     S
C1212  H1233   1.109   .     S
C1212  O1251   1.412   .     S
C1212  H1236   1.112   .     S
C1212  H1235   1.114   .     S
C1213  O1259   1.296   .     A
C1213  O1256   1.295   .     A
C1214  H1237   1.109   .     S
C1214  H1238   1.114   .     S
C1214  H1239   1.113   .     S
C1214  O1252   1.411   .     S
C1215  O1257   1.291   .     A
C1215  O1258   1.291   .     A
C1216  H1223   1.082   .     S
C1216  N1248   1.367   .     A
C1217  H1234   1.082   .     S
C1217  N1247   1.367   .     A
C1217  C798    1.415   1_565 S
C1218  N1248   1.366   .     A
C1218  H1240   1.080   .     S
C1219  N1247   1.366   .     A
C1219  H1241   1.082   .     S
C1219  C796    1.415   1_565 S
C1220  H1246   1.083   .     S
Cu1221 N1247   2.009   .     S
Cu1221 O1256   1.965   .     S
Cu1221 O1258   1.962   .     S
Cu1221 O1249   1.965   .     S
Cu1221 O1254   1.965   .     S
Cu1221 Cu1222  2.673   .     S
Cu1222 N1248   2.009   .     S
Cu1222 O1259   1.962   .     S
Cu1222 O1257   1.965   .     S
Cu1222 O1253   1.965   .     S
Cu1222 O1255   1.965   .     S
