data_str_m2_o1_o17_pcu_sym.107
_audit_creation_date              2020-01-03
_audit_creation_method            'Materials Studio'
_symmetry_space_group_name_H-M    'P1'
_symmetry_Int_Tables_number       1
_symmetry_cell_setting            triclinic
loop_
_symmetry_equiv_pos_as_xyz
  x,y,z
_cell_length_a                    32.6091
_cell_length_b                    28.7112
_cell_length_c                    30.0205
_cell_angle_alpha                 89.9993
_cell_angle_beta                  91.4499
_cell_angle_gamma                 90.0041
loop_
_atom_site_label
_atom_site_type_symbol
_atom_site_fract_x
_atom_site_fract_y
_atom_site_fract_z
_atom_site_U_iso_or_equiv
_atom_site_adp_type
_atom_site_occupancy
C1     C     0.08752   0.16666   0.25335   0.00000  Uiso   1.00
C2     C     0.24581   0.16667   0.24665   0.00000  Uiso   1.00
C3     C     0.09163   0.16996   0.01993   0.00000  Uiso   1.00
C4     C     0.24170   0.16993   0.48007   0.00000  Uiso   1.00
C5     C     0.02083   0.12407   0.25501   0.00000  Uiso   1.00
C6     C     0.31251   0.20926   0.24498   0.00000  Uiso   1.00
C7     C     0.31250   0.12408   0.24490   0.00000  Uiso   1.00
C8     C     0.02084   0.20925   0.25510   0.00000  Uiso   1.00
C9     C     0.29066   0.16667   0.24332   0.00000  Uiso   1.00
C10    C     0.04267   0.16666   0.25668   0.00000  Uiso   1.00
C11    C     0.14077   0.02481   0.22193   0.00000  Uiso   1.00
C12    C     0.19256   0.30852   0.27807   0.00000  Uiso   1.00
C13    C     0.19256   0.02481   0.27807   0.00000  Uiso   1.00
C14    C     0.14077   0.30852   0.22193   0.00000  Uiso   1.00
C15    C     0.16627   0.16668   0.16459   0.00000  Uiso   1.00
C16    C     0.16706   0.16668   0.33541   0.00000  Uiso   1.00
C17    C     0.20587   0.16792   0.40803   0.00000  Uiso   1.00
C18    C     0.12746   0.16793   0.09197   0.00000  Uiso   1.00
C19    C     0.16833   0.16694   0.38358   0.00000  Uiso   1.00
C20    C     0.16500   0.16695   0.11642   0.00000  Uiso   1.00
C21    C     0.13093   0.16763   0.40497   0.00000  Uiso   1.00
C22    C     0.20241   0.16762   0.09503   0.00000  Uiso   1.00
C23    C     0.12952   0.17026   0.45142   0.00000  Uiso   1.00
C24    C     0.20382   0.17025   0.04858   0.00000  Uiso   1.00
C25    C     0.16694   0.17004   0.47653   0.00000  Uiso   1.00
C26    C     0.16640   0.17004   0.02347   0.00000  Uiso   1.00
C27    C     0.20496   0.16918   0.45475   0.00000  Uiso   1.00
C28    C     0.12837   0.16919   0.04525   0.00000  Uiso   1.00
C29    C     0.09170   0.17183   0.47363   0.00000  Uiso   1.00
C30    C     0.24164   0.17181   0.02637   0.00000  Uiso   1.00
Cu31   Cu    0.16667   0.21355   0.25000   0.00000  Uiso   1.00
Cu32   Cu    0.16667   0.11978   0.25000   0.00000  Uiso   1.00
H33    H     0.10313   0.16552   0.38457   0.00000  Uiso   1.00
H34    H     0.23020   0.16550   0.11543   0.00000  Uiso   1.00
H35    H     0.06225   0.17009   0.03600   0.00000  Uiso   1.00
H36    H     0.27109   0.17006   0.46400   0.00000  Uiso   1.00
N37    N     0.16667   0.28402   0.25000   0.00000  Uiso   1.00
N38    N     0.16667   0.04931   0.25000   0.00000  Uiso   1.00
O39    O     0.10655   0.20625   0.25000   0.00000  Uiso   1.00
O40    O     0.22679   0.12709   0.25001   0.00000  Uiso   1.00
O41    O     0.22679   0.20625   0.25001   0.00000  Uiso   1.00
O42    O     0.10655   0.12709   0.25000   0.00000  Uiso   1.00
O43    O     0.16666   0.20627   0.18513   0.00000  Uiso   1.00
O44    O     0.16668   0.12707   0.31487   0.00000  Uiso   1.00
O45    O     0.16668   0.20627   0.31487   0.00000  Uiso   1.00
O46    O     0.16666   0.12707   0.18513   0.00000  Uiso   1.00
O47    O     0.24364   0.16752   0.38781   0.00000  Uiso   1.00
H48    H     0.24016   0.16619   0.35504   0.00000  Uiso   1.00
O49    O     0.08969   0.16753   0.11219   0.00000  Uiso   1.00
H50    H     0.09317   0.16619   0.14496   0.00000  Uiso   1.00
O51    O     0.05411   0.17478   0.45166   0.00000  Uiso   1.00
H52    H     0.05702   0.19494   0.42520   0.00000  Uiso   1.00
O53    O     0.27923   0.17475   0.04834   0.00000  Uiso   1.00
H54    H     0.27632   0.19491   0.07480   0.00000  Uiso   1.00
O55    O     0.03926   0.08148   0.26242   0.00000  Uiso   1.00
H56    H     0.05738   0.08481   0.28926   0.00000  Uiso   1.00
O57    O     0.29408   0.25185   0.23756   0.00000  Uiso   1.00
H58    H     0.27595   0.24851   0.21073   0.00000  Uiso   1.00
O59    O     0.29406   0.08151   0.23740   0.00000  Uiso   1.00
H60    H     0.27591   0.08491   0.21059   0.00000  Uiso   1.00
O61    O     0.03927   0.25182   0.26261   0.00000  Uiso   1.00
H62    H     0.05742   0.24841   0.28942   0.00000  Uiso   1.00
C63    C     0.11311   0.04945   0.19191   0.00000  Uiso   1.00
N64    N     0.09075   0.06872   0.16769   0.00000  Uiso   1.00
C65    C     0.22023   0.28388   0.30808   0.00000  Uiso   1.00
N66    N     0.24260   0.26461   0.33229   0.00000  Uiso   1.00
C67    C     0.22023   0.04945   0.30808   0.00000  Uiso   1.00
N68    N     0.24259   0.06873   0.33231   0.00000  Uiso   1.00
C69    C     0.11310   0.28388   0.19193   0.00000  Uiso   1.00
N70    N     0.09073   0.26460   0.16771   0.00000  Uiso   1.00
C71    C     0.42085   0.16666   0.25335   0.00000  Uiso   1.00
C72    C     0.57914   0.16667   0.24665   0.00000  Uiso   1.00
C73    C     0.42496   0.16996   0.01993   0.00000  Uiso   1.00
C74    C     0.57504   0.16993   0.48007   0.00000  Uiso   1.00
C75    C     0.35416   0.12407   0.25501   0.00000  Uiso   1.00
C76    C     0.64584   0.20926   0.24498   0.00000  Uiso   1.00
C77    C     0.64583   0.12408   0.24490   0.00000  Uiso   1.00
C78    C     0.35417   0.20925   0.25510   0.00000  Uiso   1.00
C79    C     0.62399   0.16667   0.24332   0.00000  Uiso   1.00
C80    C     0.37601   0.16666   0.25668   0.00000  Uiso   1.00
C81    C     0.47411   0.02481   0.22193   0.00000  Uiso   1.00
C82    C     0.52589   0.30852   0.27807   0.00000  Uiso   1.00
C83    C     0.52589   0.02481   0.27807   0.00000  Uiso   1.00
C84    C     0.47411   0.30852   0.22193   0.00000  Uiso   1.00
C85    C     0.49960   0.16668   0.16459   0.00000  Uiso   1.00
C86    C     0.50040   0.16668   0.33541   0.00000  Uiso   1.00
C87    C     0.53921   0.16792   0.40803   0.00000  Uiso   1.00
C88    C     0.46079   0.16793   0.09197   0.00000  Uiso   1.00
C89    C     0.50166   0.16694   0.38358   0.00000  Uiso   1.00
C90    C     0.49834   0.16695   0.11642   0.00000  Uiso   1.00
C91    C     0.46426   0.16763   0.40497   0.00000  Uiso   1.00
C92    C     0.53574   0.16762   0.09503   0.00000  Uiso   1.00
C93    C     0.46285   0.17026   0.45142   0.00000  Uiso   1.00
C94    C     0.53715   0.17025   0.04858   0.00000  Uiso   1.00
C95    C     0.50027   0.17004   0.47653   0.00000  Uiso   1.00
C96    C     0.49973   0.17004   0.02347   0.00000  Uiso   1.00
C97    C     0.53830   0.16918   0.45475   0.00000  Uiso   1.00
C98    C     0.46170   0.16919   0.04525   0.00000  Uiso   1.00
C99    C     0.42503   0.17183   0.47363   0.00000  Uiso   1.00
C100   C     0.57497   0.17181   0.02637   0.00000  Uiso   1.00
Cu101  Cu    0.50000   0.21355   0.25000   0.00000  Uiso   1.00
Cu102  Cu    0.50000   0.11978   0.25000   0.00000  Uiso   1.00
H103   H     0.43647   0.16552   0.38457   0.00000  Uiso   1.00
H104   H     0.56353   0.16550   0.11543   0.00000  Uiso   1.00
H105   H     0.39558   0.17009   0.03600   0.00000  Uiso   1.00
H106   H     0.60442   0.17006   0.46400   0.00000  Uiso   1.00
N107   N     0.50000   0.28402   0.25000   0.00000  Uiso   1.00
N108   N     0.50000   0.04931   0.25000   0.00000  Uiso   1.00
O109   O     0.43988   0.20625   0.25000   0.00000  Uiso   1.00
O110   O     0.56012   0.12709   0.25001   0.00000  Uiso   1.00
O111   O     0.56012   0.20625   0.25001   0.00000  Uiso   1.00
O112   O     0.43988   0.12709   0.25000   0.00000  Uiso   1.00
O113   O     0.49999   0.20627   0.18513   0.00000  Uiso   1.00
O114   O     0.50001   0.12707   0.31487   0.00000  Uiso   1.00
O115   O     0.50001   0.20627   0.31487   0.00000  Uiso   1.00
O116   O     0.49999   0.12707   0.18513   0.00000  Uiso   1.00
O117   O     0.57697   0.16752   0.38781   0.00000  Uiso   1.00
H118   H     0.57350   0.16619   0.35504   0.00000  Uiso   1.00
O119   O     0.42303   0.16753   0.11219   0.00000  Uiso   1.00
H120   H     0.42650   0.16619   0.14496   0.00000  Uiso   1.00
O121   O     0.38744   0.17478   0.45166   0.00000  Uiso   1.00
H122   H     0.39036   0.19494   0.42520   0.00000  Uiso   1.00
O123   O     0.61256   0.17475   0.04834   0.00000  Uiso   1.00
H124   H     0.60965   0.19491   0.07480   0.00000  Uiso   1.00
O125   O     0.37259   0.08148   0.26242   0.00000  Uiso   1.00
H126   H     0.39071   0.08481   0.28926   0.00000  Uiso   1.00
O127   O     0.62741   0.25185   0.23756   0.00000  Uiso   1.00
H128   H     0.60929   0.24851   0.21073   0.00000  Uiso   1.00
O129   O     0.62739   0.08151   0.23740   0.00000  Uiso   1.00
H130   H     0.60924   0.08491   0.21059   0.00000  Uiso   1.00
O131   O     0.37261   0.25182   0.26261   0.00000  Uiso   1.00
H132   H     0.39075   0.24841   0.28942   0.00000  Uiso   1.00
C133   C     0.44644   0.04945   0.19191   0.00000  Uiso   1.00
N134   N     0.42408   0.06872   0.16769   0.00000  Uiso   1.00
C135   C     0.55356   0.28388   0.30808   0.00000  Uiso   1.00
N136   N     0.57593   0.26461   0.33229   0.00000  Uiso   1.00
C137   C     0.55356   0.04945   0.30808   0.00000  Uiso   1.00
N138   N     0.57592   0.06873   0.33231   0.00000  Uiso   1.00
C139   C     0.44643   0.28388   0.19193   0.00000  Uiso   1.00
N140   N     0.42406   0.26460   0.16771   0.00000  Uiso   1.00
C141   C     0.75419   0.16666   0.25335   0.00000  Uiso   1.00
C142   C     0.91248   0.16667   0.24665   0.00000  Uiso   1.00
C143   C     0.75830   0.16996   0.01993   0.00000  Uiso   1.00
C144   C     0.90837   0.16993   0.48007   0.00000  Uiso   1.00
C145   C     0.68749   0.12407   0.25501   0.00000  Uiso   1.00
C146   C     0.97917   0.20926   0.24498   0.00000  Uiso   1.00
C147   C     0.97916   0.12408   0.24490   0.00000  Uiso   1.00
C148   C     0.68750   0.20925   0.25510   0.00000  Uiso   1.00
C149   C     0.95733   0.16667   0.24332   0.00000  Uiso   1.00
C150   C     0.70934   0.16666   0.25668   0.00000  Uiso   1.00
C151   C     0.80744   0.02481   0.22193   0.00000  Uiso   1.00
C152   C     0.85923   0.30852   0.27807   0.00000  Uiso   1.00
C153   C     0.85923   0.02481   0.27807   0.00000  Uiso   1.00
C154   C     0.80744   0.30852   0.22193   0.00000  Uiso   1.00
C155   C     0.83294   0.16668   0.16459   0.00000  Uiso   1.00
C156   C     0.83373   0.16668   0.33541   0.00000  Uiso   1.00
C157   C     0.87254   0.16792   0.40803   0.00000  Uiso   1.00
C158   C     0.79413   0.16793   0.09197   0.00000  Uiso   1.00
C159   C     0.83500   0.16694   0.38358   0.00000  Uiso   1.00
C160   C     0.83167   0.16695   0.11642   0.00000  Uiso   1.00
C161   C     0.79759   0.16763   0.40497   0.00000  Uiso   1.00
C162   C     0.86907   0.16762   0.09503   0.00000  Uiso   1.00
C163   C     0.79618   0.17026   0.45142   0.00000  Uiso   1.00
C164   C     0.87049   0.17025   0.04858   0.00000  Uiso   1.00
C165   C     0.83360   0.17004   0.47653   0.00000  Uiso   1.00
C166   C     0.83306   0.17004   0.02347   0.00000  Uiso   1.00
C167   C     0.87163   0.16918   0.45475   0.00000  Uiso   1.00
C168   C     0.79504   0.16919   0.04525   0.00000  Uiso   1.00
C169   C     0.75836   0.17183   0.47363   0.00000  Uiso   1.00
C170   C     0.90830   0.17181   0.02637   0.00000  Uiso   1.00
Cu171  Cu    0.83333   0.21355   0.25000   0.00000  Uiso   1.00
Cu172  Cu    0.83333   0.11978   0.25000   0.00000  Uiso   1.00
H173   H     0.76980   0.16552   0.38457   0.00000  Uiso   1.00
H174   H     0.89687   0.16550   0.11543   0.00000  Uiso   1.00
H175   H     0.72891   0.17009   0.03600   0.00000  Uiso   1.00
H176   H     0.93775   0.17006   0.46400   0.00000  Uiso   1.00
N177   N     0.83333   0.28402   0.25000   0.00000  Uiso   1.00
N178   N     0.83333   0.04931   0.25000   0.00000  Uiso   1.00
O179   O     0.77321   0.20625   0.25000   0.00000  Uiso   1.00
O180   O     0.89345   0.12709   0.25001   0.00000  Uiso   1.00
O181   O     0.89345   0.20625   0.25001   0.00000  Uiso   1.00
O182   O     0.77321   0.12709   0.25000   0.00000  Uiso   1.00
O183   O     0.83332   0.20627   0.18513   0.00000  Uiso   1.00
O184   O     0.83334   0.12707   0.31487   0.00000  Uiso   1.00
O185   O     0.83334   0.20627   0.31487   0.00000  Uiso   1.00
O186   O     0.83332   0.12707   0.18513   0.00000  Uiso   1.00
O187   O     0.91031   0.16752   0.38781   0.00000  Uiso   1.00
H188   H     0.90683   0.16619   0.35504   0.00000  Uiso   1.00
O189   O     0.75636   0.16753   0.11219   0.00000  Uiso   1.00
H190   H     0.75984   0.16619   0.14496   0.00000  Uiso   1.00
O191   O     0.72078   0.17478   0.45166   0.00000  Uiso   1.00
H192   H     0.72369   0.19494   0.42520   0.00000  Uiso   1.00
O193   O     0.94589   0.17475   0.04834   0.00000  Uiso   1.00
H194   H     0.94299   0.19491   0.07480   0.00000  Uiso   1.00
O195   O     0.70593   0.08148   0.26242   0.00000  Uiso   1.00
H196   H     0.72405   0.08481   0.28926   0.00000  Uiso   1.00
O197   O     0.96074   0.25185   0.23756   0.00000  Uiso   1.00
H198   H     0.94262   0.24851   0.21073   0.00000  Uiso   1.00
O199   O     0.96072   0.08151   0.23740   0.00000  Uiso   1.00
H200   H     0.94258   0.08491   0.21059   0.00000  Uiso   1.00
O201   O     0.70594   0.25182   0.26261   0.00000  Uiso   1.00
H202   H     0.72409   0.24841   0.28942   0.00000  Uiso   1.00
C203   C     0.77978   0.04945   0.19191   0.00000  Uiso   1.00
N204   N     0.75742   0.06872   0.16769   0.00000  Uiso   1.00
C205   C     0.88690   0.28388   0.30808   0.00000  Uiso   1.00
N206   N     0.90926   0.26461   0.33229   0.00000  Uiso   1.00
C207   C     0.88689   0.04945   0.30808   0.00000  Uiso   1.00
N208   N     0.90926   0.06873   0.33231   0.00000  Uiso   1.00
C209   C     0.77977   0.28388   0.19193   0.00000  Uiso   1.00
N210   N     0.75740   0.26460   0.16771   0.00000  Uiso   1.00
C211   C     0.08752   0.50000   0.25335   0.00000  Uiso   1.00
C212   C     0.24581   0.50000   0.24665   0.00000  Uiso   1.00
C213   C     0.09163   0.50329   0.01993   0.00000  Uiso   1.00
C214   C     0.24170   0.50327   0.48007   0.00000  Uiso   1.00
C215   C     0.02083   0.45741   0.25501   0.00000  Uiso   1.00
C216   C     0.31251   0.54259   0.24498   0.00000  Uiso   1.00
C217   C     0.31250   0.45742   0.24490   0.00000  Uiso   1.00
C218   C     0.02084   0.54258   0.25510   0.00000  Uiso   1.00
C219   C     0.29066   0.50001   0.24332   0.00000  Uiso   1.00
C220   C     0.04267   0.49999   0.25668   0.00000  Uiso   1.00
C221   C     0.14077   0.35814   0.22193   0.00000  Uiso   1.00
C222   C     0.19256   0.64186   0.27807   0.00000  Uiso   1.00
C223   C     0.19256   0.35815   0.27807   0.00000  Uiso   1.00
C224   C     0.14077   0.64185   0.22193   0.00000  Uiso   1.00
C225   C     0.16627   0.50002   0.16459   0.00000  Uiso   1.00
C226   C     0.16706   0.50002   0.33541   0.00000  Uiso   1.00
C227   C     0.20587   0.50125   0.40803   0.00000  Uiso   1.00
C228   C     0.12746   0.50126   0.09197   0.00000  Uiso   1.00
C229   C     0.16833   0.50028   0.38358   0.00000  Uiso   1.00
C230   C     0.16500   0.50028   0.11642   0.00000  Uiso   1.00
C231   C     0.13093   0.50096   0.40497   0.00000  Uiso   1.00
C232   C     0.20241   0.50095   0.09503   0.00000  Uiso   1.00
C233   C     0.12952   0.50359   0.45142   0.00000  Uiso   1.00
C234   C     0.20382   0.50358   0.04858   0.00000  Uiso   1.00
C235   C     0.16694   0.50337   0.47653   0.00000  Uiso   1.00
C236   C     0.16640   0.50337   0.02347   0.00000  Uiso   1.00
C237   C     0.20496   0.50251   0.45475   0.00000  Uiso   1.00
C238   C     0.12837   0.50252   0.04525   0.00000  Uiso   1.00
C239   C     0.09170   0.50516   0.47363   0.00000  Uiso   1.00
C240   C     0.24164   0.50514   0.02637   0.00000  Uiso   1.00
Cu241  Cu    0.16667   0.54689   0.25000   0.00000  Uiso   1.00
Cu242  Cu    0.16667   0.45311   0.25000   0.00000  Uiso   1.00
H243   H     0.10313   0.49885   0.38457   0.00000  Uiso   1.00
H244   H     0.23020   0.49883   0.11543   0.00000  Uiso   1.00
H245   H     0.06225   0.50343   0.03600   0.00000  Uiso   1.00
H246   H     0.27109   0.50340   0.46400   0.00000  Uiso   1.00
N247   N     0.16667   0.61736   0.25000   0.00000  Uiso   1.00
N248   N     0.16667   0.38264   0.25000   0.00000  Uiso   1.00
O249   O     0.10655   0.53958   0.25000   0.00000  Uiso   1.00
O250   O     0.22679   0.46042   0.25001   0.00000  Uiso   1.00
O251   O     0.22679   0.53958   0.25001   0.00000  Uiso   1.00
O252   O     0.10655   0.46042   0.25000   0.00000  Uiso   1.00
O253   O     0.16666   0.53960   0.18513   0.00000  Uiso   1.00
O254   O     0.16668   0.46040   0.31487   0.00000  Uiso   1.00
O255   O     0.16668   0.53960   0.31487   0.00000  Uiso   1.00
O256   O     0.16666   0.46040   0.18513   0.00000  Uiso   1.00
O257   O     0.24364   0.50085   0.38781   0.00000  Uiso   1.00
H258   H     0.24016   0.49952   0.35504   0.00000  Uiso   1.00
O259   O     0.08969   0.50087   0.11219   0.00000  Uiso   1.00
H260   H     0.09317   0.49952   0.14496   0.00000  Uiso   1.00
O261   O     0.05411   0.50812   0.45166   0.00000  Uiso   1.00
H262   H     0.05702   0.52827   0.42520   0.00000  Uiso   1.00
O263   O     0.27923   0.50809   0.04834   0.00000  Uiso   1.00
H264   H     0.27632   0.52824   0.07480   0.00000  Uiso   1.00
O265   O     0.03926   0.41481   0.26242   0.00000  Uiso   1.00
H266   H     0.05738   0.41814   0.28926   0.00000  Uiso   1.00
O267   O     0.29408   0.58519   0.23756   0.00000  Uiso   1.00
H268   H     0.27595   0.58184   0.21073   0.00000  Uiso   1.00
O269   O     0.29406   0.41484   0.23740   0.00000  Uiso   1.00
H270   H     0.27591   0.41824   0.21059   0.00000  Uiso   1.00
O271   O     0.03927   0.58516   0.26261   0.00000  Uiso   1.00
H272   H     0.05742   0.58175   0.28942   0.00000  Uiso   1.00
C273   C     0.11311   0.38278   0.19191   0.00000  Uiso   1.00
N274   N     0.09075   0.40205   0.16769   0.00000  Uiso   1.00
C275   C     0.22023   0.61722   0.30808   0.00000  Uiso   1.00
N276   N     0.24260   0.59794   0.33229   0.00000  Uiso   1.00
C277   C     0.22023   0.38279   0.30808   0.00000  Uiso   1.00
N278   N     0.24259   0.40206   0.33231   0.00000  Uiso   1.00
C279   C     0.11310   0.61721   0.19193   0.00000  Uiso   1.00
N280   N     0.09073   0.59793   0.16771   0.00000  Uiso   1.00
C281   C     0.42085   0.50000   0.25335   0.00000  Uiso   1.00
C282   C     0.57914   0.50000   0.24665   0.00000  Uiso   1.00
C283   C     0.42496   0.50329   0.01993   0.00000  Uiso   1.00
C284   C     0.57504   0.50327   0.48007   0.00000  Uiso   1.00
C285   C     0.35416   0.45741   0.25501   0.00000  Uiso   1.00
C286   C     0.64584   0.54259   0.24498   0.00000  Uiso   1.00
C287   C     0.64583   0.45742   0.24490   0.00000  Uiso   1.00
C288   C     0.35417   0.54258   0.25510   0.00000  Uiso   1.00
C289   C     0.62399   0.50001   0.24332   0.00000  Uiso   1.00
C290   C     0.37601   0.49999   0.25668   0.00000  Uiso   1.00
C291   C     0.47411   0.35814   0.22193   0.00000  Uiso   1.00
C292   C     0.52589   0.64186   0.27807   0.00000  Uiso   1.00
C293   C     0.52589   0.35815   0.27807   0.00000  Uiso   1.00
C294   C     0.47411   0.64185   0.22193   0.00000  Uiso   1.00
C295   C     0.49960   0.50002   0.16459   0.00000  Uiso   1.00
C296   C     0.50040   0.50002   0.33541   0.00000  Uiso   1.00
C297   C     0.53921   0.50125   0.40803   0.00000  Uiso   1.00
C298   C     0.46079   0.50126   0.09197   0.00000  Uiso   1.00
C299   C     0.50166   0.50028   0.38358   0.00000  Uiso   1.00
C300   C     0.49834   0.50028   0.11642   0.00000  Uiso   1.00
C301   C     0.46426   0.50096   0.40497   0.00000  Uiso   1.00
C302   C     0.53574   0.50095   0.09503   0.00000  Uiso   1.00
C303   C     0.46285   0.50359   0.45142   0.00000  Uiso   1.00
C304   C     0.53715   0.50358   0.04858   0.00000  Uiso   1.00
C305   C     0.50027   0.50337   0.47653   0.00000  Uiso   1.00
C306   C     0.49973   0.50337   0.02347   0.00000  Uiso   1.00
C307   C     0.53830   0.50251   0.45475   0.00000  Uiso   1.00
C308   C     0.46170   0.50252   0.04525   0.00000  Uiso   1.00
C309   C     0.42503   0.50516   0.47363   0.00000  Uiso   1.00
C310   C     0.57497   0.50514   0.02637   0.00000  Uiso   1.00
Cu311  Cu    0.50000   0.54689   0.25000   0.00000  Uiso   1.00
Cu312  Cu    0.50000   0.45311   0.25000   0.00000  Uiso   1.00
H313   H     0.43647   0.49885   0.38457   0.00000  Uiso   1.00
H314   H     0.56353   0.49883   0.11543   0.00000  Uiso   1.00
H315   H     0.39558   0.50343   0.03600   0.00000  Uiso   1.00
H316   H     0.60442   0.50340   0.46400   0.00000  Uiso   1.00
N317   N     0.50000   0.61736   0.25000   0.00000  Uiso   1.00
N318   N     0.50000   0.38264   0.25000   0.00000  Uiso   1.00
O319   O     0.43988   0.53958   0.25000   0.00000  Uiso   1.00
O320   O     0.56012   0.46042   0.25001   0.00000  Uiso   1.00
O321   O     0.56012   0.53958   0.25001   0.00000  Uiso   1.00
O322   O     0.43988   0.46042   0.25000   0.00000  Uiso   1.00
O323   O     0.49999   0.53960   0.18513   0.00000  Uiso   1.00
O324   O     0.50001   0.46040   0.31487   0.00000  Uiso   1.00
O325   O     0.50001   0.53960   0.31487   0.00000  Uiso   1.00
O326   O     0.49999   0.46040   0.18513   0.00000  Uiso   1.00
O327   O     0.57697   0.50085   0.38781   0.00000  Uiso   1.00
H328   H     0.57350   0.49952   0.35504   0.00000  Uiso   1.00
O329   O     0.42303   0.50087   0.11219   0.00000  Uiso   1.00
H330   H     0.42650   0.49952   0.14496   0.00000  Uiso   1.00
O331   O     0.38744   0.50812   0.45166   0.00000  Uiso   1.00
H332   H     0.39036   0.52827   0.42520   0.00000  Uiso   1.00
O333   O     0.61256   0.50809   0.04834   0.00000  Uiso   1.00
H334   H     0.60965   0.52824   0.07480   0.00000  Uiso   1.00
O335   O     0.37259   0.41481   0.26242   0.00000  Uiso   1.00
H336   H     0.39071   0.41814   0.28926   0.00000  Uiso   1.00
O337   O     0.62741   0.58519   0.23756   0.00000  Uiso   1.00
H338   H     0.60929   0.58184   0.21073   0.00000  Uiso   1.00
O339   O     0.62739   0.41484   0.23740   0.00000  Uiso   1.00
H340   H     0.60924   0.41824   0.21059   0.00000  Uiso   1.00
O341   O     0.37261   0.58516   0.26261   0.00000  Uiso   1.00
H342   H     0.39075   0.58175   0.28942   0.00000  Uiso   1.00
C343   C     0.44644   0.38278   0.19191   0.00000  Uiso   1.00
N344   N     0.42408   0.40205   0.16769   0.00000  Uiso   1.00
C345   C     0.55356   0.61722   0.30808   0.00000  Uiso   1.00
N346   N     0.57593   0.59794   0.33229   0.00000  Uiso   1.00
C347   C     0.55356   0.38279   0.30808   0.00000  Uiso   1.00
N348   N     0.57592   0.40206   0.33231   0.00000  Uiso   1.00
C349   C     0.44643   0.61721   0.19193   0.00000  Uiso   1.00
N350   N     0.42406   0.59793   0.16771   0.00000  Uiso   1.00
C351   C     0.75419   0.50000   0.25335   0.00000  Uiso   1.00
C352   C     0.91248   0.50000   0.24665   0.00000  Uiso   1.00
C353   C     0.75830   0.50329   0.01993   0.00000  Uiso   1.00
C354   C     0.90837   0.50327   0.48007   0.00000  Uiso   1.00
C355   C     0.68749   0.45741   0.25501   0.00000  Uiso   1.00
C356   C     0.97917   0.54259   0.24498   0.00000  Uiso   1.00
C357   C     0.97916   0.45742   0.24490   0.00000  Uiso   1.00
C358   C     0.68750   0.54258   0.25510   0.00000  Uiso   1.00
C359   C     0.95733   0.50001   0.24332   0.00000  Uiso   1.00
C360   C     0.70934   0.49999   0.25668   0.00000  Uiso   1.00
C361   C     0.80744   0.35814   0.22193   0.00000  Uiso   1.00
C362   C     0.85923   0.64186   0.27807   0.00000  Uiso   1.00
C363   C     0.85923   0.35815   0.27807   0.00000  Uiso   1.00
C364   C     0.80744   0.64185   0.22193   0.00000  Uiso   1.00
C365   C     0.83294   0.50002   0.16459   0.00000  Uiso   1.00
C366   C     0.83373   0.50002   0.33541   0.00000  Uiso   1.00
C367   C     0.87254   0.50125   0.40803   0.00000  Uiso   1.00
C368   C     0.79413   0.50126   0.09197   0.00000  Uiso   1.00
C369   C     0.83500   0.50028   0.38358   0.00000  Uiso   1.00
C370   C     0.83167   0.50028   0.11642   0.00000  Uiso   1.00
C371   C     0.79759   0.50096   0.40497   0.00000  Uiso   1.00
C372   C     0.86907   0.50095   0.09503   0.00000  Uiso   1.00
C373   C     0.79618   0.50359   0.45142   0.00000  Uiso   1.00
C374   C     0.87049   0.50358   0.04858   0.00000  Uiso   1.00
C375   C     0.83360   0.50337   0.47653   0.00000  Uiso   1.00
C376   C     0.83306   0.50337   0.02347   0.00000  Uiso   1.00
C377   C     0.87163   0.50251   0.45475   0.00000  Uiso   1.00
C378   C     0.79504   0.50252   0.04525   0.00000  Uiso   1.00
C379   C     0.75836   0.50516   0.47363   0.00000  Uiso   1.00
C380   C     0.90830   0.50514   0.02637   0.00000  Uiso   1.00
Cu381  Cu    0.83333   0.54689   0.25000   0.00000  Uiso   1.00
Cu382  Cu    0.83333   0.45311   0.25000   0.00000  Uiso   1.00
H383   H     0.76980   0.49885   0.38457   0.00000  Uiso   1.00
H384   H     0.89687   0.49883   0.11543   0.00000  Uiso   1.00
H385   H     0.72891   0.50343   0.03600   0.00000  Uiso   1.00
H386   H     0.93775   0.50340   0.46400   0.00000  Uiso   1.00
N387   N     0.83333   0.61736   0.25000   0.00000  Uiso   1.00
N388   N     0.83333   0.38264   0.25000   0.00000  Uiso   1.00
O389   O     0.77321   0.53958   0.25000   0.00000  Uiso   1.00
O390   O     0.89345   0.46042   0.25001   0.00000  Uiso   1.00
O391   O     0.89345   0.53958   0.25001   0.00000  Uiso   1.00
O392   O     0.77321   0.46042   0.25000   0.00000  Uiso   1.00
O393   O     0.83332   0.53960   0.18513   0.00000  Uiso   1.00
O394   O     0.83334   0.46040   0.31487   0.00000  Uiso   1.00
O395   O     0.83334   0.53960   0.31487   0.00000  Uiso   1.00
O396   O     0.83332   0.46040   0.18513   0.00000  Uiso   1.00
O397   O     0.91031   0.50085   0.38781   0.00000  Uiso   1.00
H398   H     0.90683   0.49952   0.35504   0.00000  Uiso   1.00
O399   O     0.75636   0.50087   0.11219   0.00000  Uiso   1.00
H400   H     0.75984   0.49952   0.14496   0.00000  Uiso   1.00
O401   O     0.72078   0.50812   0.45166   0.00000  Uiso   1.00
H402   H     0.72369   0.52827   0.42520   0.00000  Uiso   1.00
O403   O     0.94589   0.50809   0.04834   0.00000  Uiso   1.00
H404   H     0.94299   0.52824   0.07480   0.00000  Uiso   1.00
O405   O     0.70593   0.41481   0.26242   0.00000  Uiso   1.00
H406   H     0.72405   0.41814   0.28926   0.00000  Uiso   1.00
O407   O     0.96074   0.58519   0.23756   0.00000  Uiso   1.00
H408   H     0.94262   0.58184   0.21073   0.00000  Uiso   1.00
O409   O     0.96072   0.41484   0.23740   0.00000  Uiso   1.00
H410   H     0.94258   0.41824   0.21059   0.00000  Uiso   1.00
O411   O     0.70594   0.58516   0.26261   0.00000  Uiso   1.00
H412   H     0.72409   0.58175   0.28942   0.00000  Uiso   1.00
C413   C     0.77978   0.38278   0.19191   0.00000  Uiso   1.00
N414   N     0.75742   0.40205   0.16769   0.00000  Uiso   1.00
C415   C     0.88690   0.61722   0.30808   0.00000  Uiso   1.00
N416   N     0.90926   0.59794   0.33229   0.00000  Uiso   1.00
C417   C     0.88689   0.38279   0.30808   0.00000  Uiso   1.00
N418   N     0.90926   0.40206   0.33231   0.00000  Uiso   1.00
C419   C     0.77977   0.61721   0.19193   0.00000  Uiso   1.00
N420   N     0.75740   0.59793   0.16771   0.00000  Uiso   1.00
C421   C     0.08752   0.83333   0.25335   0.00000  Uiso   1.00
C422   C     0.24581   0.83334   0.24665   0.00000  Uiso   1.00
C423   C     0.09163   0.83662   0.01993   0.00000  Uiso   1.00
C424   C     0.24170   0.83660   0.48007   0.00000  Uiso   1.00
C425   C     0.02083   0.79074   0.25501   0.00000  Uiso   1.00
C426   C     0.31251   0.87593   0.24498   0.00000  Uiso   1.00
C427   C     0.31250   0.79075   0.24490   0.00000  Uiso   1.00
C428   C     0.02084   0.87591   0.25510   0.00000  Uiso   1.00
C429   C     0.29066   0.83334   0.24332   0.00000  Uiso   1.00
C430   C     0.04267   0.83333   0.25668   0.00000  Uiso   1.00
C431   C     0.14077   0.69148   0.22193   0.00000  Uiso   1.00
C432   C     0.19256   0.97519   0.27807   0.00000  Uiso   1.00
C433   C     0.19256   0.69148   0.27807   0.00000  Uiso   1.00
C434   C     0.14077   0.97519   0.22193   0.00000  Uiso   1.00
C435   C     0.16627   0.83335   0.16459   0.00000  Uiso   1.00
C436   C     0.16706   0.83335   0.33541   0.00000  Uiso   1.00
C437   C     0.20587   0.83458   0.40803   0.00000  Uiso   1.00
C438   C     0.12746   0.83459   0.09197   0.00000  Uiso   1.00
C439   C     0.16833   0.83361   0.38358   0.00000  Uiso   1.00
C440   C     0.16500   0.83361   0.11642   0.00000  Uiso   1.00
C441   C     0.13093   0.83430   0.40497   0.00000  Uiso   1.00
C442   C     0.20241   0.83429   0.09503   0.00000  Uiso   1.00
C443   C     0.12952   0.83693   0.45142   0.00000  Uiso   1.00
C444   C     0.20382   0.83692   0.04858   0.00000  Uiso   1.00
C445   C     0.16694   0.83671   0.47653   0.00000  Uiso   1.00
C446   C     0.16640   0.83671   0.02347   0.00000  Uiso   1.00
C447   C     0.20496   0.83584   0.45475   0.00000  Uiso   1.00
C448   C     0.12837   0.83585   0.04525   0.00000  Uiso   1.00
C449   C     0.09170   0.83850   0.47363   0.00000  Uiso   1.00
C450   C     0.24164   0.83848   0.02637   0.00000  Uiso   1.00
Cu451  Cu    0.16667   0.88022   0.25000   0.00000  Uiso   1.00
Cu452  Cu    0.16667   0.78645   0.25000   0.00000  Uiso   1.00
H453   H     0.10313   0.83218   0.38457   0.00000  Uiso   1.00
H454   H     0.23020   0.83216   0.11543   0.00000  Uiso   1.00
H455   H     0.06225   0.83676   0.03600   0.00000  Uiso   1.00
H456   H     0.27109   0.83673   0.46400   0.00000  Uiso   1.00
N457   N     0.16667   0.95069   0.25000   0.00000  Uiso   1.00
N458   N     0.16667   0.71598   0.25000   0.00000  Uiso   1.00
O459   O     0.10655   0.87291   0.25000   0.00000  Uiso   1.00
O460   O     0.22679   0.79375   0.25001   0.00000  Uiso   1.00
O461   O     0.22679   0.87291   0.25001   0.00000  Uiso   1.00
O462   O     0.10655   0.79375   0.25000   0.00000  Uiso   1.00
O463   O     0.16666   0.87293   0.18513   0.00000  Uiso   1.00
O464   O     0.16668   0.79373   0.31487   0.00000  Uiso   1.00
O465   O     0.16668   0.87293   0.31487   0.00000  Uiso   1.00
O466   O     0.16666   0.79373   0.18513   0.00000  Uiso   1.00
O467   O     0.24364   0.83418   0.38781   0.00000  Uiso   1.00
H468   H     0.24016   0.83285   0.35504   0.00000  Uiso   1.00
O469   O     0.08969   0.83420   0.11219   0.00000  Uiso   1.00
H470   H     0.09317   0.83286   0.14496   0.00000  Uiso   1.00
O471   O     0.05411   0.84145   0.45166   0.00000  Uiso   1.00
H472   H     0.05702   0.86161   0.42520   0.00000  Uiso   1.00
O473   O     0.27923   0.84142   0.04834   0.00000  Uiso   1.00
H474   H     0.27632   0.86158   0.07480   0.00000  Uiso   1.00
O475   O     0.03926   0.74814   0.26242   0.00000  Uiso   1.00
H476   H     0.05738   0.75148   0.28926   0.00000  Uiso   1.00
O477   O     0.29408   0.91852   0.23756   0.00000  Uiso   1.00
H478   H     0.27595   0.91518   0.21073   0.00000  Uiso   1.00
O479   O     0.29406   0.74817   0.23740   0.00000  Uiso   1.00
H480   H     0.27591   0.75157   0.21059   0.00000  Uiso   1.00
O481   O     0.03927   0.91849   0.26261   0.00000  Uiso   1.00
H482   H     0.05742   0.91508   0.28942   0.00000  Uiso   1.00
C483   C     0.11311   0.71611   0.19191   0.00000  Uiso   1.00
N484   N     0.09075   0.73538   0.16769   0.00000  Uiso   1.00
C485   C     0.22023   0.95055   0.30808   0.00000  Uiso   1.00
N486   N     0.24260   0.93128   0.33229   0.00000  Uiso   1.00
C487   C     0.22023   0.71612   0.30808   0.00000  Uiso   1.00
N488   N     0.24259   0.73539   0.33231   0.00000  Uiso   1.00
C489   C     0.11310   0.95054   0.19193   0.00000  Uiso   1.00
N490   N     0.09073   0.93127   0.16771   0.00000  Uiso   1.00
C491   C     0.42085   0.83333   0.25335   0.00000  Uiso   1.00
C492   C     0.57914   0.83334   0.24665   0.00000  Uiso   1.00
C493   C     0.42496   0.83662   0.01993   0.00000  Uiso   1.00
C494   C     0.57504   0.83660   0.48007   0.00000  Uiso   1.00
C495   C     0.35416   0.79074   0.25501   0.00000  Uiso   1.00
C496   C     0.64584   0.87593   0.24498   0.00000  Uiso   1.00
C497   C     0.64583   0.79075   0.24490   0.00000  Uiso   1.00
C498   C     0.35417   0.87591   0.25510   0.00000  Uiso   1.00
C499   C     0.62399   0.83334   0.24332   0.00000  Uiso   1.00
C500   C     0.37601   0.83333   0.25668   0.00000  Uiso   1.00
C501   C     0.47411   0.69148   0.22193   0.00000  Uiso   1.00
C502   C     0.52589   0.97519   0.27807   0.00000  Uiso   1.00
C503   C     0.52589   0.69148   0.27807   0.00000  Uiso   1.00
C504   C     0.47411   0.97519   0.22193   0.00000  Uiso   1.00
C505   C     0.49960   0.83335   0.16459   0.00000  Uiso   1.00
C506   C     0.50040   0.83335   0.33541   0.00000  Uiso   1.00
C507   C     0.53921   0.83458   0.40803   0.00000  Uiso   1.00
C508   C     0.46079   0.83459   0.09197   0.00000  Uiso   1.00
C509   C     0.50166   0.83361   0.38358   0.00000  Uiso   1.00
C510   C     0.49834   0.83361   0.11642   0.00000  Uiso   1.00
C511   C     0.46426   0.83430   0.40497   0.00000  Uiso   1.00
C512   C     0.53574   0.83429   0.09503   0.00000  Uiso   1.00
C513   C     0.46285   0.83693   0.45142   0.00000  Uiso   1.00
C514   C     0.53715   0.83692   0.04858   0.00000  Uiso   1.00
C515   C     0.50027   0.83671   0.47653   0.00000  Uiso   1.00
C516   C     0.49973   0.83671   0.02347   0.00000  Uiso   1.00
C517   C     0.53830   0.83584   0.45475   0.00000  Uiso   1.00
C518   C     0.46170   0.83585   0.04525   0.00000  Uiso   1.00
C519   C     0.42503   0.83850   0.47363   0.00000  Uiso   1.00
C520   C     0.57497   0.83848   0.02637   0.00000  Uiso   1.00
Cu521  Cu    0.50000   0.88022   0.25000   0.00000  Uiso   1.00
Cu522  Cu    0.50000   0.78645   0.25000   0.00000  Uiso   1.00
H523   H     0.43647   0.83218   0.38457   0.00000  Uiso   1.00
H524   H     0.56353   0.83216   0.11543   0.00000  Uiso   1.00
H525   H     0.39558   0.83676   0.03600   0.00000  Uiso   1.00
H526   H     0.60442   0.83673   0.46400   0.00000  Uiso   1.00
N527   N     0.50000   0.95069   0.25000   0.00000  Uiso   1.00
N528   N     0.50000   0.71598   0.25000   0.00000  Uiso   1.00
O529   O     0.43988   0.87291   0.25000   0.00000  Uiso   1.00
O530   O     0.56012   0.79375   0.25001   0.00000  Uiso   1.00
O531   O     0.56012   0.87291   0.25001   0.00000  Uiso   1.00
O532   O     0.43988   0.79375   0.25000   0.00000  Uiso   1.00
O533   O     0.49999   0.87293   0.18513   0.00000  Uiso   1.00
O534   O     0.50001   0.79373   0.31487   0.00000  Uiso   1.00
O535   O     0.50001   0.87293   0.31487   0.00000  Uiso   1.00
O536   O     0.49999   0.79373   0.18513   0.00000  Uiso   1.00
O537   O     0.57697   0.83418   0.38781   0.00000  Uiso   1.00
H538   H     0.57350   0.83285   0.35504   0.00000  Uiso   1.00
O539   O     0.42303   0.83420   0.11219   0.00000  Uiso   1.00
H540   H     0.42650   0.83286   0.14496   0.00000  Uiso   1.00
O541   O     0.38744   0.84145   0.45166   0.00000  Uiso   1.00
H542   H     0.39036   0.86161   0.42520   0.00000  Uiso   1.00
O543   O     0.61256   0.84142   0.04834   0.00000  Uiso   1.00
H544   H     0.60965   0.86158   0.07480   0.00000  Uiso   1.00
O545   O     0.37259   0.74814   0.26242   0.00000  Uiso   1.00
H546   H     0.39071   0.75148   0.28926   0.00000  Uiso   1.00
O547   O     0.62741   0.91852   0.23756   0.00000  Uiso   1.00
H548   H     0.60929   0.91518   0.21073   0.00000  Uiso   1.00
O549   O     0.62739   0.74817   0.23740   0.00000  Uiso   1.00
H550   H     0.60924   0.75157   0.21059   0.00000  Uiso   1.00
O551   O     0.37261   0.91849   0.26261   0.00000  Uiso   1.00
H552   H     0.39075   0.91508   0.28942   0.00000  Uiso   1.00
C553   C     0.44644   0.71611   0.19191   0.00000  Uiso   1.00
N554   N     0.42408   0.73538   0.16769   0.00000  Uiso   1.00
C555   C     0.55356   0.95055   0.30808   0.00000  Uiso   1.00
N556   N     0.57593   0.93128   0.33229   0.00000  Uiso   1.00
C557   C     0.55356   0.71612   0.30808   0.00000  Uiso   1.00
N558   N     0.57592   0.73539   0.33231   0.00000  Uiso   1.00
C559   C     0.44643   0.95054   0.19193   0.00000  Uiso   1.00
N560   N     0.42406   0.93127   0.16771   0.00000  Uiso   1.00
C561   C     0.75419   0.83333   0.25335   0.00000  Uiso   1.00
C562   C     0.91248   0.83334   0.24665   0.00000  Uiso   1.00
C563   C     0.75830   0.83662   0.01993   0.00000  Uiso   1.00
C564   C     0.90837   0.83660   0.48007   0.00000  Uiso   1.00
C565   C     0.68749   0.79074   0.25501   0.00000  Uiso   1.00
C566   C     0.97917   0.87593   0.24498   0.00000  Uiso   1.00
C567   C     0.97916   0.79075   0.24490   0.00000  Uiso   1.00
C568   C     0.68750   0.87591   0.25510   0.00000  Uiso   1.00
C569   C     0.95733   0.83334   0.24332   0.00000  Uiso   1.00
C570   C     0.70934   0.83333   0.25668   0.00000  Uiso   1.00
C571   C     0.80744   0.69148   0.22193   0.00000  Uiso   1.00
C572   C     0.85923   0.97519   0.27807   0.00000  Uiso   1.00
C573   C     0.85923   0.69148   0.27807   0.00000  Uiso   1.00
C574   C     0.80744   0.97519   0.22193   0.00000  Uiso   1.00
C575   C     0.83294   0.83335   0.16459   0.00000  Uiso   1.00
C576   C     0.83373   0.83335   0.33541   0.00000  Uiso   1.00
C577   C     0.87254   0.83458   0.40803   0.00000  Uiso   1.00
C578   C     0.79413   0.83459   0.09197   0.00000  Uiso   1.00
C579   C     0.83500   0.83361   0.38358   0.00000  Uiso   1.00
C580   C     0.83167   0.83361   0.11642   0.00000  Uiso   1.00
C581   C     0.79759   0.83430   0.40497   0.00000  Uiso   1.00
C582   C     0.86907   0.83429   0.09503   0.00000  Uiso   1.00
C583   C     0.79618   0.83693   0.45142   0.00000  Uiso   1.00
C584   C     0.87049   0.83692   0.04858   0.00000  Uiso   1.00
C585   C     0.83360   0.83671   0.47653   0.00000  Uiso   1.00
C586   C     0.83306   0.83671   0.02347   0.00000  Uiso   1.00
C587   C     0.87163   0.83584   0.45475   0.00000  Uiso   1.00
C588   C     0.79504   0.83585   0.04525   0.00000  Uiso   1.00
C589   C     0.75836   0.83850   0.47363   0.00000  Uiso   1.00
C590   C     0.90830   0.83848   0.02637   0.00000  Uiso   1.00
Cu591  Cu    0.83333   0.88022   0.25000   0.00000  Uiso   1.00
Cu592  Cu    0.83333   0.78645   0.25000   0.00000  Uiso   1.00
H593   H     0.76980   0.83218   0.38457   0.00000  Uiso   1.00
H594   H     0.89687   0.83216   0.11543   0.00000  Uiso   1.00
H595   H     0.72891   0.83676   0.03600   0.00000  Uiso   1.00
H596   H     0.93775   0.83673   0.46400   0.00000  Uiso   1.00
N597   N     0.83333   0.95069   0.25000   0.00000  Uiso   1.00
N598   N     0.83333   0.71598   0.25000   0.00000  Uiso   1.00
O599   O     0.77321   0.87291   0.25000   0.00000  Uiso   1.00
O600   O     0.89345   0.79375   0.25001   0.00000  Uiso   1.00
O601   O     0.89345   0.87291   0.25001   0.00000  Uiso   1.00
O602   O     0.77321   0.79375   0.25000   0.00000  Uiso   1.00
O603   O     0.83332   0.87293   0.18513   0.00000  Uiso   1.00
O604   O     0.83334   0.79373   0.31487   0.00000  Uiso   1.00
O605   O     0.83334   0.87293   0.31487   0.00000  Uiso   1.00
O606   O     0.83332   0.79373   0.18513   0.00000  Uiso   1.00
O607   O     0.91031   0.83418   0.38781   0.00000  Uiso   1.00
H608   H     0.90683   0.83285   0.35504   0.00000  Uiso   1.00
O609   O     0.75636   0.83420   0.11219   0.00000  Uiso   1.00
H610   H     0.75984   0.83286   0.14496   0.00000  Uiso   1.00
O611   O     0.72078   0.84145   0.45166   0.00000  Uiso   1.00
H612   H     0.72369   0.86161   0.42520   0.00000  Uiso   1.00
O613   O     0.94589   0.84142   0.04834   0.00000  Uiso   1.00
H614   H     0.94299   0.86158   0.07480   0.00000  Uiso   1.00
O615   O     0.70593   0.74814   0.26242   0.00000  Uiso   1.00
H616   H     0.72405   0.75148   0.28926   0.00000  Uiso   1.00
O617   O     0.96074   0.91852   0.23756   0.00000  Uiso   1.00
H618   H     0.94262   0.91518   0.21073   0.00000  Uiso   1.00
O619   O     0.96072   0.74817   0.23740   0.00000  Uiso   1.00
H620   H     0.94258   0.75157   0.21059   0.00000  Uiso   1.00
O621   O     0.70594   0.91849   0.26261   0.00000  Uiso   1.00
H622   H     0.72409   0.91508   0.28942   0.00000  Uiso   1.00
C623   C     0.77978   0.71611   0.19191   0.00000  Uiso   1.00
N624   N     0.75742   0.73538   0.16769   0.00000  Uiso   1.00
C625   C     0.88690   0.95055   0.30808   0.00000  Uiso   1.00
N626   N     0.90926   0.93128   0.33229   0.00000  Uiso   1.00
C627   C     0.88689   0.71612   0.30808   0.00000  Uiso   1.00
N628   N     0.90926   0.73539   0.33231   0.00000  Uiso   1.00
C629   C     0.77977   0.95054   0.19193   0.00000  Uiso   1.00
N630   N     0.75740   0.93127   0.16771   0.00000  Uiso   1.00
C631   C     0.08752   0.16666   0.75335   0.00000  Uiso   1.00
C632   C     0.24581   0.16667   0.74665   0.00000  Uiso   1.00
C633   C     0.09163   0.16996   0.51993   0.00000  Uiso   1.00
C634   C     0.24170   0.16993   0.98007   0.00000  Uiso   1.00
C635   C     0.02083   0.12407   0.75501   0.00000  Uiso   1.00
C636   C     0.31251   0.20926   0.74498   0.00000  Uiso   1.00
C637   C     0.31250   0.12408   0.74490   0.00000  Uiso   1.00
C638   C     0.02084   0.20925   0.75510   0.00000  Uiso   1.00
C639   C     0.29066   0.16667   0.74332   0.00000  Uiso   1.00
C640   C     0.04267   0.16666   0.75668   0.00000  Uiso   1.00
C641   C     0.14077   0.02481   0.72193   0.00000  Uiso   1.00
C642   C     0.19256   0.30852   0.77807   0.00000  Uiso   1.00
C643   C     0.19256   0.02481   0.77807   0.00000  Uiso   1.00
C644   C     0.14077   0.30852   0.72193   0.00000  Uiso   1.00
C645   C     0.16627   0.16668   0.66459   0.00000  Uiso   1.00
C646   C     0.16706   0.16668   0.83541   0.00000  Uiso   1.00
C647   C     0.20587   0.16792   0.90803   0.00000  Uiso   1.00
C648   C     0.12746   0.16793   0.59197   0.00000  Uiso   1.00
C649   C     0.16833   0.16694   0.88358   0.00000  Uiso   1.00
C650   C     0.16500   0.16695   0.61642   0.00000  Uiso   1.00
C651   C     0.13093   0.16763   0.90497   0.00000  Uiso   1.00
C652   C     0.20241   0.16762   0.59503   0.00000  Uiso   1.00
C653   C     0.12952   0.17026   0.95142   0.00000  Uiso   1.00
C654   C     0.20382   0.17025   0.54858   0.00000  Uiso   1.00
C655   C     0.16694   0.17004   0.97653   0.00000  Uiso   1.00
C656   C     0.16640   0.17004   0.52347   0.00000  Uiso   1.00
C657   C     0.20496   0.16918   0.95475   0.00000  Uiso   1.00
C658   C     0.12837   0.16919   0.54525   0.00000  Uiso   1.00
C659   C     0.09170   0.17183   0.97363   0.00000  Uiso   1.00
C660   C     0.24164   0.17181   0.52637   0.00000  Uiso   1.00
Cu661  Cu    0.16667   0.21355   0.75000   0.00000  Uiso   1.00
Cu662  Cu    0.16667   0.11978   0.75000   0.00000  Uiso   1.00
H663   H     0.10313   0.16552   0.88457   0.00000  Uiso   1.00
H664   H     0.23020   0.16550   0.61543   0.00000  Uiso   1.00
H665   H     0.06225   0.17009   0.53600   0.00000  Uiso   1.00
H666   H     0.27109   0.17006   0.96400   0.00000  Uiso   1.00
N667   N     0.16667   0.28402   0.75000   0.00000  Uiso   1.00
N668   N     0.16667   0.04931   0.75000   0.00000  Uiso   1.00
O669   O     0.10655   0.20625   0.75000   0.00000  Uiso   1.00
O670   O     0.22679   0.12709   0.75001   0.00000  Uiso   1.00
O671   O     0.22679   0.20625   0.75001   0.00000  Uiso   1.00
O672   O     0.10655   0.12709   0.75000   0.00000  Uiso   1.00
O673   O     0.16666   0.20627   0.68513   0.00000  Uiso   1.00
O674   O     0.16668   0.12707   0.81487   0.00000  Uiso   1.00
O675   O     0.16668   0.20627   0.81487   0.00000  Uiso   1.00
O676   O     0.16666   0.12707   0.68513   0.00000  Uiso   1.00
O677   O     0.24364   0.16752   0.88781   0.00000  Uiso   1.00
H678   H     0.24016   0.16619   0.85504   0.00000  Uiso   1.00
O679   O     0.08969   0.16753   0.61219   0.00000  Uiso   1.00
H680   H     0.09317   0.16619   0.64496   0.00000  Uiso   1.00
O681   O     0.05411   0.17478   0.95166   0.00000  Uiso   1.00
H682   H     0.05702   0.19494   0.92520   0.00000  Uiso   1.00
O683   O     0.27923   0.17475   0.54834   0.00000  Uiso   1.00
H684   H     0.27632   0.19491   0.57480   0.00000  Uiso   1.00
O685   O     0.03926   0.08148   0.76242   0.00000  Uiso   1.00
H686   H     0.05738   0.08481   0.78926   0.00000  Uiso   1.00
O687   O     0.29408   0.25185   0.73756   0.00000  Uiso   1.00
H688   H     0.27595   0.24851   0.71073   0.00000  Uiso   1.00
O689   O     0.29406   0.08151   0.73740   0.00000  Uiso   1.00
H690   H     0.27591   0.08491   0.71059   0.00000  Uiso   1.00
O691   O     0.03927   0.25182   0.76261   0.00000  Uiso   1.00
H692   H     0.05742   0.24841   0.78942   0.00000  Uiso   1.00
C693   C     0.11311   0.04945   0.69191   0.00000  Uiso   1.00
N694   N     0.09075   0.06872   0.66769   0.00000  Uiso   1.00
C695   C     0.22023   0.28388   0.80808   0.00000  Uiso   1.00
N696   N     0.24260   0.26461   0.83229   0.00000  Uiso   1.00
C697   C     0.22023   0.04945   0.80808   0.00000  Uiso   1.00
N698   N     0.24259   0.06873   0.83231   0.00000  Uiso   1.00
C699   C     0.11310   0.28388   0.69193   0.00000  Uiso   1.00
N700   N     0.09073   0.26460   0.66771   0.00000  Uiso   1.00
C701   C     0.42085   0.16666   0.75335   0.00000  Uiso   1.00
C702   C     0.57914   0.16667   0.74665   0.00000  Uiso   1.00
C703   C     0.42496   0.16996   0.51993   0.00000  Uiso   1.00
C704   C     0.57504   0.16993   0.98007   0.00000  Uiso   1.00
C705   C     0.35416   0.12407   0.75501   0.00000  Uiso   1.00
C706   C     0.64584   0.20926   0.74498   0.00000  Uiso   1.00
C707   C     0.64583   0.12408   0.74490   0.00000  Uiso   1.00
C708   C     0.35417   0.20925   0.75510   0.00000  Uiso   1.00
C709   C     0.62399   0.16667   0.74332   0.00000  Uiso   1.00
C710   C     0.37601   0.16666   0.75668   0.00000  Uiso   1.00
C711   C     0.47411   0.02481   0.72193   0.00000  Uiso   1.00
C712   C     0.52589   0.30852   0.77807   0.00000  Uiso   1.00
C713   C     0.52589   0.02481   0.77807   0.00000  Uiso   1.00
C714   C     0.47411   0.30852   0.72193   0.00000  Uiso   1.00
C715   C     0.49960   0.16668   0.66459   0.00000  Uiso   1.00
C716   C     0.50040   0.16668   0.83541   0.00000  Uiso   1.00
C717   C     0.53921   0.16792   0.90803   0.00000  Uiso   1.00
C718   C     0.46079   0.16793   0.59197   0.00000  Uiso   1.00
C719   C     0.50166   0.16694   0.88358   0.00000  Uiso   1.00
C720   C     0.49834   0.16695   0.61642   0.00000  Uiso   1.00
C721   C     0.46426   0.16763   0.90497   0.00000  Uiso   1.00
C722   C     0.53574   0.16762   0.59503   0.00000  Uiso   1.00
C723   C     0.46285   0.17026   0.95142   0.00000  Uiso   1.00
C724   C     0.53715   0.17025   0.54858   0.00000  Uiso   1.00
C725   C     0.50027   0.17004   0.97653   0.00000  Uiso   1.00
C726   C     0.49973   0.17004   0.52347   0.00000  Uiso   1.00
C727   C     0.53830   0.16918   0.95475   0.00000  Uiso   1.00
C728   C     0.46170   0.16919   0.54525   0.00000  Uiso   1.00
C729   C     0.42503   0.17183   0.97363   0.00000  Uiso   1.00
C730   C     0.57497   0.17181   0.52637   0.00000  Uiso   1.00
Cu731  Cu    0.50000   0.21355   0.75000   0.00000  Uiso   1.00
Cu732  Cu    0.50000   0.11978   0.75000   0.00000  Uiso   1.00
H733   H     0.43647   0.16552   0.88457   0.00000  Uiso   1.00
H734   H     0.56353   0.16550   0.61543   0.00000  Uiso   1.00
H735   H     0.39558   0.17009   0.53600   0.00000  Uiso   1.00
H736   H     0.60442   0.17006   0.96400   0.00000  Uiso   1.00
N737   N     0.50000   0.28402   0.75000   0.00000  Uiso   1.00
N738   N     0.50000   0.04931   0.75000   0.00000  Uiso   1.00
O739   O     0.43988   0.20625   0.75000   0.00000  Uiso   1.00
O740   O     0.56012   0.12709   0.75001   0.00000  Uiso   1.00
O741   O     0.56012   0.20625   0.75001   0.00000  Uiso   1.00
O742   O     0.43988   0.12709   0.75000   0.00000  Uiso   1.00
O743   O     0.49999   0.20627   0.68513   0.00000  Uiso   1.00
O744   O     0.50001   0.12707   0.81487   0.00000  Uiso   1.00
O745   O     0.50001   0.20627   0.81487   0.00000  Uiso   1.00
O746   O     0.49999   0.12707   0.68513   0.00000  Uiso   1.00
O747   O     0.57697   0.16752   0.88781   0.00000  Uiso   1.00
H748   H     0.57350   0.16619   0.85504   0.00000  Uiso   1.00
O749   O     0.42303   0.16753   0.61219   0.00000  Uiso   1.00
H750   H     0.42650   0.16619   0.64496   0.00000  Uiso   1.00
O751   O     0.38744   0.17478   0.95166   0.00000  Uiso   1.00
H752   H     0.39036   0.19494   0.92520   0.00000  Uiso   1.00
O753   O     0.61256   0.17475   0.54834   0.00000  Uiso   1.00
H754   H     0.60965   0.19491   0.57480   0.00000  Uiso   1.00
O755   O     0.37259   0.08148   0.76242   0.00000  Uiso   1.00
H756   H     0.39071   0.08481   0.78926   0.00000  Uiso   1.00
O757   O     0.62741   0.25185   0.73756   0.00000  Uiso   1.00
H758   H     0.60929   0.24851   0.71073   0.00000  Uiso   1.00
O759   O     0.62739   0.08151   0.73740   0.00000  Uiso   1.00
H760   H     0.60924   0.08491   0.71059   0.00000  Uiso   1.00
O761   O     0.37261   0.25182   0.76261   0.00000  Uiso   1.00
H762   H     0.39075   0.24841   0.78942   0.00000  Uiso   1.00
C763   C     0.44644   0.04945   0.69191   0.00000  Uiso   1.00
N764   N     0.42408   0.06872   0.66769   0.00000  Uiso   1.00
C765   C     0.55356   0.28388   0.80808   0.00000  Uiso   1.00
N766   N     0.57593   0.26461   0.83229   0.00000  Uiso   1.00
C767   C     0.55356   0.04945   0.80808   0.00000  Uiso   1.00
N768   N     0.57592   0.06873   0.83231   0.00000  Uiso   1.00
C769   C     0.44643   0.28388   0.69193   0.00000  Uiso   1.00
N770   N     0.42406   0.26460   0.66771   0.00000  Uiso   1.00
C771   C     0.75419   0.16666   0.75335   0.00000  Uiso   1.00
C772   C     0.91248   0.16667   0.74665   0.00000  Uiso   1.00
C773   C     0.75830   0.16996   0.51993   0.00000  Uiso   1.00
C774   C     0.90837   0.16993   0.98007   0.00000  Uiso   1.00
C775   C     0.68749   0.12407   0.75501   0.00000  Uiso   1.00
C776   C     0.97917   0.20926   0.74498   0.00000  Uiso   1.00
C777   C     0.97916   0.12408   0.74490   0.00000  Uiso   1.00
C778   C     0.68750   0.20925   0.75510   0.00000  Uiso   1.00
C779   C     0.95733   0.16667   0.74332   0.00000  Uiso   1.00
C780   C     0.70934   0.16666   0.75668   0.00000  Uiso   1.00
C781   C     0.80744   0.02481   0.72193   0.00000  Uiso   1.00
C782   C     0.85923   0.30852   0.77807   0.00000  Uiso   1.00
C783   C     0.85923   0.02481   0.77807   0.00000  Uiso   1.00
C784   C     0.80744   0.30852   0.72193   0.00000  Uiso   1.00
C785   C     0.83294   0.16668   0.66459   0.00000  Uiso   1.00
C786   C     0.83373   0.16668   0.83541   0.00000  Uiso   1.00
C787   C     0.87254   0.16792   0.90803   0.00000  Uiso   1.00
C788   C     0.79413   0.16793   0.59197   0.00000  Uiso   1.00
C789   C     0.83500   0.16694   0.88358   0.00000  Uiso   1.00
C790   C     0.83167   0.16695   0.61642   0.00000  Uiso   1.00
C791   C     0.79759   0.16763   0.90497   0.00000  Uiso   1.00
C792   C     0.86907   0.16762   0.59503   0.00000  Uiso   1.00
C793   C     0.79618   0.17026   0.95142   0.00000  Uiso   1.00
C794   C     0.87049   0.17025   0.54858   0.00000  Uiso   1.00
C795   C     0.83360   0.17004   0.97653   0.00000  Uiso   1.00
C796   C     0.83306   0.17004   0.52347   0.00000  Uiso   1.00
C797   C     0.87163   0.16918   0.95475   0.00000  Uiso   1.00
C798   C     0.79504   0.16919   0.54525   0.00000  Uiso   1.00
C799   C     0.75836   0.17183   0.97363   0.00000  Uiso   1.00
C800   C     0.90830   0.17181   0.52637   0.00000  Uiso   1.00
Cu801  Cu    0.83333   0.21355   0.75000   0.00000  Uiso   1.00
Cu802  Cu    0.83333   0.11978   0.75000   0.00000  Uiso   1.00
H803   H     0.76980   0.16552   0.88457   0.00000  Uiso   1.00
H804   H     0.89687   0.16550   0.61543   0.00000  Uiso   1.00
H805   H     0.72891   0.17009   0.53600   0.00000  Uiso   1.00
H806   H     0.93775   0.17006   0.96400   0.00000  Uiso   1.00
N807   N     0.83333   0.28402   0.75000   0.00000  Uiso   1.00
N808   N     0.83333   0.04931   0.75000   0.00000  Uiso   1.00
O809   O     0.77321   0.20625   0.75000   0.00000  Uiso   1.00
O810   O     0.89345   0.12709   0.75001   0.00000  Uiso   1.00
O811   O     0.89345   0.20625   0.75001   0.00000  Uiso   1.00
O812   O     0.77321   0.12709   0.75000   0.00000  Uiso   1.00
O813   O     0.83332   0.20627   0.68513   0.00000  Uiso   1.00
O814   O     0.83334   0.12707   0.81487   0.00000  Uiso   1.00
O815   O     0.83334   0.20627   0.81487   0.00000  Uiso   1.00
O816   O     0.83332   0.12707   0.68513   0.00000  Uiso   1.00
O817   O     0.91031   0.16752   0.88781   0.00000  Uiso   1.00
H818   H     0.90683   0.16619   0.85504   0.00000  Uiso   1.00
O819   O     0.75636   0.16753   0.61219   0.00000  Uiso   1.00
H820   H     0.75984   0.16619   0.64496   0.00000  Uiso   1.00
O821   O     0.72078   0.17478   0.95166   0.00000  Uiso   1.00
H822   H     0.72369   0.19494   0.92520   0.00000  Uiso   1.00
O823   O     0.94589   0.17475   0.54834   0.00000  Uiso   1.00
H824   H     0.94299   0.19491   0.57480   0.00000  Uiso   1.00
O825   O     0.70593   0.08148   0.76242   0.00000  Uiso   1.00
H826   H     0.72405   0.08481   0.78926   0.00000  Uiso   1.00
O827   O     0.96074   0.25185   0.73756   0.00000  Uiso   1.00
H828   H     0.94262   0.24851   0.71073   0.00000  Uiso   1.00
O829   O     0.96072   0.08151   0.73740   0.00000  Uiso   1.00
H830   H     0.94258   0.08491   0.71059   0.00000  Uiso   1.00
O831   O     0.70594   0.25182   0.76261   0.00000  Uiso   1.00
H832   H     0.72409   0.24841   0.78942   0.00000  Uiso   1.00
C833   C     0.77978   0.04945   0.69191   0.00000  Uiso   1.00
N834   N     0.75742   0.06872   0.66769   0.00000  Uiso   1.00
C835   C     0.88690   0.28388   0.80808   0.00000  Uiso   1.00
N836   N     0.90926   0.26461   0.83229   0.00000  Uiso   1.00
C837   C     0.88689   0.04945   0.80808   0.00000  Uiso   1.00
N838   N     0.90926   0.06873   0.83231   0.00000  Uiso   1.00
C839   C     0.77977   0.28388   0.69193   0.00000  Uiso   1.00
N840   N     0.75740   0.26460   0.66771   0.00000  Uiso   1.00
C841   C     0.08752   0.50000   0.75335   0.00000  Uiso   1.00
C842   C     0.24581   0.50000   0.74665   0.00000  Uiso   1.00
C843   C     0.09163   0.50329   0.51993   0.00000  Uiso   1.00
C844   C     0.24170   0.50327   0.98007   0.00000  Uiso   1.00
C845   C     0.02083   0.45741   0.75501   0.00000  Uiso   1.00
C846   C     0.31251   0.54259   0.74498   0.00000  Uiso   1.00
C847   C     0.31250   0.45742   0.74490   0.00000  Uiso   1.00
C848   C     0.02084   0.54258   0.75510   0.00000  Uiso   1.00
C849   C     0.29066   0.50001   0.74332   0.00000  Uiso   1.00
C850   C     0.04267   0.49999   0.75668   0.00000  Uiso   1.00
C851   C     0.14077   0.35814   0.72193   0.00000  Uiso   1.00
C852   C     0.19256   0.64186   0.77807   0.00000  Uiso   1.00
C853   C     0.19256   0.35815   0.77807   0.00000  Uiso   1.00
C854   C     0.14077   0.64185   0.72193   0.00000  Uiso   1.00
C855   C     0.16627   0.50002   0.66459   0.00000  Uiso   1.00
C856   C     0.16706   0.50002   0.83541   0.00000  Uiso   1.00
C857   C     0.20587   0.50125   0.90803   0.00000  Uiso   1.00
C858   C     0.12746   0.50126   0.59197   0.00000  Uiso   1.00
C859   C     0.16833   0.50028   0.88358   0.00000  Uiso   1.00
C860   C     0.16500   0.50028   0.61642   0.00000  Uiso   1.00
C861   C     0.13093   0.50096   0.90497   0.00000  Uiso   1.00
C862   C     0.20241   0.50095   0.59503   0.00000  Uiso   1.00
C863   C     0.12952   0.50359   0.95142   0.00000  Uiso   1.00
C864   C     0.20382   0.50358   0.54858   0.00000  Uiso   1.00
C865   C     0.16694   0.50337   0.97653   0.00000  Uiso   1.00
C866   C     0.16640   0.50337   0.52347   0.00000  Uiso   1.00
C867   C     0.20496   0.50251   0.95475   0.00000  Uiso   1.00
C868   C     0.12837   0.50252   0.54525   0.00000  Uiso   1.00
C869   C     0.09170   0.50516   0.97363   0.00000  Uiso   1.00
C870   C     0.24164   0.50514   0.52637   0.00000  Uiso   1.00
Cu871  Cu    0.16667   0.54689   0.75000   0.00000  Uiso   1.00
Cu872  Cu    0.16667   0.45311   0.75000   0.00000  Uiso   1.00
H873   H     0.10313   0.49885   0.88457   0.00000  Uiso   1.00
H874   H     0.23020   0.49883   0.61543   0.00000  Uiso   1.00
H875   H     0.06225   0.50343   0.53600   0.00000  Uiso   1.00
H876   H     0.27109   0.50340   0.96400   0.00000  Uiso   1.00
N877   N     0.16667   0.61736   0.75000   0.00000  Uiso   1.00
N878   N     0.16667   0.38264   0.75000   0.00000  Uiso   1.00
O879   O     0.10655   0.53958   0.75000   0.00000  Uiso   1.00
O880   O     0.22679   0.46042   0.75001   0.00000  Uiso   1.00
O881   O     0.22679   0.53958   0.75001   0.00000  Uiso   1.00
O882   O     0.10655   0.46042   0.75000   0.00000  Uiso   1.00
O883   O     0.16666   0.53960   0.68513   0.00000  Uiso   1.00
O884   O     0.16668   0.46040   0.81487   0.00000  Uiso   1.00
O885   O     0.16668   0.53960   0.81487   0.00000  Uiso   1.00
O886   O     0.16666   0.46040   0.68513   0.00000  Uiso   1.00
O887   O     0.24364   0.50085   0.88781   0.00000  Uiso   1.00
H888   H     0.24016   0.49952   0.85504   0.00000  Uiso   1.00
O889   O     0.08969   0.50087   0.61219   0.00000  Uiso   1.00
H890   H     0.09317   0.49952   0.64496   0.00000  Uiso   1.00
O891   O     0.05411   0.50812   0.95166   0.00000  Uiso   1.00
H892   H     0.05702   0.52827   0.92520   0.00000  Uiso   1.00
O893   O     0.27923   0.50809   0.54834   0.00000  Uiso   1.00
H894   H     0.27632   0.52824   0.57480   0.00000  Uiso   1.00
O895   O     0.03926   0.41481   0.76242   0.00000  Uiso   1.00
H896   H     0.05738   0.41814   0.78926   0.00000  Uiso   1.00
O897   O     0.29408   0.58519   0.73756   0.00000  Uiso   1.00
H898   H     0.27595   0.58184   0.71073   0.00000  Uiso   1.00
O899   O     0.29406   0.41484   0.73740   0.00000  Uiso   1.00
H900   H     0.27591   0.41824   0.71059   0.00000  Uiso   1.00
O901   O     0.03927   0.58516   0.76261   0.00000  Uiso   1.00
H902   H     0.05742   0.58175   0.78942   0.00000  Uiso   1.00
C903   C     0.11311   0.38278   0.69191   0.00000  Uiso   1.00
N904   N     0.09075   0.40205   0.66769   0.00000  Uiso   1.00
C905   C     0.22023   0.61722   0.80808   0.00000  Uiso   1.00
N906   N     0.24260   0.59794   0.83229   0.00000  Uiso   1.00
C907   C     0.22023   0.38279   0.80808   0.00000  Uiso   1.00
N908   N     0.24259   0.40206   0.83231   0.00000  Uiso   1.00
C909   C     0.11310   0.61721   0.69193   0.00000  Uiso   1.00
N910   N     0.09073   0.59793   0.66771   0.00000  Uiso   1.00
C911   C     0.42085   0.50000   0.75335   0.00000  Uiso   1.00
C912   C     0.57914   0.50000   0.74665   0.00000  Uiso   1.00
C913   C     0.42496   0.50329   0.51993   0.00000  Uiso   1.00
C914   C     0.57504   0.50327   0.98007   0.00000  Uiso   1.00
C915   C     0.35416   0.45741   0.75501   0.00000  Uiso   1.00
C916   C     0.64584   0.54259   0.74498   0.00000  Uiso   1.00
C917   C     0.64583   0.45742   0.74490   0.00000  Uiso   1.00
C918   C     0.35417   0.54258   0.75510   0.00000  Uiso   1.00
C919   C     0.62399   0.50001   0.74332   0.00000  Uiso   1.00
C920   C     0.37601   0.49999   0.75668   0.00000  Uiso   1.00
C921   C     0.47411   0.35814   0.72193   0.00000  Uiso   1.00
C922   C     0.52589   0.64186   0.77807   0.00000  Uiso   1.00
C923   C     0.52589   0.35815   0.77807   0.00000  Uiso   1.00
C924   C     0.47411   0.64185   0.72193   0.00000  Uiso   1.00
C925   C     0.49960   0.50002   0.66459   0.00000  Uiso   1.00
C926   C     0.50040   0.50002   0.83541   0.00000  Uiso   1.00
C927   C     0.53921   0.50125   0.90803   0.00000  Uiso   1.00
C928   C     0.46079   0.50126   0.59197   0.00000  Uiso   1.00
C929   C     0.50166   0.50028   0.88358   0.00000  Uiso   1.00
C930   C     0.49834   0.50028   0.61642   0.00000  Uiso   1.00
C931   C     0.46426   0.50096   0.90497   0.00000  Uiso   1.00
C932   C     0.53574   0.50095   0.59503   0.00000  Uiso   1.00
C933   C     0.46285   0.50359   0.95142   0.00000  Uiso   1.00
C934   C     0.53715   0.50358   0.54858   0.00000  Uiso   1.00
C935   C     0.50027   0.50337   0.97653   0.00000  Uiso   1.00
C936   C     0.49973   0.50337   0.52347   0.00000  Uiso   1.00
C937   C     0.53830   0.50251   0.95475   0.00000  Uiso   1.00
C938   C     0.46170   0.50252   0.54525   0.00000  Uiso   1.00
C939   C     0.42503   0.50516   0.97363   0.00000  Uiso   1.00
C940   C     0.57497   0.50514   0.52637   0.00000  Uiso   1.00
Cu941  Cu    0.50000   0.54689   0.75000   0.00000  Uiso   1.00
Cu942  Cu    0.50000   0.45311   0.75000   0.00000  Uiso   1.00
H943   H     0.43647   0.49885   0.88457   0.00000  Uiso   1.00
H944   H     0.56353   0.49883   0.61543   0.00000  Uiso   1.00
H945   H     0.39558   0.50343   0.53600   0.00000  Uiso   1.00
H946   H     0.60442   0.50340   0.96400   0.00000  Uiso   1.00
N947   N     0.50000   0.61736   0.75000   0.00000  Uiso   1.00
N948   N     0.50000   0.38264   0.75000   0.00000  Uiso   1.00
O949   O     0.43988   0.53958   0.75000   0.00000  Uiso   1.00
O950   O     0.56012   0.46042   0.75001   0.00000  Uiso   1.00
O951   O     0.56012   0.53958   0.75001   0.00000  Uiso   1.00
O952   O     0.43988   0.46042   0.75000   0.00000  Uiso   1.00
O953   O     0.49999   0.53960   0.68513   0.00000  Uiso   1.00
O954   O     0.50001   0.46040   0.81487   0.00000  Uiso   1.00
O955   O     0.50001   0.53960   0.81487   0.00000  Uiso   1.00
O956   O     0.49999   0.46040   0.68513   0.00000  Uiso   1.00
O957   O     0.57697   0.50085   0.88781   0.00000  Uiso   1.00
H958   H     0.57350   0.49952   0.85504   0.00000  Uiso   1.00
O959   O     0.42303   0.50087   0.61219   0.00000  Uiso   1.00
H960   H     0.42650   0.49952   0.64496   0.00000  Uiso   1.00
O961   O     0.38744   0.50812   0.95166   0.00000  Uiso   1.00
H962   H     0.39036   0.52827   0.92520   0.00000  Uiso   1.00
O963   O     0.61256   0.50809   0.54834   0.00000  Uiso   1.00
H964   H     0.60965   0.52824   0.57480   0.00000  Uiso   1.00
O965   O     0.37259   0.41481   0.76242   0.00000  Uiso   1.00
H966   H     0.39071   0.41814   0.78926   0.00000  Uiso   1.00
O967   O     0.62741   0.58519   0.73756   0.00000  Uiso   1.00
H968   H     0.60929   0.58184   0.71073   0.00000  Uiso   1.00
O969   O     0.62739   0.41484   0.73740   0.00000  Uiso   1.00
H970   H     0.60924   0.41824   0.71059   0.00000  Uiso   1.00
O971   O     0.37261   0.58516   0.76261   0.00000  Uiso   1.00
H972   H     0.39075   0.58175   0.78942   0.00000  Uiso   1.00
C973   C     0.44644   0.38278   0.69191   0.00000  Uiso   1.00
N974   N     0.42408   0.40205   0.66769   0.00000  Uiso   1.00
C975   C     0.55356   0.61722   0.80808   0.00000  Uiso   1.00
N976   N     0.57593   0.59794   0.83229   0.00000  Uiso   1.00
C977   C     0.55356   0.38279   0.80808   0.00000  Uiso   1.00
N978   N     0.57592   0.40206   0.83231   0.00000  Uiso   1.00
C979   C     0.44643   0.61721   0.69193   0.00000  Uiso   1.00
N980   N     0.42406   0.59793   0.66771   0.00000  Uiso   1.00
C981   C     0.75419   0.50000   0.75335   0.00000  Uiso   1.00
C982   C     0.91248   0.50000   0.74665   0.00000  Uiso   1.00
C983   C     0.75830   0.50329   0.51993   0.00000  Uiso   1.00
C984   C     0.90837   0.50327   0.98007   0.00000  Uiso   1.00
C985   C     0.68749   0.45741   0.75501   0.00000  Uiso   1.00
C986   C     0.97917   0.54259   0.74498   0.00000  Uiso   1.00
C987   C     0.97916   0.45742   0.74490   0.00000  Uiso   1.00
C988   C     0.68750   0.54258   0.75510   0.00000  Uiso   1.00
C989   C     0.95733   0.50001   0.74332   0.00000  Uiso   1.00
C990   C     0.70934   0.49999   0.75668   0.00000  Uiso   1.00
C991   C     0.80744   0.35814   0.72193   0.00000  Uiso   1.00
C992   C     0.85923   0.64186   0.77807   0.00000  Uiso   1.00
C993   C     0.85923   0.35815   0.77807   0.00000  Uiso   1.00
C994   C     0.80744   0.64185   0.72193   0.00000  Uiso   1.00
C995   C     0.83294   0.50002   0.66459   0.00000  Uiso   1.00
C996   C     0.83373   0.50002   0.83541   0.00000  Uiso   1.00
C997   C     0.87254   0.50125   0.90803   0.00000  Uiso   1.00
C998   C     0.79413   0.50126   0.59197   0.00000  Uiso   1.00
C999   C     0.83500   0.50028   0.88358   0.00000  Uiso   1.00
C1000  C     0.83167   0.50028   0.61642   0.00000  Uiso   1.00
C1001  C     0.79759   0.50096   0.90497   0.00000  Uiso   1.00
C1002  C     0.86907   0.50095   0.59503   0.00000  Uiso   1.00
C1003  C     0.79618   0.50359   0.95142   0.00000  Uiso   1.00
C1004  C     0.87049   0.50358   0.54858   0.00000  Uiso   1.00
C1005  C     0.83360   0.50337   0.97653   0.00000  Uiso   1.00
C1006  C     0.83306   0.50337   0.52347   0.00000  Uiso   1.00
C1007  C     0.87163   0.50251   0.95475   0.00000  Uiso   1.00
C1008  C     0.79504   0.50252   0.54525   0.00000  Uiso   1.00
C1009  C     0.75836   0.50516   0.97363   0.00000  Uiso   1.00
C1010  C     0.90830   0.50514   0.52637   0.00000  Uiso   1.00
Cu1011 Cu    0.83333   0.54689   0.75000   0.00000  Uiso   1.00
Cu1012 Cu    0.83333   0.45311   0.75000   0.00000  Uiso   1.00
H1013  H     0.76980   0.49885   0.88457   0.00000  Uiso   1.00
H1014  H     0.89687   0.49883   0.61543   0.00000  Uiso   1.00
H1015  H     0.72891   0.50343   0.53600   0.00000  Uiso   1.00
H1016  H     0.93775   0.50340   0.96400   0.00000  Uiso   1.00
N1017  N     0.83333   0.61736   0.75000   0.00000  Uiso   1.00
N1018  N     0.83333   0.38264   0.75000   0.00000  Uiso   1.00
O1019  O     0.77321   0.53958   0.75000   0.00000  Uiso   1.00
O1020  O     0.89345   0.46042   0.75001   0.00000  Uiso   1.00
O1021  O     0.89345   0.53958   0.75001   0.00000  Uiso   1.00
O1022  O     0.77321   0.46042   0.75000   0.00000  Uiso   1.00
O1023  O     0.83332   0.53960   0.68513   0.00000  Uiso   1.00
O1024  O     0.83334   0.46040   0.81487   0.00000  Uiso   1.00
O1025  O     0.83334   0.53960   0.81487   0.00000  Uiso   1.00
O1026  O     0.83332   0.46040   0.68513   0.00000  Uiso   1.00
O1027  O     0.91031   0.50085   0.88781   0.00000  Uiso   1.00
H1028  H     0.90683   0.49952   0.85504   0.00000  Uiso   1.00
O1029  O     0.75636   0.50087   0.61219   0.00000  Uiso   1.00
H1030  H     0.75984   0.49952   0.64496   0.00000  Uiso   1.00
O1031  O     0.72078   0.50812   0.95166   0.00000  Uiso   1.00
H1032  H     0.72369   0.52827   0.92520   0.00000  Uiso   1.00
O1033  O     0.94589   0.50809   0.54834   0.00000  Uiso   1.00
H1034  H     0.94299   0.52824   0.57480   0.00000  Uiso   1.00
O1035  O     0.70593   0.41481   0.76242   0.00000  Uiso   1.00
H1036  H     0.72405   0.41814   0.78926   0.00000  Uiso   1.00
O1037  O     0.96074   0.58519   0.73756   0.00000  Uiso   1.00
H1038  H     0.94262   0.58184   0.71073   0.00000  Uiso   1.00
O1039  O     0.96072   0.41484   0.73740   0.00000  Uiso   1.00
H1040  H     0.94258   0.41824   0.71059   0.00000  Uiso   1.00
O1041  O     0.70594   0.58516   0.76261   0.00000  Uiso   1.00
H1042  H     0.72409   0.58175   0.78942   0.00000  Uiso   1.00
C1043  C     0.77978   0.38278   0.69191   0.00000  Uiso   1.00
N1044  N     0.75742   0.40205   0.66769   0.00000  Uiso   1.00
C1045  C     0.88690   0.61722   0.80808   0.00000  Uiso   1.00
N1046  N     0.90926   0.59794   0.83229   0.00000  Uiso   1.00
C1047  C     0.88689   0.38279   0.80808   0.00000  Uiso   1.00
N1048  N     0.90926   0.40206   0.83231   0.00000  Uiso   1.00
C1049  C     0.77977   0.61721   0.69193   0.00000  Uiso   1.00
N1050  N     0.75740   0.59793   0.66771   0.00000  Uiso   1.00
C1051  C     0.08752   0.83333   0.75335   0.00000  Uiso   1.00
C1052  C     0.24581   0.83334   0.74665   0.00000  Uiso   1.00
C1053  C     0.09163   0.83662   0.51993   0.00000  Uiso   1.00
C1054  C     0.24170   0.83660   0.98007   0.00000  Uiso   1.00
C1055  C     0.02083   0.79074   0.75501   0.00000  Uiso   1.00
C1056  C     0.31251   0.87593   0.74498   0.00000  Uiso   1.00
C1057  C     0.31250   0.79075   0.74490   0.00000  Uiso   1.00
C1058  C     0.02084   0.87591   0.75510   0.00000  Uiso   1.00
C1059  C     0.29066   0.83334   0.74332   0.00000  Uiso   1.00
C1060  C     0.04267   0.83333   0.75668   0.00000  Uiso   1.00
C1061  C     0.14077   0.69148   0.72193   0.00000  Uiso   1.00
C1062  C     0.19256   0.97519   0.77807   0.00000  Uiso   1.00
C1063  C     0.19256   0.69148   0.77807   0.00000  Uiso   1.00
C1064  C     0.14077   0.97519   0.72193   0.00000  Uiso   1.00
C1065  C     0.16627   0.83335   0.66459   0.00000  Uiso   1.00
C1066  C     0.16706   0.83335   0.83541   0.00000  Uiso   1.00
C1067  C     0.20587   0.83458   0.90803   0.00000  Uiso   1.00
C1068  C     0.12746   0.83459   0.59197   0.00000  Uiso   1.00
C1069  C     0.16833   0.83361   0.88358   0.00000  Uiso   1.00
C1070  C     0.16500   0.83361   0.61642   0.00000  Uiso   1.00
C1071  C     0.13093   0.83430   0.90497   0.00000  Uiso   1.00
C1072  C     0.20241   0.83429   0.59503   0.00000  Uiso   1.00
C1073  C     0.12952   0.83693   0.95142   0.00000  Uiso   1.00
C1074  C     0.20382   0.83692   0.54858   0.00000  Uiso   1.00
C1075  C     0.16694   0.83671   0.97653   0.00000  Uiso   1.00
C1076  C     0.16640   0.83671   0.52347   0.00000  Uiso   1.00
C1077  C     0.20496   0.83584   0.95475   0.00000  Uiso   1.00
C1078  C     0.12837   0.83585   0.54525   0.00000  Uiso   1.00
C1079  C     0.09170   0.83850   0.97363   0.00000  Uiso   1.00
C1080  C     0.24164   0.83848   0.52637   0.00000  Uiso   1.00
Cu1081 Cu    0.16667   0.88022   0.75000   0.00000  Uiso   1.00
Cu1082 Cu    0.16667   0.78645   0.75000   0.00000  Uiso   1.00
H1083  H     0.10313   0.83218   0.88457   0.00000  Uiso   1.00
H1084  H     0.23020   0.83216   0.61543   0.00000  Uiso   1.00
H1085  H     0.06225   0.83676   0.53600   0.00000  Uiso   1.00
H1086  H     0.27109   0.83673   0.96400   0.00000  Uiso   1.00
N1087  N     0.16667   0.95069   0.75000   0.00000  Uiso   1.00
N1088  N     0.16667   0.71598   0.75000   0.00000  Uiso   1.00
O1089  O     0.10655   0.87291   0.75000   0.00000  Uiso   1.00
O1090  O     0.22679   0.79375   0.75001   0.00000  Uiso   1.00
O1091  O     0.22679   0.87291   0.75001   0.00000  Uiso   1.00
O1092  O     0.10655   0.79375   0.75000   0.00000  Uiso   1.00
O1093  O     0.16666   0.87293   0.68513   0.00000  Uiso   1.00
O1094  O     0.16668   0.79373   0.81487   0.00000  Uiso   1.00
O1095  O     0.16668   0.87293   0.81487   0.00000  Uiso   1.00
O1096  O     0.16666   0.79373   0.68513   0.00000  Uiso   1.00
O1097  O     0.24364   0.83418   0.88781   0.00000  Uiso   1.00
H1098  H     0.24016   0.83285   0.85504   0.00000  Uiso   1.00
O1099  O     0.08969   0.83420   0.61219   0.00000  Uiso   1.00
H1100  H     0.09317   0.83286   0.64496   0.00000  Uiso   1.00
O1101  O     0.05411   0.84145   0.95166   0.00000  Uiso   1.00
H1102  H     0.05702   0.86161   0.92520   0.00000  Uiso   1.00
O1103  O     0.27923   0.84142   0.54834   0.00000  Uiso   1.00
H1104  H     0.27632   0.86158   0.57480   0.00000  Uiso   1.00
O1105  O     0.03926   0.74814   0.76242   0.00000  Uiso   1.00
H1106  H     0.05738   0.75148   0.78926   0.00000  Uiso   1.00
O1107  O     0.29408   0.91852   0.73756   0.00000  Uiso   1.00
H1108  H     0.27595   0.91518   0.71073   0.00000  Uiso   1.00
O1109  O     0.29406   0.74817   0.73740   0.00000  Uiso   1.00
H1110  H     0.27591   0.75157   0.71059   0.00000  Uiso   1.00
O1111  O     0.03927   0.91849   0.76261   0.00000  Uiso   1.00
H1112  H     0.05742   0.91508   0.78942   0.00000  Uiso   1.00
C1113  C     0.11311   0.71611   0.69191   0.00000  Uiso   1.00
N1114  N     0.09075   0.73538   0.66769   0.00000  Uiso   1.00
C1115  C     0.22023   0.95055   0.80808   0.00000  Uiso   1.00
N1116  N     0.24260   0.93128   0.83229   0.00000  Uiso   1.00
C1117  C     0.22023   0.71612   0.80808   0.00000  Uiso   1.00
N1118  N     0.24259   0.73539   0.83231   0.00000  Uiso   1.00
C1119  C     0.11310   0.95054   0.69193   0.00000  Uiso   1.00
N1120  N     0.09073   0.93127   0.66771   0.00000  Uiso   1.00
C1121  C     0.42085   0.83333   0.75335   0.00000  Uiso   1.00
C1122  C     0.57914   0.83334   0.74665   0.00000  Uiso   1.00
C1123  C     0.42496   0.83662   0.51993   0.00000  Uiso   1.00
C1124  C     0.57504   0.83660   0.98007   0.00000  Uiso   1.00
C1125  C     0.35416   0.79074   0.75501   0.00000  Uiso   1.00
C1126  C     0.64584   0.87593   0.74498   0.00000  Uiso   1.00
C1127  C     0.64583   0.79075   0.74490   0.00000  Uiso   1.00
C1128  C     0.35417   0.87591   0.75510   0.00000  Uiso   1.00
C1129  C     0.62399   0.83334   0.74332   0.00000  Uiso   1.00
C1130  C     0.37601   0.83333   0.75668   0.00000  Uiso   1.00
C1131  C     0.47411   0.69148   0.72193   0.00000  Uiso   1.00
C1132  C     0.52589   0.97519   0.77807   0.00000  Uiso   1.00
C1133  C     0.52589   0.69148   0.77807   0.00000  Uiso   1.00
C1134  C     0.47411   0.97519   0.72193   0.00000  Uiso   1.00
C1135  C     0.49960   0.83335   0.66459   0.00000  Uiso   1.00
C1136  C     0.50040   0.83335   0.83541   0.00000  Uiso   1.00
C1137  C     0.53921   0.83458   0.90803   0.00000  Uiso   1.00
C1138  C     0.46079   0.83459   0.59197   0.00000  Uiso   1.00
C1139  C     0.50166   0.83361   0.88358   0.00000  Uiso   1.00
C1140  C     0.49834   0.83361   0.61642   0.00000  Uiso   1.00
C1141  C     0.46426   0.83430   0.90497   0.00000  Uiso   1.00
C1142  C     0.53574   0.83429   0.59503   0.00000  Uiso   1.00
C1143  C     0.46285   0.83693   0.95142   0.00000  Uiso   1.00
C1144  C     0.53715   0.83692   0.54858   0.00000  Uiso   1.00
C1145  C     0.50027   0.83671   0.97653   0.00000  Uiso   1.00
C1146  C     0.49973   0.83671   0.52347   0.00000  Uiso   1.00
C1147  C     0.53830   0.83584   0.95475   0.00000  Uiso   1.00
C1148  C     0.46170   0.83585   0.54525   0.00000  Uiso   1.00
C1149  C     0.42503   0.83850   0.97363   0.00000  Uiso   1.00
C1150  C     0.57497   0.83848   0.52637   0.00000  Uiso   1.00
Cu1151 Cu    0.50000   0.88022   0.75000   0.00000  Uiso   1.00
Cu1152 Cu    0.50000   0.78645   0.75000   0.00000  Uiso   1.00
H1153  H     0.43647   0.83218   0.88457   0.00000  Uiso   1.00
H1154  H     0.56353   0.83216   0.61543   0.00000  Uiso   1.00
H1155  H     0.39558   0.83676   0.53600   0.00000  Uiso   1.00
H1156  H     0.60442   0.83673   0.96400   0.00000  Uiso   1.00
N1157  N     0.50000   0.95069   0.75000   0.00000  Uiso   1.00
N1158  N     0.50000   0.71598   0.75000   0.00000  Uiso   1.00
O1159  O     0.43988   0.87291   0.75000   0.00000  Uiso   1.00
O1160  O     0.56012   0.79375   0.75001   0.00000  Uiso   1.00
O1161  O     0.56012   0.87291   0.75001   0.00000  Uiso   1.00
O1162  O     0.43988   0.79375   0.75000   0.00000  Uiso   1.00
O1163  O     0.49999   0.87293   0.68513   0.00000  Uiso   1.00
O1164  O     0.50001   0.79373   0.81487   0.00000  Uiso   1.00
O1165  O     0.50001   0.87293   0.81487   0.00000  Uiso   1.00
O1166  O     0.49999   0.79373   0.68513   0.00000  Uiso   1.00
O1167  O     0.57697   0.83418   0.88781   0.00000  Uiso   1.00
H1168  H     0.57350   0.83285   0.85504   0.00000  Uiso   1.00
O1169  O     0.42303   0.83420   0.61219   0.00000  Uiso   1.00
H1170  H     0.42650   0.83286   0.64496   0.00000  Uiso   1.00
O1171  O     0.38744   0.84145   0.95166   0.00000  Uiso   1.00
H1172  H     0.39036   0.86161   0.92520   0.00000  Uiso   1.00
O1173  O     0.61256   0.84142   0.54834   0.00000  Uiso   1.00
H1174  H     0.60965   0.86158   0.57480   0.00000  Uiso   1.00
O1175  O     0.37259   0.74814   0.76242   0.00000  Uiso   1.00
H1176  H     0.39071   0.75148   0.78926   0.00000  Uiso   1.00
O1177  O     0.62741   0.91852   0.73756   0.00000  Uiso   1.00
H1178  H     0.60929   0.91518   0.71073   0.00000  Uiso   1.00
O1179  O     0.62739   0.74817   0.73740   0.00000  Uiso   1.00
H1180  H     0.60924   0.75157   0.71059   0.00000  Uiso   1.00
O1181  O     0.37261   0.91849   0.76261   0.00000  Uiso   1.00
H1182  H     0.39075   0.91508   0.78942   0.00000  Uiso   1.00
C1183  C     0.44644   0.71611   0.69191   0.00000  Uiso   1.00
N1184  N     0.42408   0.73538   0.66769   0.00000  Uiso   1.00
C1185  C     0.55356   0.95055   0.80808   0.00000  Uiso   1.00
N1186  N     0.57593   0.93128   0.83229   0.00000  Uiso   1.00
C1187  C     0.55356   0.71612   0.80808   0.00000  Uiso   1.00
N1188  N     0.57592   0.73539   0.83231   0.00000  Uiso   1.00
C1189  C     0.44643   0.95054   0.69193   0.00000  Uiso   1.00
N1190  N     0.42406   0.93127   0.66771   0.00000  Uiso   1.00
C1191  C     0.75419   0.83333   0.75335   0.00000  Uiso   1.00
C1192  C     0.91248   0.83334   0.74665   0.00000  Uiso   1.00
C1193  C     0.75830   0.83662   0.51993   0.00000  Uiso   1.00
C1194  C     0.90837   0.83660   0.98007   0.00000  Uiso   1.00
C1195  C     0.68749   0.79074   0.75501   0.00000  Uiso   1.00
C1196  C     0.97917   0.87593   0.74498   0.00000  Uiso   1.00
C1197  C     0.97916   0.79075   0.74490   0.00000  Uiso   1.00
C1198  C     0.68750   0.87591   0.75510   0.00000  Uiso   1.00
C1199  C     0.95733   0.83334   0.74332   0.00000  Uiso   1.00
C1200  C     0.70934   0.83333   0.75668   0.00000  Uiso   1.00
C1201  C     0.80744   0.69148   0.72193   0.00000  Uiso   1.00
C1202  C     0.85923   0.97519   0.77807   0.00000  Uiso   1.00
C1203  C     0.85923   0.69148   0.77807   0.00000  Uiso   1.00
C1204  C     0.80744   0.97519   0.72193   0.00000  Uiso   1.00
C1205  C     0.83294   0.83335   0.66459   0.00000  Uiso   1.00
C1206  C     0.83373   0.83335   0.83541   0.00000  Uiso   1.00
C1207  C     0.87254   0.83458   0.90803   0.00000  Uiso   1.00
C1208  C     0.79413   0.83459   0.59197   0.00000  Uiso   1.00
C1209  C     0.83500   0.83361   0.88358   0.00000  Uiso   1.00
C1210  C     0.83167   0.83361   0.61642   0.00000  Uiso   1.00
C1211  C     0.79759   0.83430   0.90497   0.00000  Uiso   1.00
C1212  C     0.86907   0.83429   0.59503   0.00000  Uiso   1.00
C1213  C     0.79618   0.83693   0.95142   0.00000  Uiso   1.00
C1214  C     0.87049   0.83692   0.54858   0.00000  Uiso   1.00
C1215  C     0.83360   0.83671   0.97653   0.00000  Uiso   1.00
C1216  C     0.83306   0.83671   0.52347   0.00000  Uiso   1.00
C1217  C     0.87163   0.83584   0.95475   0.00000  Uiso   1.00
C1218  C     0.79504   0.83585   0.54525   0.00000  Uiso   1.00
C1219  C     0.75836   0.83850   0.97363   0.00000  Uiso   1.00
C1220  C     0.90830   0.83848   0.52637   0.00000  Uiso   1.00
Cu1221 Cu    0.83333   0.88022   0.75000   0.00000  Uiso   1.00
Cu1222 Cu    0.83333   0.78645   0.75000   0.00000  Uiso   1.00
H1223  H     0.76980   0.83218   0.88457   0.00000  Uiso   1.00
H1224  H     0.89687   0.83216   0.61543   0.00000  Uiso   1.00
H1225  H     0.72891   0.83676   0.53600   0.00000  Uiso   1.00
H1226  H     0.93775   0.83673   0.96400   0.00000  Uiso   1.00
N1227  N     0.83333   0.95069   0.75000   0.00000  Uiso   1.00
N1228  N     0.83333   0.71598   0.75000   0.00000  Uiso   1.00
O1229  O     0.77321   0.87291   0.75000   0.00000  Uiso   1.00
O1230  O     0.89345   0.79375   0.75001   0.00000  Uiso   1.00
O1231  O     0.89345   0.87291   0.75001   0.00000  Uiso   1.00
O1232  O     0.77321   0.79375   0.75000   0.00000  Uiso   1.00
O1233  O     0.83332   0.87293   0.68513   0.00000  Uiso   1.00
O1234  O     0.83334   0.79373   0.81487   0.00000  Uiso   1.00
O1235  O     0.83334   0.87293   0.81487   0.00000  Uiso   1.00
O1236  O     0.83332   0.79373   0.68513   0.00000  Uiso   1.00
O1237  O     0.91031   0.83418   0.88781   0.00000  Uiso   1.00
H1238  H     0.90683   0.83285   0.85504   0.00000  Uiso   1.00
O1239  O     0.75636   0.83420   0.61219   0.00000  Uiso   1.00
H1240  H     0.75984   0.83286   0.64496   0.00000  Uiso   1.00
O1241  O     0.72078   0.84145   0.95166   0.00000  Uiso   1.00
H1242  H     0.72369   0.86161   0.92520   0.00000  Uiso   1.00
O1243  O     0.94589   0.84142   0.54834   0.00000  Uiso   1.00
H1244  H     0.94299   0.86158   0.57480   0.00000  Uiso   1.00
O1245  O     0.70593   0.74814   0.76242   0.00000  Uiso   1.00
H1246  H     0.72405   0.75148   0.78926   0.00000  Uiso   1.00
O1247  O     0.96074   0.91852   0.73756   0.00000  Uiso   1.00
H1248  H     0.94262   0.91518   0.71073   0.00000  Uiso   1.00
O1249  O     0.96072   0.74817   0.73740   0.00000  Uiso   1.00
H1250  H     0.94258   0.75157   0.71059   0.00000  Uiso   1.00
O1251  O     0.70594   0.91849   0.76261   0.00000  Uiso   1.00
H1252  H     0.72409   0.91508   0.78942   0.00000  Uiso   1.00
C1253  C     0.77978   0.71611   0.69191   0.00000  Uiso   1.00
N1254  N     0.75742   0.73538   0.66769   0.00000  Uiso   1.00
C1255  C     0.88690   0.95055   0.80808   0.00000  Uiso   1.00
N1256  N     0.90926   0.93128   0.83229   0.00000  Uiso   1.00
C1257  C     0.88689   0.71612   0.80808   0.00000  Uiso   1.00
N1258  N     0.90926   0.73539   0.83231   0.00000  Uiso   1.00
C1259  C     0.77977   0.95054   0.69193   0.00000  Uiso   1.00
N1260  N     0.75740   0.93127   0.66771   0.00000  Uiso   1.00
loop_
_geom_bond_atom_site_label_1
_geom_bond_atom_site_label_2
_geom_bond_distance
_geom_bond_site_symmetry_2
_ccdc_geom_bond_type
C1     O39     1.300   .     A
C1     O42     1.300   .     A
C1     C10     1.468   .     S
C2     O41     1.300   .     A
C2     O40     1.300   .     A
C2     C9      1.468   .     S
C3     H35     1.084   .     S
C3     C28     1.403   .     A
C3     C659    1.391   1_554 S
C4     H36     1.084   .     S
C4     C27     1.403   .     A
C4     C660    1.391   .     S
C5     C10     1.415   .     A
C5     O55     1.378   .     S
C5     C147    1.385   1_455 S
C6     C9      1.415   .     A
C6     O57     1.378   .     S
C6     C78     1.385   .     S
C7     O59     1.378   .     S
C7     C9      1.415   .     A
C7     C75     1.385   .     S
C8     O61     1.378   .     S
C8     C10     1.415   .     A
C8     C146    1.385   1_455 S
C11    N38     1.372   .     A
C11    C63     1.444   .     S
C11    C434    1.425   1_545 S
C12    C65     1.444   .     S
C12    N37     1.372   .     A
C12    C223    1.425   .     S
C13    N38     1.372   .     A
C13    C67     1.444   .     S
C13    C432    1.425   1_545 S
C14    N37     1.372   .     A
C14    C69     1.444   .     S
C14    C221    1.425   .     S
C15    O43     1.293   .     A
C15    O46     1.294   .     A
C15    C20     1.446   .     S
C16    O45     1.293   .     A
C16    O44     1.294   .     A
C16    C19     1.446   .     S
C17    C19     1.412   .     A
C17    C27     1.404   .     A
C17    O47     1.387   .     S
C18    C28     1.404   .     A
C18    O49     1.387   .     S
C18    C20     1.412   .     A
C19    C21     1.393   .     A
C20    C22     1.393   .     A
C21    C23     1.399   .     A
C21    H33     1.083   .     S
C22    H34     1.083   .     S
C22    C24     1.399   .     A
C23    C29     1.417   .     A
C23    C25     1.418   .     A
C24    C26     1.418   .     A
C24    C30     1.417   .     A
C25    C27     1.417   .     A
C25    C656    1.410   .     S
C26    C28     1.417   .     A
C26    C655    1.410   1_554 S
C29    O51     1.380   .     S
C29    C633    1.391   .     S
C30    O53     1.380   .     S
C30    C634    1.391   1_554 S
Cu31   Cu32    2.692   .     S
Cu31   O43     1.959   .     S
Cu31   O39     1.972   .     S
Cu31   N37     2.023   .     S
Cu31   O45     1.959   .     S
Cu31   O41     1.972   .     S
Cu32   N38     2.023   .     S
Cu32   O40     1.972   .     S
Cu32   O44     1.959   .     S
Cu32   O42     1.972   .     S
Cu32   O46     1.959   .     S
O47    H48     0.988   .     S
O49    H50     0.988   .     S
O51    H52     0.989   .     S
O53    H54     0.989   .     S
O55    H56     0.992   .     S
O57    H58     0.992   .     S
O59    H60     0.992   .     S
O61    H62     0.992   .     S
C63    N64     1.158   .     T
C65    N66     1.158   .     T
C67    N68     1.158   .     T
C69    N70     1.158   .     T
C71    O109    1.300   .     A
C71    O112    1.300   .     A
C71    C80     1.468   .     S
C72    O111    1.300   .     A
C72    O110    1.300   .     A
C72    C79     1.468   .     S
C73    H105    1.084   .     S
C73    C98     1.403   .     A
C73    C729    1.391   1_554 S
C74    H106    1.084   .     S
C74    C97     1.403   .     A
C74    C730    1.391   .     S
C75    C80     1.415   .     A
C75    O125    1.378   .     S
C76    C79     1.415   .     A
C76    O127    1.378   .     S
C76    C148    1.385   .     S
C77    O129    1.378   .     S
C77    C79     1.415   .     A
C77    C145    1.385   .     S
C78    O131    1.378   .     S
C78    C80     1.415   .     A
C81    N108    1.372   .     A
C81    C133    1.444   .     S
C81    C504    1.425   1_545 S
C82    C135    1.444   .     S
C82    N107    1.372   .     A
C82    C293    1.425   .     S
C83    N108    1.372   .     A
C83    C137    1.444   .     S
C83    C502    1.425   1_545 S
C84    N107    1.372   .     A
C84    C139    1.444   .     S
C84    C291    1.425   .     S
C85    O113    1.293   .     A
C85    O116    1.294   .     A
C85    C90     1.446   .     S
C86    O115    1.293   .     A
C86    O114    1.294   .     A
C86    C89     1.446   .     S
C87    C89     1.412   .     A
C87    C97     1.404   .     A
C87    O117    1.387   .     S
C88    C98     1.404   .     A
C88    O119    1.387   .     S
C88    C90     1.412   .     A
C89    C91     1.393   .     A
C90    C92     1.393   .     A
C91    C93     1.399   .     A
C91    H103    1.083   .     S
C92    H104    1.083   .     S
C92    C94     1.399   .     A
C93    C99     1.417   .     A
C93    C95     1.418   .     A
C94    C96     1.418   .     A
C94    C100    1.417   .     A
C95    C97     1.417   .     A
C95    C726    1.410   .     S
C96    C98     1.417   .     A
C96    C725    1.410   1_554 S
C99    O121    1.380   .     S
C99    C703    1.391   .     S
C100   O123    1.380   .     S
C100   C704    1.391   1_554 S
Cu101  Cu102   2.692   .     S
Cu101  O113    1.959   .     S
Cu101  O109    1.972   .     S
Cu101  N107    2.023   .     S
Cu101  O115    1.959   .     S
Cu101  O111    1.972   .     S
Cu102  N108    2.023   .     S
Cu102  O110    1.972   .     S
Cu102  O114    1.959   .     S
Cu102  O112    1.972   .     S
Cu102  O116    1.959   .     S
O117   H118    0.988   .     S
O119   H120    0.988   .     S
O121   H122    0.989   .     S
O123   H124    0.989   .     S
O125   H126    0.992   .     S
O127   H128    0.992   .     S
O129   H130    0.992   .     S
O131   H132    0.992   .     S
C133   N134    1.158   .     T
C135   N136    1.158   .     T
C137   N138    1.158   .     T
C139   N140    1.158   .     T
C141   O179    1.300   .     A
C141   O182    1.300   .     A
C141   C150    1.468   .     S
C142   O181    1.300   .     A
C142   O180    1.300   .     A
C142   C149    1.468   .     S
C143   H175    1.084   .     S
C143   C168    1.403   .     A
C143   C799    1.391   1_554 S
C144   H176    1.084   .     S
C144   C167    1.403   .     A
C144   C800    1.391   .     S
C145   C150    1.415   .     A
C145   O195    1.378   .     S
C146   C149    1.415   .     A
C146   O197    1.378   .     S
C146   C8      1.385   1_655 S
C147   O199    1.378   .     S
C147   C149    1.415   .     A
C147   C5      1.385   1_655 S
C148   O201    1.378   .     S
C148   C150    1.415   .     A
C151   N178    1.372   .     A
C151   C203    1.444   .     S
C151   C574    1.425   1_545 S
C152   C205    1.444   .     S
C152   N177    1.372   .     A
C152   C363    1.425   .     S
C153   N178    1.372   .     A
C153   C207    1.444   .     S
C153   C572    1.425   1_545 S
C154   N177    1.372   .     A
C154   C209    1.444   .     S
C154   C361    1.425   .     S
C155   O183    1.293   .     A
C155   O186    1.294   .     A
C155   C160    1.446   .     S
C156   O185    1.293   .     A
C156   O184    1.294   .     A
C156   C159    1.446   .     S
C157   C159    1.412   .     A
C157   C167    1.404   .     A
C157   O187    1.387   .     S
C158   C168    1.404   .     A
C158   O189    1.387   .     S
C158   C160    1.412   .     A
C159   C161    1.393   .     A
C160   C162    1.393   .     A
C161   C163    1.399   .     A
C161   H173    1.083   .     S
C162   H174    1.083   .     S
C162   C164    1.399   .     A
C163   C169    1.417   .     A
C163   C165    1.418   .     A
C164   C166    1.418   .     A
C164   C170    1.417   .     A
C165   C167    1.417   .     A
C165   C796    1.410   .     S
C166   C168    1.417   .     A
C166   C795    1.410   1_554 S
C169   O191    1.380   .     S
C169   C773    1.391   .     S
C170   O193    1.380   .     S
C170   C774    1.391   1_554 S
Cu171  Cu172   2.692   .     S
Cu171  O183    1.959   .     S
Cu171  O179    1.972   .     S
Cu171  N177    2.023   .     S
Cu171  O185    1.959   .     S
Cu171  O181    1.972   .     S
Cu172  N178    2.023   .     S
Cu172  O180    1.972   .     S
Cu172  O184    1.959   .     S
Cu172  O182    1.972   .     S
Cu172  O186    1.959   .     S
O187   H188    0.988   .     S
O189   H190    0.988   .     S
O191   H192    0.989   .     S
O193   H194    0.989   .     S
O195   H196    0.992   .     S
O197   H198    0.992   .     S
O199   H200    0.992   .     S
O201   H202    0.992   .     S
C203   N204    1.158   .     T
C205   N206    1.158   .     T
C207   N208    1.158   .     T
C209   N210    1.158   .     T
C211   O249    1.300   .     A
C211   O252    1.300   .     A
C211   C220    1.468   .     S
C212   O251    1.300   .     A
C212   O250    1.300   .     A
C212   C219    1.468   .     S
C213   H245    1.084   .     S
C213   C238    1.403   .     A
C213   C869    1.391   1_554 S
C214   H246    1.084   .     S
C214   C237    1.403   .     A
C214   C870    1.391   .     S
C215   C220    1.415   .     A
C215   O265    1.378   .     S
C215   C357    1.385   1_455 S
C216   C219    1.415   .     A
C216   O267    1.378   .     S
C216   C288    1.385   .     S
C217   O269    1.378   .     S
C217   C219    1.415   .     A
C217   C285    1.385   .     S
C218   O271    1.378   .     S
C218   C220    1.415   .     A
C218   C356    1.385   1_455 S
C221   N248    1.372   .     A
C221   C273    1.444   .     S
C222   C275    1.444   .     S
C222   N247    1.372   .     A
C222   C433    1.425   .     S
C223   N248    1.372   .     A
C223   C277    1.444   .     S
C224   N247    1.372   .     A
C224   C279    1.444   .     S
C224   C431    1.425   .     S
C225   O253    1.293   .     A
C225   O256    1.294   .     A
C225   C230    1.446   .     S
C226   O255    1.293   .     A
C226   O254    1.294   .     A
C226   C229    1.446   .     S
C227   C229    1.412   .     A
C227   C237    1.404   .     A
C227   O257    1.387   .     S
C228   C238    1.404   .     A
C228   O259    1.387   .     S
C228   C230    1.412   .     A
C229   C231    1.393   .     A
C230   C232    1.393   .     A
C231   C233    1.399   .     A
C231   H243    1.083   .     S
C232   H244    1.083   .     S
C232   C234    1.399   .     A
C233   C239    1.417   .     A
C233   C235    1.418   .     A
C234   C236    1.418   .     A
C234   C240    1.417   .     A
C235   C237    1.417   .     A
C235   C866    1.410   .     S
C236   C238    1.417   .     A
C236   C865    1.410   1_554 S
C239   O261    1.380   .     S
C239   C843    1.391   .     S
C240   O263    1.380   .     S
C240   C844    1.391   1_554 S
Cu241  Cu242   2.692   .     S
Cu241  O253    1.959   .     S
Cu241  O249    1.972   .     S
Cu241  N247    2.023   .     S
Cu241  O255    1.959   .     S
Cu241  O251    1.972   .     S
Cu242  N248    2.023   .     S
Cu242  O250    1.972   .     S
Cu242  O254    1.959   .     S
Cu242  O252    1.972   .     S
Cu242  O256    1.959   .     S
O257   H258    0.988   .     S
O259   H260    0.988   .     S
O261   H262    0.989   .     S
O263   H264    0.989   .     S
O265   H266    0.992   .     S
O267   H268    0.992   .     S
O269   H270    0.992   .     S
O271   H272    0.992   .     S
C273   N274    1.158   .     T
C275   N276    1.158   .     T
C277   N278    1.158   .     T
C279   N280    1.158   .     T
C281   O319    1.300   .     A
C281   O322    1.300   .     A
C281   C290    1.468   .     S
C282   O321    1.300   .     A
C282   O320    1.300   .     A
C282   C289    1.468   .     S
C283   H315    1.084   .     S
C283   C308    1.403   .     A
C283   C939    1.391   1_554 S
C284   H316    1.084   .     S
C284   C307    1.403   .     A
C284   C940    1.391   .     S
C285   C290    1.415   .     A
C285   O335    1.378   .     S
C286   C289    1.415   .     A
C286   O337    1.378   .     S
C286   C358    1.385   .     S
C287   O339    1.378   .     S
C287   C289    1.415   .     A
C287   C355    1.385   .     S
C288   O341    1.378   .     S
C288   C290    1.415   .     A
C291   N318    1.372   .     A
C291   C343    1.444   .     S
C292   C345    1.444   .     S
C292   N317    1.372   .     A
C292   C503    1.425   .     S
C293   N318    1.372   .     A
C293   C347    1.444   .     S
C294   N317    1.372   .     A
C294   C349    1.444   .     S
C294   C501    1.425   .     S
C295   O323    1.293   .     A
C295   O326    1.294   .     A
C295   C300    1.446   .     S
C296   O325    1.293   .     A
C296   O324    1.294   .     A
C296   C299    1.446   .     S
C297   C299    1.412   .     A
C297   C307    1.404   .     A
C297   O327    1.387   .     S
C298   C308    1.404   .     A
C298   O329    1.387   .     S
C298   C300    1.412   .     A
C299   C301    1.393   .     A
C300   C302    1.393   .     A
C301   C303    1.399   .     A
C301   H313    1.083   .     S
C302   H314    1.083   .     S
C302   C304    1.399   .     A
C303   C309    1.417   .     A
C303   C305    1.418   .     A
C304   C306    1.418   .     A
C304   C310    1.417   .     A
C305   C307    1.417   .     A
C305   C936    1.410   .     S
C306   C308    1.417   .     A
C306   C935    1.410   1_554 S
C309   O331    1.380   .     S
C309   C913    1.391   .     S
C310   O333    1.380   .     S
C310   C914    1.391   1_554 S
Cu311  Cu312   2.692   .     S
Cu311  O323    1.959   .     S
Cu311  O319    1.972   .     S
Cu311  N317    2.023   .     S
Cu311  O325    1.959   .     S
Cu311  O321    1.972   .     S
Cu312  N318    2.023   .     S
Cu312  O320    1.972   .     S
Cu312  O324    1.959   .     S
Cu312  O322    1.972   .     S
Cu312  O326    1.959   .     S
O327   H328    0.988   .     S
O329   H330    0.988   .     S
O331   H332    0.989   .     S
O333   H334    0.989   .     S
O335   H336    0.992   .     S
O337   H338    0.992   .     S
O339   H340    0.992   .     S
O341   H342    0.992   .     S
C343   N344    1.158   .     T
C345   N346    1.158   .     T
C347   N348    1.158   .     T
C349   N350    1.158   .     T
C351   O389    1.300   .     A
C351   O392    1.300   .     A
C351   C360    1.468   .     S
C352   O391    1.300   .     A
C352   O390    1.300   .     A
C352   C359    1.468   .     S
C353   H385    1.084   .     S
C353   C378    1.403   .     A
C353   C1009   1.391   1_554 S
C354   H386    1.084   .     S
C354   C377    1.403   .     A
C354   C1010   1.391   .     S
C355   C360    1.415   .     A
C355   O405    1.378   .     S
C356   C359    1.415   .     A
C356   O407    1.378   .     S
C356   C218    1.385   1_655 S
C357   O409    1.378   .     S
C357   C359    1.415   .     A
C357   C215    1.385   1_655 S
C358   O411    1.378   .     S
C358   C360    1.415   .     A
C361   N388    1.372   .     A
C361   C413    1.444   .     S
C362   C415    1.444   .     S
C362   N387    1.372   .     A
C362   C573    1.425   .     S
C363   N388    1.372   .     A
C363   C417    1.444   .     S
C364   N387    1.372   .     A
C364   C419    1.444   .     S
C364   C571    1.425   .     S
C365   O393    1.293   .     A
C365   O396    1.294   .     A
C365   C370    1.446   .     S
C366   O395    1.293   .     A
C366   O394    1.294   .     A
C366   C369    1.446   .     S
C367   C369    1.412   .     A
C367   C377    1.404   .     A
C367   O397    1.387   .     S
C368   C378    1.404   .     A
C368   O399    1.387   .     S
C368   C370    1.412   .     A
C369   C371    1.393   .     A
C370   C372    1.393   .     A
C371   C373    1.399   .     A
C371   H383    1.083   .     S
C372   H384    1.083   .     S
C372   C374    1.399   .     A
C373   C379    1.417   .     A
C373   C375    1.418   .     A
C374   C376    1.418   .     A
C374   C380    1.417   .     A
C375   C377    1.417   .     A
C375   C1006   1.410   .     S
C376   C378    1.417   .     A
C376   C1005   1.410   1_554 S
C379   O401    1.380   .     S
C379   C983    1.391   .     S
C380   O403    1.380   .     S
C380   C984    1.391   1_554 S
Cu381  Cu382   2.692   .     S
Cu381  O393    1.959   .     S
Cu381  O389    1.972   .     S
Cu381  N387    2.023   .     S
Cu381  O395    1.959   .     S
Cu381  O391    1.972   .     S
Cu382  N388    2.023   .     S
Cu382  O390    1.972   .     S
Cu382  O394    1.959   .     S
Cu382  O392    1.972   .     S
Cu382  O396    1.959   .     S
O397   H398    0.988   .     S
O399   H400    0.988   .     S
O401   H402    0.989   .     S
O403   H404    0.989   .     S
O405   H406    0.992   .     S
O407   H408    0.992   .     S
O409   H410    0.992   .     S
O411   H412    0.992   .     S
C413   N414    1.158   .     T
C415   N416    1.158   .     T
C417   N418    1.158   .     T
C419   N420    1.158   .     T
C421   O459    1.300   .     A
C421   O462    1.300   .     A
C421   C430    1.468   .     S
C422   O461    1.300   .     A
C422   O460    1.300   .     A
C422   C429    1.468   .     S
C423   H455    1.084   .     S
C423   C448    1.403   .     A
C423   C1079   1.391   1_554 S
C424   H456    1.084   .     S
C424   C447    1.403   .     A
C424   C1080   1.391   .     S
C425   C430    1.415   .     A
C425   O475    1.378   .     S
C425   C567    1.385   1_455 S
C426   C429    1.415   .     A
C426   O477    1.378   .     S
C426   C498    1.385   .     S
C427   O479    1.378   .     S
C427   C429    1.415   .     A
C427   C495    1.385   .     S
C428   O481    1.378   .     S
C428   C430    1.415   .     A
C428   C566    1.385   1_455 S
C431   N458    1.372   .     A
C431   C483    1.444   .     S
C432   C485    1.444   .     S
C432   N457    1.372   .     A
C432   C13     1.425   1_565 S
C433   N458    1.372   .     A
C433   C487    1.444   .     S
C434   N457    1.372   .     A
C434   C489    1.444   .     S
C434   C11     1.425   1_565 S
C435   O463    1.293   .     A
C435   O466    1.294   .     A
C435   C440    1.446   .     S
C436   O465    1.293   .     A
C436   O464    1.294   .     A
C436   C439    1.446   .     S
C437   C439    1.412   .     A
C437   C447    1.404   .     A
C437   O467    1.387   .     S
C438   C448    1.404   .     A
C438   O469    1.387   .     S
C438   C440    1.412   .     A
C439   C441    1.393   .     A
C440   C442    1.393   .     A
C441   C443    1.399   .     A
C441   H453    1.083   .     S
C442   H454    1.083   .     S
C442   C444    1.399   .     A
C443   C449    1.417   .     A
C443   C445    1.418   .     A
C444   C446    1.418   .     A
C444   C450    1.417   .     A
C445   C447    1.417   .     A
C445   C1076   1.410   .     S
C446   C448    1.417   .     A
C446   C1075   1.410   1_554 S
C449   O471    1.380   .     S
C449   C1053   1.391   .     S
C450   O473    1.380   .     S
C450   C1054   1.391   1_554 S
Cu451  Cu452   2.692   .     S
Cu451  O463    1.959   .     S
Cu451  O459    1.972   .     S
Cu451  N457    2.023   .     S
Cu451  O465    1.959   .     S
Cu451  O461    1.972   .     S
Cu452  N458    2.023   .     S
Cu452  O460    1.972   .     S
Cu452  O464    1.959   .     S
Cu452  O462    1.972   .     S
Cu452  O466    1.959   .     S
O467   H468    0.988   .     S
O469   H470    0.988   .     S
O471   H472    0.989   .     S
O473   H474    0.989   .     S
O475   H476    0.992   .     S
O477   H478    0.992   .     S
O479   H480    0.992   .     S
O481   H482    0.992   .     S
C483   N484    1.158   .     T
C485   N486    1.158   .     T
C487   N488    1.158   .     T
C489   N490    1.158   .     T
C491   O529    1.300   .     A
C491   O532    1.300   .     A
C491   C500    1.468   .     S
C492   O531    1.300   .     A
C492   O530    1.300   .     A
C492   C499    1.468   .     S
C493   H525    1.084   .     S
C493   C518    1.403   .     A
C493   C1149   1.391   1_554 S
C494   H526    1.084   .     S
C494   C517    1.403   .     A
C494   C1150   1.391   .     S
C495   C500    1.415   .     A
C495   O545    1.378   .     S
C496   C499    1.415   .     A
C496   O547    1.378   .     S
C496   C568    1.385   .     S
C497   O549    1.378   .     S
C497   C499    1.415   .     A
C497   C565    1.385   .     S
C498   O551    1.378   .     S
C498   C500    1.415   .     A
C501   N528    1.372   .     A
C501   C553    1.444   .     S
C502   C555    1.444   .     S
C502   N527    1.372   .     A
C502   C83     1.425   1_565 S
C503   N528    1.372   .     A
C503   C557    1.444   .     S
C504   N527    1.372   .     A
C504   C559    1.444   .     S
C504   C81     1.425   1_565 S
C505   O533    1.293   .     A
C505   O536    1.294   .     A
C505   C510    1.446   .     S
C506   O535    1.293   .     A
C506   O534    1.294   .     A
C506   C509    1.446   .     S
C507   C509    1.412   .     A
C507   C517    1.404   .     A
C507   O537    1.387   .     S
C508   C518    1.404   .     A
C508   O539    1.387   .     S
C508   C510    1.412   .     A
C509   C511    1.393   .     A
C510   C512    1.393   .     A
C511   C513    1.399   .     A
C511   H523    1.083   .     S
C512   H524    1.083   .     S
C512   C514    1.399   .     A
C513   C519    1.417   .     A
C513   C515    1.418   .     A
C514   C516    1.418   .     A
C514   C520    1.417   .     A
C515   C517    1.417   .     A
C515   C1146   1.410   .     S
C516   C518    1.417   .     A
C516   C1145   1.410   1_554 S
C519   O541    1.380   .     S
C519   C1123   1.391   .     S
C520   O543    1.380   .     S
C520   C1124   1.391   1_554 S
Cu521  Cu522   2.692   .     S
Cu521  O533    1.959   .     S
Cu521  O529    1.972   .     S
Cu521  N527    2.023   .     S
Cu521  O535    1.959   .     S
Cu521  O531    1.972   .     S
Cu522  N528    2.023   .     S
Cu522  O530    1.972   .     S
Cu522  O534    1.959   .     S
Cu522  O532    1.972   .     S
Cu522  O536    1.959   .     S
O537   H538    0.988   .     S
O539   H540    0.988   .     S
O541   H542    0.989   .     S
O543   H544    0.989   .     S
O545   H546    0.992   .     S
O547   H548    0.992   .     S
O549   H550    0.992   .     S
O551   H552    0.992   .     S
C553   N554    1.158   .     T
C555   N556    1.158   .     T
C557   N558    1.158   .     T
C559   N560    1.158   .     T
C561   O599    1.300   .     A
C561   O602    1.300   .     A
C561   C570    1.468   .     S
C562   O601    1.300   .     A
C562   O600    1.300   .     A
C562   C569    1.468   .     S
C563   H595    1.084   .     S
C563   C588    1.403   .     A
C563   C1219   1.391   1_554 S
C564   H596    1.084   .     S
C564   C587    1.403   .     A
C564   C1220   1.391   .     S
C565   C570    1.415   .     A
C565   O615    1.378   .     S
C566   C569    1.415   .     A
C566   O617    1.378   .     S
C566   C428    1.385   1_655 S
C567   O619    1.378   .     S
C567   C569    1.415   .     A
C567   C425    1.385   1_655 S
C568   O621    1.378   .     S
C568   C570    1.415   .     A
C571   N598    1.372   .     A
C571   C623    1.444   .     S
C572   C625    1.444   .     S
C572   N597    1.372   .     A
C572   C153    1.425   1_565 S
C573   N598    1.372   .     A
C573   C627    1.444   .     S
C574   N597    1.372   .     A
C574   C629    1.444   .     S
C574   C151    1.425   1_565 S
C575   O603    1.293   .     A
C575   O606    1.294   .     A
C575   C580    1.446   .     S
C576   O605    1.293   .     A
C576   O604    1.294   .     A
C576   C579    1.446   .     S
C577   C579    1.412   .     A
C577   C587    1.404   .     A
C577   O607    1.387   .     S
C578   C588    1.404   .     A
C578   O609    1.387   .     S
C578   C580    1.412   .     A
C579   C581    1.393   .     A
C580   C582    1.393   .     A
C581   C583    1.399   .     A
C581   H593    1.083   .     S
C582   H594    1.083   .     S
C582   C584    1.399   .     A
C583   C589    1.417   .     A
C583   C585    1.418   .     A
C584   C586    1.418   .     A
C584   C590    1.417   .     A
C585   C587    1.417   .     A
C585   C1216   1.410   .     S
C586   C588    1.417   .     A
C586   C1215   1.410   1_554 S
C589   O611    1.380   .     S
C589   C1193   1.391   .     S
C590   O613    1.380   .     S
C590   C1194   1.391   1_554 S
Cu591  Cu592   2.692   .     S
Cu591  O603    1.959   .     S
Cu591  O599    1.972   .     S
Cu591  N597    2.023   .     S
Cu591  O605    1.959   .     S
Cu591  O601    1.972   .     S
Cu592  N598    2.023   .     S
Cu592  O600    1.972   .     S
Cu592  O604    1.959   .     S
Cu592  O602    1.972   .     S
Cu592  O606    1.959   .     S
O607   H608    0.988   .     S
O609   H610    0.988   .     S
O611   H612    0.989   .     S
O613   H614    0.989   .     S
O615   H616    0.992   .     S
O617   H618    0.992   .     S
O619   H620    0.992   .     S
O621   H622    0.992   .     S
C623   N624    1.158   .     T
C625   N626    1.158   .     T
C627   N628    1.158   .     T
C629   N630    1.158   .     T
C631   O669    1.300   .     A
C631   O672    1.300   .     A
C631   C640    1.468   .     S
C632   O671    1.300   .     A
C632   O670    1.300   .     A
C632   C639    1.468   .     S
C633   H665    1.084   .     S
C633   C658    1.403   .     A
C634   H666    1.084   .     S
C634   C657    1.403   .     A
C634   C30     1.391   1_556 S
C635   C640    1.415   .     A
C635   O685    1.378   .     S
C635   C777    1.385   1_455 S
C636   C639    1.415   .     A
C636   O687    1.378   .     S
C636   C708    1.385   .     S
C637   O689    1.378   .     S
C637   C639    1.415   .     A
C637   C705    1.385   .     S
C638   O691    1.378   .     S
C638   C640    1.415   .     A
C638   C776    1.385   1_455 S
C641   N668    1.372   .     A
C641   C693    1.444   .     S
C641   C1064   1.425   1_545 S
C642   C695    1.444   .     S
C642   N667    1.372   .     A
C642   C853    1.425   .     S
C643   N668    1.372   .     A
C643   C697    1.444   .     S
C643   C1062   1.425   1_545 S
C644   N667    1.372   .     A
C644   C699    1.444   .     S
C644   C851    1.425   .     S
C645   O673    1.293   .     A
C645   O676    1.294   .     A
C645   C650    1.446   .     S
C646   O675    1.293   .     A
C646   O674    1.294   .     A
C646   C649    1.446   .     S
C647   C649    1.412   .     A
C647   C657    1.404   .     A
C647   O677    1.387   .     S
C648   C658    1.404   .     A
C648   O679    1.387   .     S
C648   C650    1.412   .     A
C649   C651    1.393   .     A
C650   C652    1.393   .     A
C651   C653    1.399   .     A
C651   H663    1.083   .     S
C652   H664    1.083   .     S
C652   C654    1.399   .     A
C653   C659    1.417   .     A
C653   C655    1.418   .     A
C654   C656    1.418   .     A
C654   C660    1.417   .     A
C655   C657    1.417   .     A
C655   C26     1.410   1_556 S
C656   C658    1.417   .     A
C659   O681    1.380   .     S
C659   C3      1.391   1_556 S
C660   O683    1.380   .     S
Cu661  Cu662   2.692   .     S
Cu661  O673    1.959   .     S
Cu661  O669    1.972   .     S
Cu661  N667    2.023   .     S
Cu661  O675    1.959   .     S
Cu661  O671    1.972   .     S
Cu662  N668    2.023   .     S
Cu662  O670    1.972   .     S
Cu662  O674    1.959   .     S
Cu662  O672    1.972   .     S
Cu662  O676    1.959   .     S
O677   H678    0.988   .     S
O679   H680    0.988   .     S
O681   H682    0.989   .     S
O683   H684    0.989   .     S
O685   H686    0.992   .     S
O687   H688    0.992   .     S
O689   H690    0.992   .     S
O691   H692    0.992   .     S
C693   N694    1.158   .     T
C695   N696    1.158   .     T
C697   N698    1.158   .     T
C699   N700    1.158   .     T
C701   O739    1.300   .     A
C701   O742    1.300   .     A
C701   C710    1.468   .     S
C702   O741    1.300   .     A
C702   O740    1.300   .     A
C702   C709    1.468   .     S
C703   H735    1.084   .     S
C703   C728    1.403   .     A
C704   H736    1.084   .     S
C704   C727    1.403   .     A
C704   C100    1.391   1_556 S
C705   C710    1.415   .     A
C705   O755    1.378   .     S
C706   C709    1.415   .     A
C706   O757    1.378   .     S
C706   C778    1.385   .     S
C707   O759    1.378   .     S
C707   C709    1.415   .     A
C707   C775    1.385   .     S
C708   O761    1.378   .     S
C708   C710    1.415   .     A
C711   N738    1.372   .     A
C711   C763    1.444   .     S
C711   C1134   1.425   1_545 S
C712   C765    1.444   .     S
C712   N737    1.372   .     A
C712   C923    1.425   .     S
C713   N738    1.372   .     A
C713   C767    1.444   .     S
C713   C1132   1.425   1_545 S
C714   N737    1.372   .     A
C714   C769    1.444   .     S
C714   C921    1.425   .     S
C715   O743    1.293   .     A
C715   O746    1.294   .     A
C715   C720    1.446   .     S
C716   O745    1.293   .     A
C716   O744    1.294   .     A
C716   C719    1.446   .     S
C717   C719    1.412   .     A
C717   C727    1.404   .     A
C717   O747    1.387   .     S
C718   C728    1.404   .     A
C718   O749    1.387   .     S
C718   C720    1.412   .     A
C719   C721    1.393   .     A
C720   C722    1.393   .     A
C721   C723    1.399   .     A
C721   H733    1.083   .     S
C722   H734    1.083   .     S
C722   C724    1.399   .     A
C723   C729    1.417   .     A
C723   C725    1.418   .     A
C724   C726    1.418   .     A
C724   C730    1.417   .     A
C725   C727    1.417   .     A
C725   C96     1.410   1_556 S
C726   C728    1.417   .     A
C729   O751    1.380   .     S
C729   C73     1.391   1_556 S
C730   O753    1.380   .     S
Cu731  Cu732   2.692   .     S
Cu731  O743    1.959   .     S
Cu731  O739    1.972   .     S
Cu731  N737    2.023   .     S
Cu731  O745    1.959   .     S
Cu731  O741    1.972   .     S
Cu732  N738    2.023   .     S
Cu732  O740    1.972   .     S
Cu732  O744    1.959   .     S
Cu732  O742    1.972   .     S
Cu732  O746    1.959   .     S
O747   H748    0.988   .     S
O749   H750    0.988   .     S
O751   H752    0.989   .     S
O753   H754    0.989   .     S
O755   H756    0.992   .     S
O757   H758    0.992   .     S
O759   H760    0.992   .     S
O761   H762    0.992   .     S
C763   N764    1.158   .     T
C765   N766    1.158   .     T
C767   N768    1.158   .     T
C769   N770    1.158   .     T
C771   O809    1.300   .     A
C771   O812    1.300   .     A
C771   C780    1.468   .     S
C772   O811    1.300   .     A
C772   O810    1.300   .     A
C772   C779    1.468   .     S
C773   H805    1.084   .     S
C773   C798    1.403   .     A
C774   H806    1.084   .     S
C774   C797    1.403   .     A
C774   C170    1.391   1_556 S
C775   C780    1.415   .     A
C775   O825    1.378   .     S
C776   C779    1.415   .     A
C776   O827    1.378   .     S
C776   C638    1.385   1_655 S
C777   O829    1.378   .     S
C777   C779    1.415   .     A
C777   C635    1.385   1_655 S
C778   O831    1.378   .     S
C778   C780    1.415   .     A
C781   N808    1.372   .     A
C781   C833    1.444   .     S
C781   C1204   1.425   1_545 S
C782   C835    1.444   .     S
C782   N807    1.372   .     A
C782   C993    1.425   .     S
C783   N808    1.372   .     A
C783   C837    1.444   .     S
C783   C1202   1.425   1_545 S
C784   N807    1.372   .     A
C784   C839    1.444   .     S
C784   C991    1.425   .     S
C785   O813    1.293   .     A
C785   O816    1.294   .     A
C785   C790    1.446   .     S
C786   O815    1.293   .     A
C786   O814    1.294   .     A
C786   C789    1.446   .     S
C787   C789    1.412   .     A
C787   C797    1.404   .     A
C787   O817    1.387   .     S
C788   C798    1.404   .     A
C788   O819    1.387   .     S
C788   C790    1.412   .     A
C789   C791    1.393   .     A
C790   C792    1.393   .     A
C791   C793    1.399   .     A
C791   H803    1.083   .     S
C792   H804    1.083   .     S
C792   C794    1.399   .     A
C793   C799    1.417   .     A
C793   C795    1.418   .     A
C794   C796    1.418   .     A
C794   C800    1.417   .     A
C795   C797    1.417   .     A
C795   C166    1.410   1_556 S
C796   C798    1.417   .     A
C799   O821    1.380   .     S
C799   C143    1.391   1_556 S
C800   O823    1.380   .     S
Cu801  Cu802   2.692   .     S
Cu801  O813    1.959   .     S
Cu801  O809    1.972   .     S
Cu801  N807    2.023   .     S
Cu801  O815    1.959   .     S
Cu801  O811    1.972   .     S
Cu802  N808    2.023   .     S
Cu802  O810    1.972   .     S
Cu802  O814    1.959   .     S
Cu802  O812    1.972   .     S
Cu802  O816    1.959   .     S
O817   H818    0.988   .     S
O819   H820    0.988   .     S
O821   H822    0.989   .     S
O823   H824    0.989   .     S
O825   H826    0.992   .     S
O827   H828    0.992   .     S
O829   H830    0.992   .     S
O831   H832    0.992   .     S
C833   N834    1.158   .     T
C835   N836    1.158   .     T
C837   N838    1.158   .     T
C839   N840    1.158   .     T
C841   O879    1.300   .     A
C841   O882    1.300   .     A
C841   C850    1.468   .     S
C842   O881    1.300   .     A
C842   O880    1.300   .     A
C842   C849    1.468   .     S
C843   H875    1.084   .     S
C843   C868    1.403   .     A
C844   H876    1.084   .     S
C844   C867    1.403   .     A
C844   C240    1.391   1_556 S
C845   C850    1.415   .     A
C845   O895    1.378   .     S
C845   C987    1.385   1_455 S
C846   C849    1.415   .     A
C846   O897    1.378   .     S
C846   C918    1.385   .     S
C847   O899    1.378   .     S
C847   C849    1.415   .     A
C847   C915    1.385   .     S
C848   O901    1.378   .     S
C848   C850    1.415   .     A
C848   C986    1.385   1_455 S
C851   N878    1.372   .     A
C851   C903    1.444   .     S
C852   C905    1.444   .     S
C852   N877    1.372   .     A
C852   C1063   1.425   .     S
C853   N878    1.372   .     A
C853   C907    1.444   .     S
C854   N877    1.372   .     A
C854   C909    1.444   .     S
C854   C1061   1.425   .     S
C855   O883    1.293   .     A
C855   O886    1.294   .     A
C855   C860    1.446   .     S
C856   O885    1.293   .     A
C856   O884    1.294   .     A
C856   C859    1.446   .     S
C857   C859    1.412   .     A
C857   C867    1.404   .     A
C857   O887    1.387   .     S
C858   C868    1.404   .     A
C858   O889    1.387   .     S
C858   C860    1.412   .     A
C859   C861    1.393   .     A
C860   C862    1.393   .     A
C861   C863    1.399   .     A
C861   H873    1.083   .     S
C862   H874    1.083   .     S
C862   C864    1.399   .     A
C863   C869    1.417   .     A
C863   C865    1.418   .     A
C864   C866    1.418   .     A
C864   C870    1.417   .     A
C865   C867    1.417   .     A
C865   C236    1.410   1_556 S
C866   C868    1.417   .     A
C869   O891    1.380   .     S
C869   C213    1.391   1_556 S
C870   O893    1.380   .     S
Cu871  Cu872   2.692   .     S
Cu871  O883    1.959   .     S
Cu871  O879    1.972   .     S
Cu871  N877    2.023   .     S
Cu871  O885    1.959   .     S
Cu871  O881    1.972   .     S
Cu872  N878    2.023   .     S
Cu872  O880    1.972   .     S
Cu872  O884    1.959   .     S
Cu872  O882    1.972   .     S
Cu872  O886    1.959   .     S
O887   H888    0.988   .     S
O889   H890    0.988   .     S
O891   H892    0.989   .     S
O893   H894    0.989   .     S
O895   H896    0.992   .     S
O897   H898    0.992   .     S
O899   H900    0.992   .     S
O901   H902    0.992   .     S
C903   N904    1.158   .     T
C905   N906    1.158   .     T
C907   N908    1.158   .     T
C909   N910    1.158   .     T
C911   O949    1.300   .     A
C911   O952    1.300   .     A
C911   C920    1.468   .     S
C912   O951    1.300   .     A
C912   O950    1.300   .     A
C912   C919    1.468   .     S
C913   H945    1.084   .     S
C913   C938    1.403   .     A
C914   H946    1.084   .     S
C914   C937    1.403   .     A
C914   C310    1.391   1_556 S
C915   C920    1.415   .     A
C915   O965    1.378   .     S
C916   C919    1.415   .     A
C916   O967    1.378   .     S
C916   C988    1.385   .     S
C917   O969    1.378   .     S
C917   C919    1.415   .     A
C917   C985    1.385   .     S
C918   O971    1.378   .     S
C918   C920    1.415   .     A
C921   N948    1.372   .     A
C921   C973    1.444   .     S
C922   C975    1.444   .     S
C922   N947    1.372   .     A
C922   C1133   1.425   .     S
C923   N948    1.372   .     A
C923   C977    1.444   .     S
C924   N947    1.372   .     A
C924   C979    1.444   .     S
C924   C1131   1.425   .     S
C925   O953    1.293   .     A
C925   O956    1.294   .     A
C925   C930    1.446   .     S
C926   O955    1.293   .     A
C926   O954    1.294   .     A
C926   C929    1.446   .     S
C927   C929    1.412   .     A
C927   C937    1.404   .     A
C927   O957    1.387   .     S
C928   C938    1.404   .     A
C928   O959    1.387   .     S
C928   C930    1.412   .     A
C929   C931    1.393   .     A
C930   C932    1.393   .     A
C931   C933    1.399   .     A
C931   H943    1.083   .     S
C932   H944    1.083   .     S
C932   C934    1.399   .     A
C933   C939    1.417   .     A
C933   C935    1.418   .     A
C934   C936    1.418   .     A
C934   C940    1.417   .     A
C935   C937    1.417   .     A
C935   C306    1.410   1_556 S
C936   C938    1.417   .     A
C939   O961    1.380   .     S
C939   C283    1.391   1_556 S
C940   O963    1.380   .     S
Cu941  Cu942   2.692   .     S
Cu941  O953    1.959   .     S
Cu941  O949    1.972   .     S
Cu941  N947    2.023   .     S
Cu941  O955    1.959   .     S
Cu941  O951    1.972   .     S
Cu942  N948    2.023   .     S
Cu942  O950    1.972   .     S
Cu942  O954    1.959   .     S
Cu942  O952    1.972   .     S
Cu942  O956    1.959   .     S
O957   H958    0.988   .     S
O959   H960    0.988   .     S
O961   H962    0.989   .     S
O963   H964    0.989   .     S
O965   H966    0.992   .     S
O967   H968    0.992   .     S
O969   H970    0.992   .     S
O971   H972    0.992   .     S
C973   N974    1.158   .     T
C975   N976    1.158   .     T
C977   N978    1.158   .     T
C979   N980    1.158   .     T
C981   O1019   1.300   .     A
C981   O1022   1.300   .     A
C981   C990    1.468   .     S
C982   O1021   1.300   .     A
C982   O1020   1.300   .     A
C982   C989    1.468   .     S
C983   H1015   1.084   .     S
C983   C1008   1.403   .     A
C984   H1016   1.084   .     S
C984   C1007   1.403   .     A
C984   C380    1.391   1_556 S
C985   C990    1.415   .     A
C985   O1035   1.378   .     S
C986   C989    1.415   .     A
C986   O1037   1.378   .     S
C986   C848    1.385   1_655 S
C987   O1039   1.378   .     S
C987   C989    1.415   .     A
C987   C845    1.385   1_655 S
C988   O1041   1.378   .     S
C988   C990    1.415   .     A
C991   N1018   1.372   .     A
C991   C1043   1.444   .     S
C992   C1045   1.444   .     S
C992   N1017   1.372   .     A
C992   C1203   1.425   .     S
C993   N1018   1.372   .     A
C993   C1047   1.444   .     S
C994   N1017   1.372   .     A
C994   C1049   1.444   .     S
C994   C1201   1.425   .     S
C995   O1023   1.293   .     A
C995   O1026   1.294   .     A
C995   C1000   1.446   .     S
C996   O1025   1.293   .     A
C996   O1024   1.294   .     A
C996   C999    1.446   .     S
C997   C999    1.412   .     A
C997   C1007   1.404   .     A
C997   O1027   1.387   .     S
C998   C1008   1.404   .     A
C998   O1029   1.387   .     S
C998   C1000   1.412   .     A
C999   C1001   1.393   .     A
C1000  C1002   1.393   .     A
C1001  C1003   1.399   .     A
C1001  H1013   1.083   .     S
C1002  H1014   1.083   .     S
C1002  C1004   1.399   .     A
C1003  C1009   1.417   .     A
C1003  C1005   1.418   .     A
C1004  C1006   1.418   .     A
C1004  C1010   1.417   .     A
C1005  C1007   1.417   .     A
C1005  C376    1.410   1_556 S
C1006  C1008   1.417   .     A
C1009  O1031   1.380   .     S
C1009  C353    1.391   1_556 S
C1010  O1033   1.380   .     S
Cu1011 Cu1012  2.692   .     S
Cu1011 O1023   1.959   .     S
Cu1011 O1019   1.972   .     S
Cu1011 N1017   2.023   .     S
Cu1011 O1025   1.959   .     S
Cu1011 O1021   1.972   .     S
Cu1012 N1018   2.023   .     S
Cu1012 O1020   1.972   .     S
Cu1012 O1024   1.959   .     S
Cu1012 O1022   1.972   .     S
Cu1012 O1026   1.959   .     S
O1027  H1028   0.988   .     S
O1029  H1030   0.988   .     S
O1031  H1032   0.989   .     S
O1033  H1034   0.989   .     S
O1035  H1036   0.992   .     S
O1037  H1038   0.992   .     S
O1039  H1040   0.992   .     S
O1041  H1042   0.992   .     S
C1043  N1044   1.158   .     T
C1045  N1046   1.158   .     T
C1047  N1048   1.158   .     T
C1049  N1050   1.158   .     T
C1051  O1089   1.300   .     A
C1051  O1092   1.300   .     A
C1051  C1060   1.468   .     S
C1052  O1091   1.300   .     A
C1052  O1090   1.300   .     A
C1052  C1059   1.468   .     S
C1053  H1085   1.084   .     S
C1053  C1078   1.403   .     A
C1054  H1086   1.084   .     S
C1054  C1077   1.403   .     A
C1054  C450    1.391   1_556 S
C1055  C1060   1.415   .     A
C1055  O1105   1.378   .     S
C1055  C1197   1.385   1_455 S
C1056  C1059   1.415   .     A
C1056  O1107   1.378   .     S
C1056  C1128   1.385   .     S
C1057  O1109   1.378   .     S
C1057  C1059   1.415   .     A
C1057  C1125   1.385   .     S
C1058  O1111   1.378   .     S
C1058  C1060   1.415   .     A
C1058  C1196   1.385   1_455 S
C1061  N1088   1.372   .     A
C1061  C1113   1.444   .     S
C1062  C1115   1.444   .     S
C1062  N1087   1.372   .     A
C1062  C643    1.425   1_565 S
C1063  N1088   1.372   .     A
C1063  C1117   1.444   .     S
C1064  N1087   1.372   .     A
C1064  C1119   1.444   .     S
C1064  C641    1.425   1_565 S
C1065  O1093   1.293   .     A
C1065  O1096   1.294   .     A
C1065  C1070   1.446   .     S
C1066  O1095   1.293   .     A
C1066  O1094   1.294   .     A
C1066  C1069   1.446   .     S
C1067  C1069   1.412   .     A
C1067  C1077   1.404   .     A
C1067  O1097   1.387   .     S
C1068  C1078   1.404   .     A
C1068  O1099   1.387   .     S
C1068  C1070   1.412   .     A
C1069  C1071   1.393   .     A
C1070  C1072   1.393   .     A
C1071  C1073   1.399   .     A
C1071  H1083   1.083   .     S
C1072  H1084   1.083   .     S
C1072  C1074   1.399   .     A
C1073  C1079   1.417   .     A
C1073  C1075   1.418   .     A
C1074  C1076   1.418   .     A
C1074  C1080   1.417   .     A
C1075  C1077   1.417   .     A
C1075  C446    1.410   1_556 S
C1076  C1078   1.417   .     A
C1079  O1101   1.380   .     S
C1079  C423    1.391   1_556 S
C1080  O1103   1.380   .     S
Cu1081 Cu1082  2.692   .     S
Cu1081 O1093   1.959   .     S
Cu1081 O1089   1.972   .     S
Cu1081 N1087   2.023   .     S
Cu1081 O1095   1.959   .     S
Cu1081 O1091   1.972   .     S
Cu1082 N1088   2.023   .     S
Cu1082 O1090   1.972   .     S
Cu1082 O1094   1.959   .     S
Cu1082 O1092   1.972   .     S
Cu1082 O1096   1.959   .     S
O1097  H1098   0.988   .     S
O1099  H1100   0.988   .     S
O1101  H1102   0.989   .     S
O1103  H1104   0.989   .     S
O1105  H1106   0.992   .     S
O1107  H1108   0.992   .     S
O1109  H1110   0.992   .     S
O1111  H1112   0.992   .     S
C1113  N1114   1.158   .     T
C1115  N1116   1.158   .     T
C1117  N1118   1.158   .     T
C1119  N1120   1.158   .     T
C1121  O1159   1.300   .     A
C1121  O1162   1.300   .     A
C1121  C1130   1.468   .     S
C1122  O1161   1.300   .     A
C1122  O1160   1.300   .     A
C1122  C1129   1.468   .     S
C1123  H1155   1.084   .     S
C1123  C1148   1.403   .     A
C1124  H1156   1.084   .     S
C1124  C1147   1.403   .     A
C1124  C520    1.391   1_556 S
C1125  C1130   1.415   .     A
C1125  O1175   1.378   .     S
C1126  C1129   1.415   .     A
C1126  O1177   1.378   .     S
C1126  C1198   1.385   .     S
C1127  O1179   1.378   .     S
C1127  C1129   1.415   .     A
C1127  C1195   1.385   .     S
C1128  O1181   1.378   .     S
C1128  C1130   1.415   .     A
C1131  N1158   1.372   .     A
C1131  C1183   1.444   .     S
C1132  C1185   1.444   .     S
C1132  N1157   1.372   .     A
C1132  C713    1.425   1_565 S
C1133  N1158   1.372   .     A
C1133  C1187   1.444   .     S
C1134  N1157   1.372   .     A
C1134  C1189   1.444   .     S
C1134  C711    1.425   1_565 S
C1135  O1163   1.293   .     A
C1135  O1166   1.294   .     A
C1135  C1140   1.446   .     S
C1136  O1165   1.293   .     A
C1136  O1164   1.294   .     A
C1136  C1139   1.446   .     S
C1137  C1139   1.412   .     A
C1137  C1147   1.404   .     A
C1137  O1167   1.387   .     S
C1138  C1148   1.404   .     A
C1138  O1169   1.387   .     S
C1138  C1140   1.412   .     A
C1139  C1141   1.393   .     A
C1140  C1142   1.393   .     A
C1141  C1143   1.399   .     A
C1141  H1153   1.083   .     S
C1142  H1154   1.083   .     S
C1142  C1144   1.399   .     A
C1143  C1149   1.417   .     A
C1143  C1145   1.418   .     A
C1144  C1146   1.418   .     A
C1144  C1150   1.417   .     A
C1145  C1147   1.417   .     A
C1145  C516    1.410   1_556 S
C1146  C1148   1.417   .     A
C1149  O1171   1.380   .     S
C1149  C493    1.391   1_556 S
C1150  O1173   1.380   .     S
Cu1151 Cu1152  2.692   .     S
Cu1151 O1163   1.959   .     S
Cu1151 O1159   1.972   .     S
Cu1151 N1157   2.023   .     S
Cu1151 O1165   1.959   .     S
Cu1151 O1161   1.972   .     S
Cu1152 N1158   2.023   .     S
Cu1152 O1160   1.972   .     S
Cu1152 O1164   1.959   .     S
Cu1152 O1162   1.972   .     S
Cu1152 O1166   1.959   .     S
O1167  H1168   0.988   .     S
O1169  H1170   0.988   .     S
O1171  H1172   0.989   .     S
O1173  H1174   0.989   .     S
O1175  H1176   0.992   .     S
O1177  H1178   0.992   .     S
O1179  H1180   0.992   .     S
O1181  H1182   0.992   .     S
C1183  N1184   1.158   .     T
C1185  N1186   1.158   .     T
C1187  N1188   1.158   .     T
C1189  N1190   1.158   .     T
C1191  O1229   1.300   .     A
C1191  O1232   1.300   .     A
C1191  C1200   1.468   .     S
C1192  O1231   1.300   .     A
C1192  O1230   1.300   .     A
C1192  C1199   1.468   .     S
C1193  H1225   1.084   .     S
C1193  C1218   1.403   .     A
C1194  H1226   1.084   .     S
C1194  C1217   1.403   .     A
C1194  C590    1.391   1_556 S
C1195  C1200   1.415   .     A
C1195  O1245   1.378   .     S
C1196  C1199   1.415   .     A
C1196  O1247   1.378   .     S
C1196  C1058   1.385   1_655 S
C1197  O1249   1.378   .     S
C1197  C1199   1.415   .     A
C1197  C1055   1.385   1_655 S
C1198  O1251   1.378   .     S
C1198  C1200   1.415   .     A
C1201  N1228   1.372   .     A
C1201  C1253   1.444   .     S
C1202  C1255   1.444   .     S
C1202  N1227   1.372   .     A
C1202  C783    1.425   1_565 S
C1203  N1228   1.372   .     A
C1203  C1257   1.444   .     S
C1204  N1227   1.372   .     A
C1204  C1259   1.444   .     S
C1204  C781    1.425   1_565 S
C1205  O1233   1.293   .     A
C1205  O1236   1.294   .     A
C1205  C1210   1.446   .     S
C1206  O1235   1.293   .     A
C1206  O1234   1.294   .     A
C1206  C1209   1.446   .     S
C1207  C1209   1.412   .     A
C1207  C1217   1.404   .     A
C1207  O1237   1.387   .     S
C1208  C1218   1.404   .     A
C1208  O1239   1.387   .     S
C1208  C1210   1.412   .     A
C1209  C1211   1.393   .     A
C1210  C1212   1.393   .     A
C1211  C1213   1.399   .     A
C1211  H1223   1.083   .     S
C1212  H1224   1.083   .     S
C1212  C1214   1.399   .     A
C1213  C1219   1.417   .     A
C1213  C1215   1.418   .     A
C1214  C1216   1.418   .     A
C1214  C1220   1.417   .     A
C1215  C1217   1.417   .     A
C1215  C586    1.410   1_556 S
C1216  C1218   1.417   .     A
C1219  O1241   1.380   .     S
C1219  C563    1.391   1_556 S
C1220  O1243   1.380   .     S
Cu1221 Cu1222  2.692   .     S
Cu1221 O1233   1.959   .     S
Cu1221 O1229   1.972   .     S
Cu1221 N1227   2.023   .     S
Cu1221 O1235   1.959   .     S
Cu1221 O1231   1.972   .     S
Cu1222 N1228   2.023   .     S
Cu1222 O1230   1.972   .     S
Cu1222 O1234   1.959   .     S
Cu1222 O1232   1.972   .     S
Cu1222 O1236   1.959   .     S
O1237  H1238   0.988   .     S
O1239  H1240   0.988   .     S
O1241  H1242   0.989   .     S
O1243  H1244   0.989   .     S
O1245  H1246   0.992   .     S
O1247  H1248   0.992   .     S
O1249  H1250   0.992   .     S
O1251  H1252   0.992   .     S
C1253  N1254   1.158   .     T
C1255  N1256   1.158   .     T
C1257  N1258   1.158   .     T
C1259  N1260   1.158   .     T
