data_str_m2_o1_o5_pcu_sym.37
_audit_creation_date              2020-01-03
_audit_creation_method            'Materials Studio'
_symmetry_space_group_name_H-M    'P1'
_symmetry_Int_Tables_number       1
_symmetry_cell_setting            triclinic
loop_
_symmetry_equiv_pos_as_xyz
  x,y,z
_cell_length_a                    32.3331
_cell_length_b                    28.6109
_cell_length_c                    27.2346
_cell_angle_alpha                 90.0727
_cell_angle_beta                  90.1860
_cell_angle_gamma                 90.0097
loop_
_atom_site_label
_atom_site_type_symbol
_atom_site_fract_x
_atom_site_fract_y
_atom_site_fract_z
_atom_site_U_iso_or_equiv
_atom_site_adp_type
_atom_site_occupancy
C1     C     0.08748   0.16666   0.16664   0.00000  Uiso   1.00
C2     C     0.02145   0.18804   0.12773   0.00000  Uiso   1.00
C3     C     0.29046   0.16668   0.16668   0.00000  Uiso   1.00
C4     C     0.04287   0.16666   0.16665   0.00000  Uiso   1.00
C5     C     0.14050   0.02474   0.13670   0.00000  Uiso   1.00
C6     C     0.19284   0.30859   0.19664   0.00000  Uiso   1.00
C7     C     0.19283   0.02482   0.19664   0.00000  Uiso   1.00
C8     C     0.14050   0.30851   0.13669   0.00000  Uiso   1.00
C9     C     0.24585   0.16667   0.16669   0.00000  Uiso   1.00
C10    C     0.16665   0.16665   0.07354   0.00000  Uiso   1.00
C11    C     0.16669   0.16668   0.25979   0.00000  Uiso   1.00
C12    C     0.16666   0.16664   0.02185   0.00000  Uiso   1.00
C13    C     0.16667   0.16669   0.31149   0.00000  Uiso   1.00
C14    C     0.02166   0.14529   0.20559   0.00000  Uiso   1.00
C15    C     0.31167   0.18805   0.12774   0.00000  Uiso   1.00
C16    C     0.31189   0.14530   0.20561   0.00000  Uiso   1.00
Cl17   Cl    0.04899   0.12018   0.25546   0.00000  Uiso   1.00
Cl18   Cl    0.28434   0.21316   0.07787   0.00000  Uiso   1.00
Cl19   Cl    0.28484   0.12021   0.25550   0.00000  Uiso   1.00
Cl20   Cl    0.04849   0.21313   0.07783   0.00000  Uiso   1.00
Cu21   Cu    0.16667   0.21355   0.16667   0.00000  Uiso   1.00
Cu22   Cu    0.16667   0.11978   0.16667   0.00000  Uiso   1.00
H23    H     0.11952   0.04334   0.11266   0.00000  Uiso   1.00
H24    H     0.21382   0.28999   0.22067   0.00000  Uiso   1.00
H25    H     0.21381   0.04349   0.22068   0.00000  Uiso   1.00
H26    H     0.11953   0.28985   0.11265   0.00000  Uiso   1.00
N27    N     0.16667   0.28402   0.16667   0.00000  Uiso   1.00
N28    N     0.16667   0.04931   0.16667   0.00000  Uiso   1.00
O29    O     0.10655   0.20625   0.16666   0.00000  Uiso   1.00
O30    O     0.22679   0.12709   0.16667   0.00000  Uiso   1.00
O31    O     0.22679   0.20625   0.16667   0.00000  Uiso   1.00
O32    O     0.10655   0.12709   0.16666   0.00000  Uiso   1.00
O33    O     0.16667   0.20625   0.09613   0.00000  Uiso   1.00
O34    O     0.16667   0.12708   0.23720   0.00000  Uiso   1.00
O35    O     0.16667   0.20625   0.23720   0.00000  Uiso   1.00
O36    O     0.16667   0.12708   0.09613   0.00000  Uiso   1.00
C37    C     0.42082   0.16666   0.16664   0.00000  Uiso   1.00
C38    C     0.35478   0.18804   0.12773   0.00000  Uiso   1.00
C39    C     0.62380   0.16668   0.16668   0.00000  Uiso   1.00
C40    C     0.37620   0.16666   0.16665   0.00000  Uiso   1.00
C41    C     0.47383   0.02474   0.13670   0.00000  Uiso   1.00
C42    C     0.52617   0.30859   0.19664   0.00000  Uiso   1.00
C43    C     0.52617   0.02482   0.19664   0.00000  Uiso   1.00
C44    C     0.47383   0.30851   0.13669   0.00000  Uiso   1.00
C45    C     0.57918   0.16667   0.16669   0.00000  Uiso   1.00
C46    C     0.49998   0.16665   0.07354   0.00000  Uiso   1.00
C47    C     0.50002   0.16668   0.25979   0.00000  Uiso   1.00
C48    C     0.49999   0.16664   0.02185   0.00000  Uiso   1.00
C49    C     0.50001   0.16669   0.31149   0.00000  Uiso   1.00
C50    C     0.35500   0.14529   0.20559   0.00000  Uiso   1.00
C51    C     0.64500   0.18805   0.12774   0.00000  Uiso   1.00
C52    C     0.64522   0.14530   0.20561   0.00000  Uiso   1.00
Cl53   Cl    0.38232   0.12018   0.25546   0.00000  Uiso   1.00
Cl54   Cl    0.61768   0.21316   0.07787   0.00000  Uiso   1.00
Cl55   Cl    0.61817   0.12021   0.25550   0.00000  Uiso   1.00
Cl56   Cl    0.38183   0.21313   0.07783   0.00000  Uiso   1.00
Cu57   Cu    0.50000   0.21355   0.16667   0.00000  Uiso   1.00
Cu58   Cu    0.50000   0.11978   0.16667   0.00000  Uiso   1.00
H59    H     0.45285   0.04334   0.11266   0.00000  Uiso   1.00
H60    H     0.54715   0.28999   0.22067   0.00000  Uiso   1.00
H61    H     0.54714   0.04349   0.22068   0.00000  Uiso   1.00
H62    H     0.45286   0.28985   0.11265   0.00000  Uiso   1.00
N63    N     0.50000   0.28402   0.16667   0.00000  Uiso   1.00
N64    N     0.50000   0.04931   0.16667   0.00000  Uiso   1.00
O65    O     0.43988   0.20625   0.16666   0.00000  Uiso   1.00
O66    O     0.56012   0.12709   0.16667   0.00000  Uiso   1.00
O67    O     0.56012   0.20625   0.16667   0.00000  Uiso   1.00
O68    O     0.43988   0.12709   0.16666   0.00000  Uiso   1.00
O69    O     0.50000   0.20625   0.09613   0.00000  Uiso   1.00
O70    O     0.50000   0.12708   0.23720   0.00000  Uiso   1.00
O71    O     0.50000   0.20625   0.23720   0.00000  Uiso   1.00
O72    O     0.50000   0.12708   0.09613   0.00000  Uiso   1.00
C73    C     0.75415   0.16666   0.16664   0.00000  Uiso   1.00
C74    C     0.68811   0.18804   0.12773   0.00000  Uiso   1.00
C75    C     0.95713   0.16668   0.16668   0.00000  Uiso   1.00
C76    C     0.70954   0.16666   0.16665   0.00000  Uiso   1.00
C77    C     0.80716   0.02474   0.13670   0.00000  Uiso   1.00
C78    C     0.85950   0.30859   0.19664   0.00000  Uiso   1.00
C79    C     0.85950   0.02482   0.19664   0.00000  Uiso   1.00
C80    C     0.80717   0.30851   0.13669   0.00000  Uiso   1.00
C81    C     0.91252   0.16667   0.16669   0.00000  Uiso   1.00
C82    C     0.83331   0.16665   0.07354   0.00000  Uiso   1.00
C83    C     0.83335   0.16668   0.25979   0.00000  Uiso   1.00
C84    C     0.83333   0.16664   0.02185   0.00000  Uiso   1.00
C85    C     0.83334   0.16669   0.31149   0.00000  Uiso   1.00
C86    C     0.68833   0.14529   0.20559   0.00000  Uiso   1.00
C87    C     0.97834   0.18805   0.12774   0.00000  Uiso   1.00
C88    C     0.97855   0.14530   0.20561   0.00000  Uiso   1.00
Cl89   Cl    0.71566   0.12018   0.25546   0.00000  Uiso   1.00
Cl90   Cl    0.95101   0.21316   0.07787   0.00000  Uiso   1.00
Cl91   Cl    0.95151   0.12021   0.25550   0.00000  Uiso   1.00
Cl92   Cl    0.71516   0.21313   0.07783   0.00000  Uiso   1.00
Cu93   Cu    0.83333   0.21355   0.16667   0.00000  Uiso   1.00
Cu94   Cu    0.83333   0.11978   0.16667   0.00000  Uiso   1.00
H95    H     0.78618   0.04334   0.11266   0.00000  Uiso   1.00
H96    H     0.88048   0.28999   0.22067   0.00000  Uiso   1.00
H97    H     0.88047   0.04349   0.22068   0.00000  Uiso   1.00
H98    H     0.78619   0.28985   0.11265   0.00000  Uiso   1.00
N99    N     0.83333   0.28402   0.16667   0.00000  Uiso   1.00
N100   N     0.83333   0.04931   0.16667   0.00000  Uiso   1.00
O101   O     0.77321   0.20625   0.16666   0.00000  Uiso   1.00
O102   O     0.89345   0.12709   0.16667   0.00000  Uiso   1.00
O103   O     0.89345   0.20625   0.16667   0.00000  Uiso   1.00
O104   O     0.77321   0.12709   0.16666   0.00000  Uiso   1.00
O105   O     0.83333   0.20625   0.09613   0.00000  Uiso   1.00
O106   O     0.83333   0.12708   0.23720   0.00000  Uiso   1.00
O107   O     0.83333   0.20625   0.23720   0.00000  Uiso   1.00
O108   O     0.83333   0.12708   0.09613   0.00000  Uiso   1.00
C109   C     0.08748   0.50000   0.16664   0.00000  Uiso   1.00
C110   C     0.02145   0.52137   0.12773   0.00000  Uiso   1.00
C111   C     0.29046   0.50001   0.16668   0.00000  Uiso   1.00
C112   C     0.04287   0.49999   0.16665   0.00000  Uiso   1.00
C113   C     0.14050   0.35807   0.13670   0.00000  Uiso   1.00
C114   C     0.19284   0.64193   0.19664   0.00000  Uiso   1.00
C115   C     0.19283   0.35816   0.19664   0.00000  Uiso   1.00
C116   C     0.14050   0.64184   0.13669   0.00000  Uiso   1.00
C117   C     0.24585   0.50000   0.16669   0.00000  Uiso   1.00
C118   C     0.16665   0.49998   0.07354   0.00000  Uiso   1.00
C119   C     0.16669   0.50002   0.25979   0.00000  Uiso   1.00
C120   C     0.16666   0.49998   0.02185   0.00000  Uiso   1.00
C121   C     0.16667   0.50002   0.31149   0.00000  Uiso   1.00
C122   C     0.02166   0.47862   0.20559   0.00000  Uiso   1.00
C123   C     0.31167   0.52138   0.12774   0.00000  Uiso   1.00
C124   C     0.31189   0.47863   0.20561   0.00000  Uiso   1.00
Cl125  Cl    0.04899   0.45351   0.25546   0.00000  Uiso   1.00
Cl126  Cl    0.28434   0.54649   0.07787   0.00000  Uiso   1.00
Cl127  Cl    0.28484   0.45354   0.25550   0.00000  Uiso   1.00
Cl128  Cl    0.04849   0.54646   0.07783   0.00000  Uiso   1.00
Cu129  Cu    0.16667   0.54689   0.16667   0.00000  Uiso   1.00
Cu130  Cu    0.16667   0.45311   0.16667   0.00000  Uiso   1.00
H131   H     0.11952   0.37668   0.11266   0.00000  Uiso   1.00
H132   H     0.21382   0.62332   0.22067   0.00000  Uiso   1.00
H133   H     0.21381   0.37682   0.22068   0.00000  Uiso   1.00
H134   H     0.11953   0.62318   0.11265   0.00000  Uiso   1.00
N135   N     0.16667   0.61736   0.16667   0.00000  Uiso   1.00
N136   N     0.16667   0.38264   0.16667   0.00000  Uiso   1.00
O137   O     0.10655   0.53958   0.16666   0.00000  Uiso   1.00
O138   O     0.22679   0.46042   0.16667   0.00000  Uiso   1.00
O139   O     0.22679   0.53958   0.16667   0.00000  Uiso   1.00
O140   O     0.10655   0.46042   0.16666   0.00000  Uiso   1.00
O141   O     0.16667   0.53959   0.09613   0.00000  Uiso   1.00
O142   O     0.16667   0.46041   0.23720   0.00000  Uiso   1.00
O143   O     0.16667   0.53959   0.23720   0.00000  Uiso   1.00
O144   O     0.16667   0.46041   0.09613   0.00000  Uiso   1.00
C145   C     0.42082   0.50000   0.16664   0.00000  Uiso   1.00
C146   C     0.35478   0.52137   0.12773   0.00000  Uiso   1.00
C147   C     0.62380   0.50001   0.16668   0.00000  Uiso   1.00
C148   C     0.37620   0.49999   0.16665   0.00000  Uiso   1.00
C149   C     0.47383   0.35807   0.13670   0.00000  Uiso   1.00
C150   C     0.52617   0.64193   0.19664   0.00000  Uiso   1.00
C151   C     0.52617   0.35816   0.19664   0.00000  Uiso   1.00
C152   C     0.47383   0.64184   0.13669   0.00000  Uiso   1.00
C153   C     0.57918   0.50000   0.16669   0.00000  Uiso   1.00
C154   C     0.49998   0.49998   0.07354   0.00000  Uiso   1.00
C155   C     0.50002   0.50002   0.25979   0.00000  Uiso   1.00
C156   C     0.49999   0.49998   0.02185   0.00000  Uiso   1.00
C157   C     0.50001   0.50002   0.31149   0.00000  Uiso   1.00
C158   C     0.35500   0.47862   0.20559   0.00000  Uiso   1.00
C159   C     0.64500   0.52138   0.12774   0.00000  Uiso   1.00
C160   C     0.64522   0.47863   0.20561   0.00000  Uiso   1.00
Cl161  Cl    0.38232   0.45351   0.25546   0.00000  Uiso   1.00
Cl162  Cl    0.61768   0.54649   0.07787   0.00000  Uiso   1.00
Cl163  Cl    0.61817   0.45354   0.25550   0.00000  Uiso   1.00
Cl164  Cl    0.38183   0.54646   0.07783   0.00000  Uiso   1.00
Cu165  Cu    0.50000   0.54689   0.16667   0.00000  Uiso   1.00
Cu166  Cu    0.50000   0.45311   0.16667   0.00000  Uiso   1.00
H167   H     0.45285   0.37668   0.11266   0.00000  Uiso   1.00
H168   H     0.54715   0.62332   0.22067   0.00000  Uiso   1.00
H169   H     0.54714   0.37682   0.22068   0.00000  Uiso   1.00
H170   H     0.45286   0.62318   0.11265   0.00000  Uiso   1.00
N171   N     0.50000   0.61736   0.16667   0.00000  Uiso   1.00
N172   N     0.50000   0.38264   0.16667   0.00000  Uiso   1.00
O173   O     0.43988   0.53958   0.16666   0.00000  Uiso   1.00
O174   O     0.56012   0.46042   0.16667   0.00000  Uiso   1.00
O175   O     0.56012   0.53958   0.16667   0.00000  Uiso   1.00
O176   O     0.43988   0.46042   0.16666   0.00000  Uiso   1.00
O177   O     0.50000   0.53959   0.09613   0.00000  Uiso   1.00
O178   O     0.50000   0.46041   0.23720   0.00000  Uiso   1.00
O179   O     0.50000   0.53959   0.23720   0.00000  Uiso   1.00
O180   O     0.50000   0.46041   0.09613   0.00000  Uiso   1.00
C181   C     0.75415   0.50000   0.16664   0.00000  Uiso   1.00
C182   C     0.68811   0.52137   0.12773   0.00000  Uiso   1.00
C183   C     0.95713   0.50001   0.16668   0.00000  Uiso   1.00
C184   C     0.70954   0.49999   0.16665   0.00000  Uiso   1.00
C185   C     0.80716   0.35807   0.13670   0.00000  Uiso   1.00
C186   C     0.85950   0.64193   0.19664   0.00000  Uiso   1.00
C187   C     0.85950   0.35816   0.19664   0.00000  Uiso   1.00
C188   C     0.80717   0.64184   0.13669   0.00000  Uiso   1.00
C189   C     0.91252   0.50000   0.16669   0.00000  Uiso   1.00
C190   C     0.83331   0.49998   0.07354   0.00000  Uiso   1.00
C191   C     0.83335   0.50002   0.25979   0.00000  Uiso   1.00
C192   C     0.83333   0.49998   0.02185   0.00000  Uiso   1.00
C193   C     0.83334   0.50002   0.31149   0.00000  Uiso   1.00
C194   C     0.68833   0.47862   0.20559   0.00000  Uiso   1.00
C195   C     0.97834   0.52138   0.12774   0.00000  Uiso   1.00
C196   C     0.97855   0.47863   0.20561   0.00000  Uiso   1.00
Cl197  Cl    0.71566   0.45351   0.25546   0.00000  Uiso   1.00
Cl198  Cl    0.95101   0.54649   0.07787   0.00000  Uiso   1.00
Cl199  Cl    0.95151   0.45354   0.25550   0.00000  Uiso   1.00
Cl200  Cl    0.71516   0.54646   0.07783   0.00000  Uiso   1.00
Cu201  Cu    0.83333   0.54689   0.16667   0.00000  Uiso   1.00
Cu202  Cu    0.83333   0.45311   0.16667   0.00000  Uiso   1.00
H203   H     0.78618   0.37668   0.11266   0.00000  Uiso   1.00
H204   H     0.88048   0.62332   0.22067   0.00000  Uiso   1.00
H205   H     0.88047   0.37682   0.22068   0.00000  Uiso   1.00
H206   H     0.78619   0.62318   0.11265   0.00000  Uiso   1.00
N207   N     0.83333   0.61736   0.16667   0.00000  Uiso   1.00
N208   N     0.83333   0.38264   0.16667   0.00000  Uiso   1.00
O209   O     0.77321   0.53958   0.16666   0.00000  Uiso   1.00
O210   O     0.89345   0.46042   0.16667   0.00000  Uiso   1.00
O211   O     0.89345   0.53958   0.16667   0.00000  Uiso   1.00
O212   O     0.77321   0.46042   0.16666   0.00000  Uiso   1.00
O213   O     0.83333   0.53959   0.09613   0.00000  Uiso   1.00
O214   O     0.83333   0.46041   0.23720   0.00000  Uiso   1.00
O215   O     0.83333   0.53959   0.23720   0.00000  Uiso   1.00
O216   O     0.83333   0.46041   0.09613   0.00000  Uiso   1.00
C217   C     0.08748   0.83333   0.16664   0.00000  Uiso   1.00
C218   C     0.02145   0.85470   0.12773   0.00000  Uiso   1.00
C219   C     0.29046   0.83334   0.16668   0.00000  Uiso   1.00
C220   C     0.04287   0.83332   0.16665   0.00000  Uiso   1.00
C221   C     0.14050   0.69141   0.13670   0.00000  Uiso   1.00
C222   C     0.19284   0.97526   0.19664   0.00000  Uiso   1.00
C223   C     0.19283   0.69149   0.19664   0.00000  Uiso   1.00
C224   C     0.14050   0.97518   0.13669   0.00000  Uiso   1.00
C225   C     0.24585   0.83334   0.16669   0.00000  Uiso   1.00
C226   C     0.16665   0.83332   0.07354   0.00000  Uiso   1.00
C227   C     0.16669   0.83335   0.25979   0.00000  Uiso   1.00
C228   C     0.16666   0.83331   0.02185   0.00000  Uiso   1.00
C229   C     0.16667   0.83336   0.31149   0.00000  Uiso   1.00
C230   C     0.02166   0.81195   0.20559   0.00000  Uiso   1.00
C231   C     0.31167   0.85471   0.12774   0.00000  Uiso   1.00
C232   C     0.31189   0.81196   0.20561   0.00000  Uiso   1.00
Cl233  Cl    0.04899   0.78684   0.25546   0.00000  Uiso   1.00
Cl234  Cl    0.28434   0.87982   0.07787   0.00000  Uiso   1.00
Cl235  Cl    0.28484   0.78687   0.25550   0.00000  Uiso   1.00
Cl236  Cl    0.04849   0.87979   0.07783   0.00000  Uiso   1.00
Cu237  Cu    0.16667   0.88022   0.16667   0.00000  Uiso   1.00
Cu238  Cu    0.16667   0.78645   0.16667   0.00000  Uiso   1.00
H239   H     0.11952   0.71001   0.11266   0.00000  Uiso   1.00
H240   H     0.21382   0.95666   0.22067   0.00000  Uiso   1.00
H241   H     0.21381   0.71016   0.22068   0.00000  Uiso   1.00
H242   H     0.11953   0.95651   0.11265   0.00000  Uiso   1.00
N243   N     0.16667   0.95069   0.16667   0.00000  Uiso   1.00
N244   N     0.16667   0.71598   0.16667   0.00000  Uiso   1.00
O245   O     0.10655   0.87291   0.16666   0.00000  Uiso   1.00
O246   O     0.22679   0.79375   0.16667   0.00000  Uiso   1.00
O247   O     0.22679   0.87291   0.16667   0.00000  Uiso   1.00
O248   O     0.10655   0.79375   0.16666   0.00000  Uiso   1.00
O249   O     0.16667   0.87292   0.09613   0.00000  Uiso   1.00
O250   O     0.16667   0.79375   0.23720   0.00000  Uiso   1.00
O251   O     0.16667   0.87292   0.23720   0.00000  Uiso   1.00
O252   O     0.16667   0.79375   0.09613   0.00000  Uiso   1.00
C253   C     0.42082   0.83333   0.16664   0.00000  Uiso   1.00
C254   C     0.35478   0.85470   0.12773   0.00000  Uiso   1.00
C255   C     0.62380   0.83334   0.16668   0.00000  Uiso   1.00
C256   C     0.37620   0.83332   0.16665   0.00000  Uiso   1.00
C257   C     0.47383   0.69141   0.13670   0.00000  Uiso   1.00
C258   C     0.52617   0.97526   0.19664   0.00000  Uiso   1.00
C259   C     0.52617   0.69149   0.19664   0.00000  Uiso   1.00
C260   C     0.47383   0.97518   0.13669   0.00000  Uiso   1.00
C261   C     0.57918   0.83334   0.16669   0.00000  Uiso   1.00
C262   C     0.49998   0.83332   0.07354   0.00000  Uiso   1.00
C263   C     0.50002   0.83335   0.25979   0.00000  Uiso   1.00
C264   C     0.49999   0.83331   0.02185   0.00000  Uiso   1.00
C265   C     0.50001   0.83336   0.31149   0.00000  Uiso   1.00
C266   C     0.35500   0.81195   0.20559   0.00000  Uiso   1.00
C267   C     0.64500   0.85471   0.12774   0.00000  Uiso   1.00
C268   C     0.64522   0.81196   0.20561   0.00000  Uiso   1.00
Cl269  Cl    0.38232   0.78684   0.25546   0.00000  Uiso   1.00
Cl270  Cl    0.61768   0.87982   0.07787   0.00000  Uiso   1.00
Cl271  Cl    0.61817   0.78687   0.25550   0.00000  Uiso   1.00
Cl272  Cl    0.38183   0.87979   0.07783   0.00000  Uiso   1.00
Cu273  Cu    0.50000   0.88022   0.16667   0.00000  Uiso   1.00
Cu274  Cu    0.50000   0.78645   0.16667   0.00000  Uiso   1.00
H275   H     0.45285   0.71001   0.11266   0.00000  Uiso   1.00
H276   H     0.54715   0.95666   0.22067   0.00000  Uiso   1.00
H277   H     0.54714   0.71016   0.22068   0.00000  Uiso   1.00
H278   H     0.45286   0.95651   0.11265   0.00000  Uiso   1.00
N279   N     0.50000   0.95069   0.16667   0.00000  Uiso   1.00
N280   N     0.50000   0.71598   0.16667   0.00000  Uiso   1.00
O281   O     0.43988   0.87291   0.16666   0.00000  Uiso   1.00
O282   O     0.56012   0.79375   0.16667   0.00000  Uiso   1.00
O283   O     0.56012   0.87291   0.16667   0.00000  Uiso   1.00
O284   O     0.43988   0.79375   0.16666   0.00000  Uiso   1.00
O285   O     0.50000   0.87292   0.09613   0.00000  Uiso   1.00
O286   O     0.50000   0.79375   0.23720   0.00000  Uiso   1.00
O287   O     0.50000   0.87292   0.23720   0.00000  Uiso   1.00
O288   O     0.50000   0.79375   0.09613   0.00000  Uiso   1.00
C289   C     0.75415   0.83333   0.16664   0.00000  Uiso   1.00
C290   C     0.68811   0.85470   0.12773   0.00000  Uiso   1.00
C291   C     0.95713   0.83334   0.16668   0.00000  Uiso   1.00
C292   C     0.70954   0.83332   0.16665   0.00000  Uiso   1.00
C293   C     0.80716   0.69141   0.13670   0.00000  Uiso   1.00
C294   C     0.85950   0.97526   0.19664   0.00000  Uiso   1.00
C295   C     0.85950   0.69149   0.19664   0.00000  Uiso   1.00
C296   C     0.80717   0.97518   0.13669   0.00000  Uiso   1.00
C297   C     0.91252   0.83334   0.16669   0.00000  Uiso   1.00
C298   C     0.83331   0.83332   0.07354   0.00000  Uiso   1.00
C299   C     0.83335   0.83335   0.25979   0.00000  Uiso   1.00
C300   C     0.83333   0.83331   0.02185   0.00000  Uiso   1.00
C301   C     0.83334   0.83336   0.31149   0.00000  Uiso   1.00
C302   C     0.68833   0.81195   0.20559   0.00000  Uiso   1.00
C303   C     0.97834   0.85471   0.12774   0.00000  Uiso   1.00
C304   C     0.97855   0.81196   0.20561   0.00000  Uiso   1.00
Cl305  Cl    0.71566   0.78684   0.25546   0.00000  Uiso   1.00
Cl306  Cl    0.95101   0.87982   0.07787   0.00000  Uiso   1.00
Cl307  Cl    0.95151   0.78687   0.25550   0.00000  Uiso   1.00
Cl308  Cl    0.71516   0.87979   0.07783   0.00000  Uiso   1.00
Cu309  Cu    0.83333   0.88022   0.16667   0.00000  Uiso   1.00
Cu310  Cu    0.83333   0.78645   0.16667   0.00000  Uiso   1.00
H311   H     0.78618   0.71001   0.11266   0.00000  Uiso   1.00
H312   H     0.88048   0.95666   0.22067   0.00000  Uiso   1.00
H313   H     0.88047   0.71016   0.22068   0.00000  Uiso   1.00
H314   H     0.78619   0.95651   0.11265   0.00000  Uiso   1.00
N315   N     0.83333   0.95069   0.16667   0.00000  Uiso   1.00
N316   N     0.83333   0.71598   0.16667   0.00000  Uiso   1.00
O317   O     0.77321   0.87291   0.16666   0.00000  Uiso   1.00
O318   O     0.89345   0.79375   0.16667   0.00000  Uiso   1.00
O319   O     0.89345   0.87291   0.16667   0.00000  Uiso   1.00
O320   O     0.77321   0.79375   0.16666   0.00000  Uiso   1.00
O321   O     0.83333   0.87292   0.09613   0.00000  Uiso   1.00
O322   O     0.83333   0.79375   0.23720   0.00000  Uiso   1.00
O323   O     0.83333   0.87292   0.23720   0.00000  Uiso   1.00
O324   O     0.83333   0.79375   0.09613   0.00000  Uiso   1.00
C325   C     0.08748   0.16666   0.49997   0.00000  Uiso   1.00
C326   C     0.02145   0.18804   0.46106   0.00000  Uiso   1.00
C327   C     0.29046   0.16668   0.50002   0.00000  Uiso   1.00
C328   C     0.04287   0.16666   0.49998   0.00000  Uiso   1.00
C329   C     0.14050   0.02474   0.47003   0.00000  Uiso   1.00
C330   C     0.19284   0.30859   0.52997   0.00000  Uiso   1.00
C331   C     0.19283   0.02482   0.52997   0.00000  Uiso   1.00
C332   C     0.14050   0.30851   0.47003   0.00000  Uiso   1.00
C333   C     0.24585   0.16667   0.50003   0.00000  Uiso   1.00
C334   C     0.16665   0.16665   0.40688   0.00000  Uiso   1.00
C335   C     0.16669   0.16668   0.59312   0.00000  Uiso   1.00
C336   C     0.16666   0.16664   0.35518   0.00000  Uiso   1.00
C337   C     0.16667   0.16669   0.64482   0.00000  Uiso   1.00
C338   C     0.02166   0.14529   0.53892   0.00000  Uiso   1.00
C339   C     0.31167   0.18805   0.46108   0.00000  Uiso   1.00
C340   C     0.31189   0.14530   0.53894   0.00000  Uiso   1.00
Cl341  Cl    0.04899   0.12018   0.58879   0.00000  Uiso   1.00
Cl342  Cl    0.28434   0.21316   0.41121   0.00000  Uiso   1.00
Cl343  Cl    0.28484   0.12021   0.58884   0.00000  Uiso   1.00
Cl344  Cl    0.04849   0.21313   0.41116   0.00000  Uiso   1.00
Cu345  Cu    0.16667   0.21355   0.50000   0.00000  Uiso   1.00
Cu346  Cu    0.16667   0.11978   0.50000   0.00000  Uiso   1.00
H347   H     0.11952   0.04334   0.44599   0.00000  Uiso   1.00
H348   H     0.21382   0.28999   0.55401   0.00000  Uiso   1.00
H349   H     0.21381   0.04349   0.55402   0.00000  Uiso   1.00
H350   H     0.11953   0.28985   0.44598   0.00000  Uiso   1.00
N351   N     0.16667   0.28402   0.50000   0.00000  Uiso   1.00
N352   N     0.16667   0.04931   0.50000   0.00000  Uiso   1.00
O353   O     0.10655   0.20625   0.50000   0.00000  Uiso   1.00
O354   O     0.22679   0.12709   0.50000   0.00000  Uiso   1.00
O355   O     0.22679   0.20625   0.50000   0.00000  Uiso   1.00
O356   O     0.10655   0.12709   0.50000   0.00000  Uiso   1.00
O357   O     0.16667   0.20625   0.42946   0.00000  Uiso   1.00
O358   O     0.16667   0.12708   0.57054   0.00000  Uiso   1.00
O359   O     0.16667   0.20625   0.57054   0.00000  Uiso   1.00
O360   O     0.16667   0.12708   0.42946   0.00000  Uiso   1.00
C361   C     0.42082   0.16666   0.49997   0.00000  Uiso   1.00
C362   C     0.35478   0.18804   0.46106   0.00000  Uiso   1.00
C363   C     0.62380   0.16668   0.50002   0.00000  Uiso   1.00
C364   C     0.37620   0.16666   0.49998   0.00000  Uiso   1.00
C365   C     0.47383   0.02474   0.47003   0.00000  Uiso   1.00
C366   C     0.52617   0.30859   0.52997   0.00000  Uiso   1.00
C367   C     0.52617   0.02482   0.52997   0.00000  Uiso   1.00
C368   C     0.47383   0.30851   0.47003   0.00000  Uiso   1.00
C369   C     0.57918   0.16667   0.50003   0.00000  Uiso   1.00
C370   C     0.49998   0.16665   0.40688   0.00000  Uiso   1.00
C371   C     0.50002   0.16668   0.59312   0.00000  Uiso   1.00
C372   C     0.49999   0.16664   0.35518   0.00000  Uiso   1.00
C373   C     0.50001   0.16669   0.64482   0.00000  Uiso   1.00
C374   C     0.35500   0.14529   0.53892   0.00000  Uiso   1.00
C375   C     0.64500   0.18805   0.46108   0.00000  Uiso   1.00
C376   C     0.64522   0.14530   0.53894   0.00000  Uiso   1.00
Cl377  Cl    0.38232   0.12018   0.58879   0.00000  Uiso   1.00
Cl378  Cl    0.61768   0.21316   0.41121   0.00000  Uiso   1.00
Cl379  Cl    0.61817   0.12021   0.58884   0.00000  Uiso   1.00
Cl380  Cl    0.38183   0.21313   0.41116   0.00000  Uiso   1.00
Cu381  Cu    0.50000   0.21355   0.50000   0.00000  Uiso   1.00
Cu382  Cu    0.50000   0.11978   0.50000   0.00000  Uiso   1.00
H383   H     0.45285   0.04334   0.44599   0.00000  Uiso   1.00
H384   H     0.54715   0.28999   0.55401   0.00000  Uiso   1.00
H385   H     0.54714   0.04349   0.55402   0.00000  Uiso   1.00
H386   H     0.45286   0.28985   0.44598   0.00000  Uiso   1.00
N387   N     0.50000   0.28402   0.50000   0.00000  Uiso   1.00
N388   N     0.50000   0.04931   0.50000   0.00000  Uiso   1.00
O389   O     0.43988   0.20625   0.50000   0.00000  Uiso   1.00
O390   O     0.56012   0.12709   0.50000   0.00000  Uiso   1.00
O391   O     0.56012   0.20625   0.50000   0.00000  Uiso   1.00
O392   O     0.43988   0.12709   0.50000   0.00000  Uiso   1.00
O393   O     0.50000   0.20625   0.42946   0.00000  Uiso   1.00
O394   O     0.50000   0.12708   0.57054   0.00000  Uiso   1.00
O395   O     0.50000   0.20625   0.57054   0.00000  Uiso   1.00
O396   O     0.50000   0.12708   0.42946   0.00000  Uiso   1.00
C397   C     0.75415   0.16666   0.49997   0.00000  Uiso   1.00
C398   C     0.68811   0.18804   0.46106   0.00000  Uiso   1.00
C399   C     0.95713   0.16668   0.50002   0.00000  Uiso   1.00
C400   C     0.70954   0.16666   0.49998   0.00000  Uiso   1.00
C401   C     0.80716   0.02474   0.47003   0.00000  Uiso   1.00
C402   C     0.85950   0.30859   0.52997   0.00000  Uiso   1.00
C403   C     0.85950   0.02482   0.52997   0.00000  Uiso   1.00
C404   C     0.80717   0.30851   0.47003   0.00000  Uiso   1.00
C405   C     0.91252   0.16667   0.50003   0.00000  Uiso   1.00
C406   C     0.83331   0.16665   0.40688   0.00000  Uiso   1.00
C407   C     0.83335   0.16668   0.59312   0.00000  Uiso   1.00
C408   C     0.83333   0.16664   0.35518   0.00000  Uiso   1.00
C409   C     0.83334   0.16669   0.64482   0.00000  Uiso   1.00
C410   C     0.68833   0.14529   0.53892   0.00000  Uiso   1.00
C411   C     0.97834   0.18805   0.46108   0.00000  Uiso   1.00
C412   C     0.97855   0.14530   0.53894   0.00000  Uiso   1.00
Cl413  Cl    0.71566   0.12018   0.58879   0.00000  Uiso   1.00
Cl414  Cl    0.95101   0.21316   0.41121   0.00000  Uiso   1.00
Cl415  Cl    0.95151   0.12021   0.58884   0.00000  Uiso   1.00
Cl416  Cl    0.71516   0.21313   0.41116   0.00000  Uiso   1.00
Cu417  Cu    0.83333   0.21355   0.50000   0.00000  Uiso   1.00
Cu418  Cu    0.83333   0.11978   0.50000   0.00000  Uiso   1.00
H419   H     0.78618   0.04334   0.44599   0.00000  Uiso   1.00
H420   H     0.88048   0.28999   0.55401   0.00000  Uiso   1.00
H421   H     0.88047   0.04349   0.55402   0.00000  Uiso   1.00
H422   H     0.78619   0.28985   0.44598   0.00000  Uiso   1.00
N423   N     0.83333   0.28402   0.50000   0.00000  Uiso   1.00
N424   N     0.83333   0.04931   0.50000   0.00000  Uiso   1.00
O425   O     0.77321   0.20625   0.50000   0.00000  Uiso   1.00
O426   O     0.89345   0.12709   0.50000   0.00000  Uiso   1.00
O427   O     0.89345   0.20625   0.50000   0.00000  Uiso   1.00
O428   O     0.77321   0.12709   0.50000   0.00000  Uiso   1.00
O429   O     0.83333   0.20625   0.42946   0.00000  Uiso   1.00
O430   O     0.83333   0.12708   0.57054   0.00000  Uiso   1.00
O431   O     0.83333   0.20625   0.57054   0.00000  Uiso   1.00
O432   O     0.83333   0.12708   0.42946   0.00000  Uiso   1.00
C433   C     0.08748   0.50000   0.49997   0.00000  Uiso   1.00
C434   C     0.02145   0.52137   0.46106   0.00000  Uiso   1.00
C435   C     0.29046   0.50001   0.50002   0.00000  Uiso   1.00
C436   C     0.04287   0.49999   0.49998   0.00000  Uiso   1.00
C437   C     0.14050   0.35807   0.47003   0.00000  Uiso   1.00
C438   C     0.19284   0.64193   0.52997   0.00000  Uiso   1.00
C439   C     0.19283   0.35816   0.52997   0.00000  Uiso   1.00
C440   C     0.14050   0.64184   0.47003   0.00000  Uiso   1.00
C441   C     0.24585   0.50000   0.50003   0.00000  Uiso   1.00
C442   C     0.16665   0.49998   0.40688   0.00000  Uiso   1.00
C443   C     0.16669   0.50002   0.59312   0.00000  Uiso   1.00
C444   C     0.16666   0.49998   0.35518   0.00000  Uiso   1.00
C445   C     0.16667   0.50002   0.64482   0.00000  Uiso   1.00
C446   C     0.02166   0.47862   0.53892   0.00000  Uiso   1.00
C447   C     0.31167   0.52138   0.46108   0.00000  Uiso   1.00
C448   C     0.31189   0.47863   0.53894   0.00000  Uiso   1.00
Cl449  Cl    0.04899   0.45351   0.58879   0.00000  Uiso   1.00
Cl450  Cl    0.28434   0.54649   0.41121   0.00000  Uiso   1.00
Cl451  Cl    0.28484   0.45354   0.58884   0.00000  Uiso   1.00
Cl452  Cl    0.04849   0.54646   0.41116   0.00000  Uiso   1.00
Cu453  Cu    0.16667   0.54689   0.50000   0.00000  Uiso   1.00
Cu454  Cu    0.16667   0.45311   0.50000   0.00000  Uiso   1.00
H455   H     0.11952   0.37668   0.44599   0.00000  Uiso   1.00
H456   H     0.21382   0.62332   0.55401   0.00000  Uiso   1.00
H457   H     0.21381   0.37682   0.55402   0.00000  Uiso   1.00
H458   H     0.11953   0.62318   0.44598   0.00000  Uiso   1.00
N459   N     0.16667   0.61736   0.50000   0.00000  Uiso   1.00
N460   N     0.16667   0.38264   0.50000   0.00000  Uiso   1.00
O461   O     0.10655   0.53958   0.50000   0.00000  Uiso   1.00
O462   O     0.22679   0.46042   0.50000   0.00000  Uiso   1.00
O463   O     0.22679   0.53958   0.50000   0.00000  Uiso   1.00
O464   O     0.10655   0.46042   0.50000   0.00000  Uiso   1.00
O465   O     0.16667   0.53959   0.42946   0.00000  Uiso   1.00
O466   O     0.16667   0.46041   0.57054   0.00000  Uiso   1.00
O467   O     0.16667   0.53959   0.57054   0.00000  Uiso   1.00
O468   O     0.16667   0.46041   0.42946   0.00000  Uiso   1.00
C469   C     0.42082   0.50000   0.49997   0.00000  Uiso   1.00
C470   C     0.35478   0.52137   0.46106   0.00000  Uiso   1.00
C471   C     0.62380   0.50001   0.50002   0.00000  Uiso   1.00
C472   C     0.37620   0.49999   0.49998   0.00000  Uiso   1.00
C473   C     0.47383   0.35807   0.47003   0.00000  Uiso   1.00
C474   C     0.52617   0.64193   0.52997   0.00000  Uiso   1.00
C475   C     0.52617   0.35816   0.52997   0.00000  Uiso   1.00
C476   C     0.47383   0.64184   0.47003   0.00000  Uiso   1.00
C477   C     0.57918   0.50000   0.50003   0.00000  Uiso   1.00
C478   C     0.49998   0.49998   0.40688   0.00000  Uiso   1.00
C479   C     0.50002   0.50002   0.59312   0.00000  Uiso   1.00
C480   C     0.49999   0.49998   0.35518   0.00000  Uiso   1.00
C481   C     0.50001   0.50002   0.64482   0.00000  Uiso   1.00
C482   C     0.35500   0.47862   0.53892   0.00000  Uiso   1.00
C483   C     0.64500   0.52138   0.46108   0.00000  Uiso   1.00
C484   C     0.64522   0.47863   0.53894   0.00000  Uiso   1.00
Cl485  Cl    0.38232   0.45351   0.58879   0.00000  Uiso   1.00
Cl486  Cl    0.61768   0.54649   0.41121   0.00000  Uiso   1.00
Cl487  Cl    0.61817   0.45354   0.58884   0.00000  Uiso   1.00
Cl488  Cl    0.38183   0.54646   0.41116   0.00000  Uiso   1.00
Cu489  Cu    0.50000   0.54689   0.50000   0.00000  Uiso   1.00
Cu490  Cu    0.50000   0.45311   0.50000   0.00000  Uiso   1.00
H491   H     0.45285   0.37668   0.44599   0.00000  Uiso   1.00
H492   H     0.54715   0.62332   0.55401   0.00000  Uiso   1.00
H493   H     0.54714   0.37682   0.55402   0.00000  Uiso   1.00
H494   H     0.45286   0.62318   0.44598   0.00000  Uiso   1.00
N495   N     0.50000   0.61736   0.50000   0.00000  Uiso   1.00
N496   N     0.50000   0.38264   0.50000   0.00000  Uiso   1.00
O497   O     0.43988   0.53958   0.50000   0.00000  Uiso   1.00
O498   O     0.56012   0.46042   0.50000   0.00000  Uiso   1.00
O499   O     0.56012   0.53958   0.50000   0.00000  Uiso   1.00
O500   O     0.43988   0.46042   0.50000   0.00000  Uiso   1.00
O501   O     0.50000   0.53959   0.42946   0.00000  Uiso   1.00
O502   O     0.50000   0.46041   0.57054   0.00000  Uiso   1.00
O503   O     0.50000   0.53959   0.57054   0.00000  Uiso   1.00
O504   O     0.50000   0.46041   0.42946   0.00000  Uiso   1.00
C505   C     0.75415   0.50000   0.49997   0.00000  Uiso   1.00
C506   C     0.68811   0.52137   0.46106   0.00000  Uiso   1.00
C507   C     0.95713   0.50001   0.50002   0.00000  Uiso   1.00
C508   C     0.70954   0.49999   0.49998   0.00000  Uiso   1.00
C509   C     0.80716   0.35807   0.47003   0.00000  Uiso   1.00
C510   C     0.85950   0.64193   0.52997   0.00000  Uiso   1.00
C511   C     0.85950   0.35816   0.52997   0.00000  Uiso   1.00
C512   C     0.80717   0.64184   0.47003   0.00000  Uiso   1.00
C513   C     0.91252   0.50000   0.50003   0.00000  Uiso   1.00
C514   C     0.83331   0.49998   0.40688   0.00000  Uiso   1.00
C515   C     0.83335   0.50002   0.59312   0.00000  Uiso   1.00
C516   C     0.83333   0.49998   0.35518   0.00000  Uiso   1.00
C517   C     0.83334   0.50002   0.64482   0.00000  Uiso   1.00
C518   C     0.68833   0.47862   0.53892   0.00000  Uiso   1.00
C519   C     0.97834   0.52138   0.46108   0.00000  Uiso   1.00
C520   C     0.97855   0.47863   0.53894   0.00000  Uiso   1.00
Cl521  Cl    0.71566   0.45351   0.58879   0.00000  Uiso   1.00
Cl522  Cl    0.95101   0.54649   0.41121   0.00000  Uiso   1.00
Cl523  Cl    0.95151   0.45354   0.58884   0.00000  Uiso   1.00
Cl524  Cl    0.71516   0.54646   0.41116   0.00000  Uiso   1.00
Cu525  Cu    0.83333   0.54689   0.50000   0.00000  Uiso   1.00
Cu526  Cu    0.83333   0.45311   0.50000   0.00000  Uiso   1.00
H527   H     0.78618   0.37668   0.44599   0.00000  Uiso   1.00
H528   H     0.88048   0.62332   0.55401   0.00000  Uiso   1.00
H529   H     0.88047   0.37682   0.55402   0.00000  Uiso   1.00
H530   H     0.78619   0.62318   0.44598   0.00000  Uiso   1.00
N531   N     0.83333   0.61736   0.50000   0.00000  Uiso   1.00
N532   N     0.83333   0.38264   0.50000   0.00000  Uiso   1.00
O533   O     0.77321   0.53958   0.50000   0.00000  Uiso   1.00
O534   O     0.89345   0.46042   0.50000   0.00000  Uiso   1.00
O535   O     0.89345   0.53958   0.50000   0.00000  Uiso   1.00
O536   O     0.77321   0.46042   0.50000   0.00000  Uiso   1.00
O537   O     0.83333   0.53959   0.42946   0.00000  Uiso   1.00
O538   O     0.83333   0.46041   0.57054   0.00000  Uiso   1.00
O539   O     0.83333   0.53959   0.57054   0.00000  Uiso   1.00
O540   O     0.83333   0.46041   0.42946   0.00000  Uiso   1.00
C541   C     0.08748   0.83333   0.49997   0.00000  Uiso   1.00
C542   C     0.02145   0.85470   0.46106   0.00000  Uiso   1.00
C543   C     0.29046   0.83334   0.50002   0.00000  Uiso   1.00
C544   C     0.04287   0.83332   0.49998   0.00000  Uiso   1.00
C545   C     0.14050   0.69141   0.47003   0.00000  Uiso   1.00
C546   C     0.19284   0.97526   0.52997   0.00000  Uiso   1.00
C547   C     0.19283   0.69149   0.52997   0.00000  Uiso   1.00
C548   C     0.14050   0.97518   0.47003   0.00000  Uiso   1.00
C549   C     0.24585   0.83334   0.50003   0.00000  Uiso   1.00
C550   C     0.16665   0.83332   0.40688   0.00000  Uiso   1.00
C551   C     0.16669   0.83335   0.59312   0.00000  Uiso   1.00
C552   C     0.16666   0.83331   0.35518   0.00000  Uiso   1.00
C553   C     0.16667   0.83336   0.64482   0.00000  Uiso   1.00
C554   C     0.02166   0.81195   0.53892   0.00000  Uiso   1.00
C555   C     0.31167   0.85471   0.46108   0.00000  Uiso   1.00
C556   C     0.31189   0.81196   0.53894   0.00000  Uiso   1.00
Cl557  Cl    0.04899   0.78684   0.58879   0.00000  Uiso   1.00
Cl558  Cl    0.28434   0.87982   0.41121   0.00000  Uiso   1.00
Cl559  Cl    0.28484   0.78687   0.58884   0.00000  Uiso   1.00
Cl560  Cl    0.04849   0.87979   0.41116   0.00000  Uiso   1.00
Cu561  Cu    0.16667   0.88022   0.50000   0.00000  Uiso   1.00
Cu562  Cu    0.16667   0.78645   0.50000   0.00000  Uiso   1.00
H563   H     0.11952   0.71001   0.44599   0.00000  Uiso   1.00
H564   H     0.21382   0.95666   0.55401   0.00000  Uiso   1.00
H565   H     0.21381   0.71016   0.55402   0.00000  Uiso   1.00
H566   H     0.11953   0.95651   0.44598   0.00000  Uiso   1.00
N567   N     0.16667   0.95069   0.50000   0.00000  Uiso   1.00
N568   N     0.16667   0.71598   0.50000   0.00000  Uiso   1.00
O569   O     0.10655   0.87291   0.50000   0.00000  Uiso   1.00
O570   O     0.22679   0.79375   0.50000   0.00000  Uiso   1.00
O571   O     0.22679   0.87291   0.50000   0.00000  Uiso   1.00
O572   O     0.10655   0.79375   0.50000   0.00000  Uiso   1.00
O573   O     0.16667   0.87292   0.42946   0.00000  Uiso   1.00
O574   O     0.16667   0.79375   0.57054   0.00000  Uiso   1.00
O575   O     0.16667   0.87292   0.57054   0.00000  Uiso   1.00
O576   O     0.16667   0.79375   0.42946   0.00000  Uiso   1.00
C577   C     0.42082   0.83333   0.49997   0.00000  Uiso   1.00
C578   C     0.35478   0.85470   0.46106   0.00000  Uiso   1.00
C579   C     0.62380   0.83334   0.50002   0.00000  Uiso   1.00
C580   C     0.37620   0.83332   0.49998   0.00000  Uiso   1.00
C581   C     0.47383   0.69141   0.47003   0.00000  Uiso   1.00
C582   C     0.52617   0.97526   0.52997   0.00000  Uiso   1.00
C583   C     0.52617   0.69149   0.52997   0.00000  Uiso   1.00
C584   C     0.47383   0.97518   0.47003   0.00000  Uiso   1.00
C585   C     0.57918   0.83334   0.50003   0.00000  Uiso   1.00
C586   C     0.49998   0.83332   0.40688   0.00000  Uiso   1.00
C587   C     0.50002   0.83335   0.59312   0.00000  Uiso   1.00
C588   C     0.49999   0.83331   0.35518   0.00000  Uiso   1.00
C589   C     0.50001   0.83336   0.64482   0.00000  Uiso   1.00
C590   C     0.35500   0.81195   0.53892   0.00000  Uiso   1.00
C591   C     0.64500   0.85471   0.46108   0.00000  Uiso   1.00
C592   C     0.64522   0.81196   0.53894   0.00000  Uiso   1.00
Cl593  Cl    0.38232   0.78684   0.58879   0.00000  Uiso   1.00
Cl594  Cl    0.61768   0.87982   0.41121   0.00000  Uiso   1.00
Cl595  Cl    0.61817   0.78687   0.58884   0.00000  Uiso   1.00
Cl596  Cl    0.38183   0.87979   0.41116   0.00000  Uiso   1.00
Cu597  Cu    0.50000   0.88022   0.50000   0.00000  Uiso   1.00
Cu598  Cu    0.50000   0.78645   0.50000   0.00000  Uiso   1.00
H599   H     0.45285   0.71001   0.44599   0.00000  Uiso   1.00
H600   H     0.54715   0.95666   0.55401   0.00000  Uiso   1.00
H601   H     0.54714   0.71016   0.55402   0.00000  Uiso   1.00
H602   H     0.45286   0.95651   0.44598   0.00000  Uiso   1.00
N603   N     0.50000   0.95069   0.50000   0.00000  Uiso   1.00
N604   N     0.50000   0.71598   0.50000   0.00000  Uiso   1.00
O605   O     0.43988   0.87291   0.50000   0.00000  Uiso   1.00
O606   O     0.56012   0.79375   0.50000   0.00000  Uiso   1.00
O607   O     0.56012   0.87291   0.50000   0.00000  Uiso   1.00
O608   O     0.43988   0.79375   0.50000   0.00000  Uiso   1.00
O609   O     0.50000   0.87292   0.42946   0.00000  Uiso   1.00
O610   O     0.50000   0.79375   0.57054   0.00000  Uiso   1.00
O611   O     0.50000   0.87292   0.57054   0.00000  Uiso   1.00
O612   O     0.50000   0.79375   0.42946   0.00000  Uiso   1.00
C613   C     0.75415   0.83333   0.49997   0.00000  Uiso   1.00
C614   C     0.68811   0.85470   0.46106   0.00000  Uiso   1.00
C615   C     0.95713   0.83334   0.50002   0.00000  Uiso   1.00
C616   C     0.70954   0.83332   0.49998   0.00000  Uiso   1.00
C617   C     0.80716   0.69141   0.47003   0.00000  Uiso   1.00
C618   C     0.85950   0.97526   0.52997   0.00000  Uiso   1.00
C619   C     0.85950   0.69149   0.52997   0.00000  Uiso   1.00
C620   C     0.80717   0.97518   0.47003   0.00000  Uiso   1.00
C621   C     0.91252   0.83334   0.50003   0.00000  Uiso   1.00
C622   C     0.83331   0.83332   0.40688   0.00000  Uiso   1.00
C623   C     0.83335   0.83335   0.59312   0.00000  Uiso   1.00
C624   C     0.83333   0.83331   0.35518   0.00000  Uiso   1.00
C625   C     0.83334   0.83336   0.64482   0.00000  Uiso   1.00
C626   C     0.68833   0.81195   0.53892   0.00000  Uiso   1.00
C627   C     0.97834   0.85471   0.46108   0.00000  Uiso   1.00
C628   C     0.97855   0.81196   0.53894   0.00000  Uiso   1.00
Cl629  Cl    0.71566   0.78684   0.58879   0.00000  Uiso   1.00
Cl630  Cl    0.95101   0.87982   0.41121   0.00000  Uiso   1.00
Cl631  Cl    0.95151   0.78687   0.58884   0.00000  Uiso   1.00
Cl632  Cl    0.71516   0.87979   0.41116   0.00000  Uiso   1.00
Cu633  Cu    0.83333   0.88022   0.50000   0.00000  Uiso   1.00
Cu634  Cu    0.83333   0.78645   0.50000   0.00000  Uiso   1.00
H635   H     0.78618   0.71001   0.44599   0.00000  Uiso   1.00
H636   H     0.88048   0.95666   0.55401   0.00000  Uiso   1.00
H637   H     0.88047   0.71016   0.55402   0.00000  Uiso   1.00
H638   H     0.78619   0.95651   0.44598   0.00000  Uiso   1.00
N639   N     0.83333   0.95069   0.50000   0.00000  Uiso   1.00
N640   N     0.83333   0.71598   0.50000   0.00000  Uiso   1.00
O641   O     0.77321   0.87291   0.50000   0.00000  Uiso   1.00
O642   O     0.89345   0.79375   0.50000   0.00000  Uiso   1.00
O643   O     0.89345   0.87291   0.50000   0.00000  Uiso   1.00
O644   O     0.77321   0.79375   0.50000   0.00000  Uiso   1.00
O645   O     0.83333   0.87292   0.42946   0.00000  Uiso   1.00
O646   O     0.83333   0.79375   0.57054   0.00000  Uiso   1.00
O647   O     0.83333   0.87292   0.57054   0.00000  Uiso   1.00
O648   O     0.83333   0.79375   0.42946   0.00000  Uiso   1.00
C649   C     0.08748   0.16666   0.83331   0.00000  Uiso   1.00
C650   C     0.02145   0.18804   0.79439   0.00000  Uiso   1.00
C651   C     0.29046   0.16668   0.83335   0.00000  Uiso   1.00
C652   C     0.04287   0.16666   0.83332   0.00000  Uiso   1.00
C653   C     0.14050   0.02474   0.80336   0.00000  Uiso   1.00
C654   C     0.19284   0.30859   0.86330   0.00000  Uiso   1.00
C655   C     0.19283   0.02482   0.86331   0.00000  Uiso   1.00
C656   C     0.14050   0.30851   0.80336   0.00000  Uiso   1.00
C657   C     0.24585   0.16667   0.83336   0.00000  Uiso   1.00
C658   C     0.16665   0.16665   0.74021   0.00000  Uiso   1.00
C659   C     0.16669   0.16668   0.92646   0.00000  Uiso   1.00
C660   C     0.16666   0.16664   0.68851   0.00000  Uiso   1.00
C661   C     0.16667   0.16669   0.97815   0.00000  Uiso   1.00
C662   C     0.02166   0.14529   0.87226   0.00000  Uiso   1.00
C663   C     0.31167   0.18805   0.79441   0.00000  Uiso   1.00
C664   C     0.31189   0.14530   0.87227   0.00000  Uiso   1.00
Cl665  Cl    0.04899   0.12018   0.92213   0.00000  Uiso   1.00
Cl666  Cl    0.28434   0.21316   0.74454   0.00000  Uiso   1.00
Cl667  Cl    0.28484   0.12021   0.92217   0.00000  Uiso   1.00
Cl668  Cl    0.04849   0.21313   0.74450   0.00000  Uiso   1.00
Cu669  Cu    0.16667   0.21355   0.83333   0.00000  Uiso   1.00
Cu670  Cu    0.16667   0.11978   0.83333   0.00000  Uiso   1.00
H671   H     0.11952   0.04334   0.77933   0.00000  Uiso   1.00
H672   H     0.21382   0.28999   0.88734   0.00000  Uiso   1.00
H673   H     0.21381   0.04349   0.88735   0.00000  Uiso   1.00
H674   H     0.11953   0.28985   0.77932   0.00000  Uiso   1.00
N675   N     0.16667   0.28402   0.83333   0.00000  Uiso   1.00
N676   N     0.16667   0.04931   0.83333   0.00000  Uiso   1.00
O677   O     0.10655   0.20625   0.83333   0.00000  Uiso   1.00
O678   O     0.22679   0.12709   0.83334   0.00000  Uiso   1.00
O679   O     0.22679   0.20625   0.83334   0.00000  Uiso   1.00
O680   O     0.10655   0.12709   0.83333   0.00000  Uiso   1.00
O681   O     0.16667   0.20625   0.76280   0.00000  Uiso   1.00
O682   O     0.16667   0.12708   0.90387   0.00000  Uiso   1.00
O683   O     0.16667   0.20625   0.90387   0.00000  Uiso   1.00
O684   O     0.16667   0.12708   0.76280   0.00000  Uiso   1.00
C685   C     0.42082   0.16666   0.83331   0.00000  Uiso   1.00
C686   C     0.35478   0.18804   0.79439   0.00000  Uiso   1.00
C687   C     0.62380   0.16668   0.83335   0.00000  Uiso   1.00
C688   C     0.37620   0.16666   0.83332   0.00000  Uiso   1.00
C689   C     0.47383   0.02474   0.80336   0.00000  Uiso   1.00
C690   C     0.52617   0.30859   0.86330   0.00000  Uiso   1.00
C691   C     0.52617   0.02482   0.86331   0.00000  Uiso   1.00
C692   C     0.47383   0.30851   0.80336   0.00000  Uiso   1.00
C693   C     0.57918   0.16667   0.83336   0.00000  Uiso   1.00
C694   C     0.49998   0.16665   0.74021   0.00000  Uiso   1.00
C695   C     0.50002   0.16668   0.92646   0.00000  Uiso   1.00
C696   C     0.49999   0.16664   0.68851   0.00000  Uiso   1.00
C697   C     0.50001   0.16669   0.97815   0.00000  Uiso   1.00
C698   C     0.35500   0.14529   0.87226   0.00000  Uiso   1.00
C699   C     0.64500   0.18805   0.79441   0.00000  Uiso   1.00
C700   C     0.64522   0.14530   0.87227   0.00000  Uiso   1.00
Cl701  Cl    0.38232   0.12018   0.92213   0.00000  Uiso   1.00
Cl702  Cl    0.61768   0.21316   0.74454   0.00000  Uiso   1.00
Cl703  Cl    0.61817   0.12021   0.92217   0.00000  Uiso   1.00
Cl704  Cl    0.38183   0.21313   0.74450   0.00000  Uiso   1.00
Cu705  Cu    0.50000   0.21355   0.83333   0.00000  Uiso   1.00
Cu706  Cu    0.50000   0.11978   0.83333   0.00000  Uiso   1.00
H707   H     0.45285   0.04334   0.77933   0.00000  Uiso   1.00
H708   H     0.54715   0.28999   0.88734   0.00000  Uiso   1.00
H709   H     0.54714   0.04349   0.88735   0.00000  Uiso   1.00
H710   H     0.45286   0.28985   0.77932   0.00000  Uiso   1.00
N711   N     0.50000   0.28402   0.83333   0.00000  Uiso   1.00
N712   N     0.50000   0.04931   0.83333   0.00000  Uiso   1.00
O713   O     0.43988   0.20625   0.83333   0.00000  Uiso   1.00
O714   O     0.56012   0.12709   0.83334   0.00000  Uiso   1.00
O715   O     0.56012   0.20625   0.83334   0.00000  Uiso   1.00
O716   O     0.43988   0.12709   0.83333   0.00000  Uiso   1.00
O717   O     0.50000   0.20625   0.76280   0.00000  Uiso   1.00
O718   O     0.50000   0.12708   0.90387   0.00000  Uiso   1.00
O719   O     0.50000   0.20625   0.90387   0.00000  Uiso   1.00
O720   O     0.50000   0.12708   0.76280   0.00000  Uiso   1.00
C721   C     0.75415   0.16666   0.83331   0.00000  Uiso   1.00
C722   C     0.68811   0.18804   0.79439   0.00000  Uiso   1.00
C723   C     0.95713   0.16668   0.83335   0.00000  Uiso   1.00
C724   C     0.70954   0.16666   0.83332   0.00000  Uiso   1.00
C725   C     0.80716   0.02474   0.80336   0.00000  Uiso   1.00
C726   C     0.85950   0.30859   0.86330   0.00000  Uiso   1.00
C727   C     0.85950   0.02482   0.86331   0.00000  Uiso   1.00
C728   C     0.80717   0.30851   0.80336   0.00000  Uiso   1.00
C729   C     0.91252   0.16667   0.83336   0.00000  Uiso   1.00
C730   C     0.83331   0.16665   0.74021   0.00000  Uiso   1.00
C731   C     0.83335   0.16668   0.92646   0.00000  Uiso   1.00
C732   C     0.83333   0.16664   0.68851   0.00000  Uiso   1.00
C733   C     0.83334   0.16669   0.97815   0.00000  Uiso   1.00
C734   C     0.68833   0.14529   0.87226   0.00000  Uiso   1.00
C735   C     0.97834   0.18805   0.79441   0.00000  Uiso   1.00
C736   C     0.97855   0.14530   0.87227   0.00000  Uiso   1.00
Cl737  Cl    0.71566   0.12018   0.92213   0.00000  Uiso   1.00
Cl738  Cl    0.95101   0.21316   0.74454   0.00000  Uiso   1.00
Cl739  Cl    0.95151   0.12021   0.92217   0.00000  Uiso   1.00
Cl740  Cl    0.71516   0.21313   0.74450   0.00000  Uiso   1.00
Cu741  Cu    0.83333   0.21355   0.83333   0.00000  Uiso   1.00
Cu742  Cu    0.83333   0.11978   0.83333   0.00000  Uiso   1.00
H743   H     0.78618   0.04334   0.77933   0.00000  Uiso   1.00
H744   H     0.88048   0.28999   0.88734   0.00000  Uiso   1.00
H745   H     0.88047   0.04349   0.88735   0.00000  Uiso   1.00
H746   H     0.78619   0.28985   0.77932   0.00000  Uiso   1.00
N747   N     0.83333   0.28402   0.83333   0.00000  Uiso   1.00
N748   N     0.83333   0.04931   0.83333   0.00000  Uiso   1.00
O749   O     0.77321   0.20625   0.83333   0.00000  Uiso   1.00
O750   O     0.89345   0.12709   0.83334   0.00000  Uiso   1.00
O751   O     0.89345   0.20625   0.83334   0.00000  Uiso   1.00
O752   O     0.77321   0.12709   0.83333   0.00000  Uiso   1.00
O753   O     0.83333   0.20625   0.76280   0.00000  Uiso   1.00
O754   O     0.83333   0.12708   0.90387   0.00000  Uiso   1.00
O755   O     0.83333   0.20625   0.90387   0.00000  Uiso   1.00
O756   O     0.83333   0.12708   0.76280   0.00000  Uiso   1.00
C757   C     0.08748   0.50000   0.83331   0.00000  Uiso   1.00
C758   C     0.02145   0.52137   0.79439   0.00000  Uiso   1.00
C759   C     0.29046   0.50001   0.83335   0.00000  Uiso   1.00
C760   C     0.04287   0.49999   0.83332   0.00000  Uiso   1.00
C761   C     0.14050   0.35807   0.80336   0.00000  Uiso   1.00
C762   C     0.19284   0.64193   0.86330   0.00000  Uiso   1.00
C763   C     0.19283   0.35816   0.86331   0.00000  Uiso   1.00
C764   C     0.14050   0.64184   0.80336   0.00000  Uiso   1.00
C765   C     0.24585   0.50000   0.83336   0.00000  Uiso   1.00
C766   C     0.16665   0.49998   0.74021   0.00000  Uiso   1.00
C767   C     0.16669   0.50002   0.92646   0.00000  Uiso   1.00
C768   C     0.16666   0.49998   0.68851   0.00000  Uiso   1.00
C769   C     0.16667   0.50002   0.97815   0.00000  Uiso   1.00
C770   C     0.02166   0.47862   0.87226   0.00000  Uiso   1.00
C771   C     0.31167   0.52138   0.79441   0.00000  Uiso   1.00
C772   C     0.31189   0.47863   0.87227   0.00000  Uiso   1.00
Cl773  Cl    0.04899   0.45351   0.92213   0.00000  Uiso   1.00
Cl774  Cl    0.28434   0.54649   0.74454   0.00000  Uiso   1.00
Cl775  Cl    0.28484   0.45354   0.92217   0.00000  Uiso   1.00
Cl776  Cl    0.04849   0.54646   0.74450   0.00000  Uiso   1.00
Cu777  Cu    0.16667   0.54689   0.83333   0.00000  Uiso   1.00
Cu778  Cu    0.16667   0.45311   0.83333   0.00000  Uiso   1.00
H779   H     0.11952   0.37668   0.77933   0.00000  Uiso   1.00
H780   H     0.21382   0.62332   0.88734   0.00000  Uiso   1.00
H781   H     0.21381   0.37682   0.88735   0.00000  Uiso   1.00
H782   H     0.11953   0.62318   0.77932   0.00000  Uiso   1.00
N783   N     0.16667   0.61736   0.83333   0.00000  Uiso   1.00
N784   N     0.16667   0.38264   0.83333   0.00000  Uiso   1.00
O785   O     0.10655   0.53958   0.83333   0.00000  Uiso   1.00
O786   O     0.22679   0.46042   0.83334   0.00000  Uiso   1.00
O787   O     0.22679   0.53958   0.83334   0.00000  Uiso   1.00
O788   O     0.10655   0.46042   0.83333   0.00000  Uiso   1.00
O789   O     0.16667   0.53959   0.76280   0.00000  Uiso   1.00
O790   O     0.16667   0.46041   0.90387   0.00000  Uiso   1.00
O791   O     0.16667   0.53959   0.90387   0.00000  Uiso   1.00
O792   O     0.16667   0.46041   0.76280   0.00000  Uiso   1.00
C793   C     0.42082   0.50000   0.83331   0.00000  Uiso   1.00
C794   C     0.35478   0.52137   0.79439   0.00000  Uiso   1.00
C795   C     0.62380   0.50001   0.83335   0.00000  Uiso   1.00
C796   C     0.37620   0.49999   0.83332   0.00000  Uiso   1.00
C797   C     0.47383   0.35807   0.80336   0.00000  Uiso   1.00
C798   C     0.52617   0.64193   0.86330   0.00000  Uiso   1.00
C799   C     0.52617   0.35816   0.86331   0.00000  Uiso   1.00
C800   C     0.47383   0.64184   0.80336   0.00000  Uiso   1.00
C801   C     0.57918   0.50000   0.83336   0.00000  Uiso   1.00
C802   C     0.49998   0.49998   0.74021   0.00000  Uiso   1.00
C803   C     0.50002   0.50002   0.92646   0.00000  Uiso   1.00
C804   C     0.49999   0.49998   0.68851   0.00000  Uiso   1.00
C805   C     0.50001   0.50002   0.97815   0.00000  Uiso   1.00
C806   C     0.35500   0.47862   0.87226   0.00000  Uiso   1.00
C807   C     0.64500   0.52138   0.79441   0.00000  Uiso   1.00
C808   C     0.64522   0.47863   0.87227   0.00000  Uiso   1.00
Cl809  Cl    0.38232   0.45351   0.92213   0.00000  Uiso   1.00
Cl810  Cl    0.61768   0.54649   0.74454   0.00000  Uiso   1.00
Cl811  Cl    0.61817   0.45354   0.92217   0.00000  Uiso   1.00
Cl812  Cl    0.38183   0.54646   0.74450   0.00000  Uiso   1.00
Cu813  Cu    0.50000   0.54689   0.83333   0.00000  Uiso   1.00
Cu814  Cu    0.50000   0.45311   0.83333   0.00000  Uiso   1.00
H815   H     0.45285   0.37668   0.77933   0.00000  Uiso   1.00
H816   H     0.54715   0.62332   0.88734   0.00000  Uiso   1.00
H817   H     0.54714   0.37682   0.88735   0.00000  Uiso   1.00
H818   H     0.45286   0.62318   0.77932   0.00000  Uiso   1.00
N819   N     0.50000   0.61736   0.83333   0.00000  Uiso   1.00
N820   N     0.50000   0.38264   0.83333   0.00000  Uiso   1.00
O821   O     0.43988   0.53958   0.83333   0.00000  Uiso   1.00
O822   O     0.56012   0.46042   0.83334   0.00000  Uiso   1.00
O823   O     0.56012   0.53958   0.83334   0.00000  Uiso   1.00
O824   O     0.43988   0.46042   0.83333   0.00000  Uiso   1.00
O825   O     0.50000   0.53959   0.76280   0.00000  Uiso   1.00
O826   O     0.50000   0.46041   0.90387   0.00000  Uiso   1.00
O827   O     0.50000   0.53959   0.90387   0.00000  Uiso   1.00
O828   O     0.50000   0.46041   0.76280   0.00000  Uiso   1.00
C829   C     0.75415   0.50000   0.83331   0.00000  Uiso   1.00
C830   C     0.68811   0.52137   0.79439   0.00000  Uiso   1.00
C831   C     0.95713   0.50001   0.83335   0.00000  Uiso   1.00
C832   C     0.70954   0.49999   0.83332   0.00000  Uiso   1.00
C833   C     0.80716   0.35807   0.80336   0.00000  Uiso   1.00
C834   C     0.85950   0.64193   0.86330   0.00000  Uiso   1.00
C835   C     0.85950   0.35816   0.86331   0.00000  Uiso   1.00
C836   C     0.80717   0.64184   0.80336   0.00000  Uiso   1.00
C837   C     0.91252   0.50000   0.83336   0.00000  Uiso   1.00
C838   C     0.83331   0.49998   0.74021   0.00000  Uiso   1.00
C839   C     0.83335   0.50002   0.92646   0.00000  Uiso   1.00
C840   C     0.83333   0.49998   0.68851   0.00000  Uiso   1.00
C841   C     0.83334   0.50002   0.97815   0.00000  Uiso   1.00
C842   C     0.68833   0.47862   0.87226   0.00000  Uiso   1.00
C843   C     0.97834   0.52138   0.79441   0.00000  Uiso   1.00
C844   C     0.97855   0.47863   0.87227   0.00000  Uiso   1.00
Cl845  Cl    0.71566   0.45351   0.92213   0.00000  Uiso   1.00
Cl846  Cl    0.95101   0.54649   0.74454   0.00000  Uiso   1.00
Cl847  Cl    0.95151   0.45354   0.92217   0.00000  Uiso   1.00
Cl848  Cl    0.71516   0.54646   0.74450   0.00000  Uiso   1.00
Cu849  Cu    0.83333   0.54689   0.83333   0.00000  Uiso   1.00
Cu850  Cu    0.83333   0.45311   0.83333   0.00000  Uiso   1.00
H851   H     0.78618   0.37668   0.77933   0.00000  Uiso   1.00
H852   H     0.88048   0.62332   0.88734   0.00000  Uiso   1.00
H853   H     0.88047   0.37682   0.88735   0.00000  Uiso   1.00
H854   H     0.78619   0.62318   0.77932   0.00000  Uiso   1.00
N855   N     0.83333   0.61736   0.83333   0.00000  Uiso   1.00
N856   N     0.83333   0.38264   0.83333   0.00000  Uiso   1.00
O857   O     0.77321   0.53958   0.83333   0.00000  Uiso   1.00
O858   O     0.89345   0.46042   0.83334   0.00000  Uiso   1.00
O859   O     0.89345   0.53958   0.83334   0.00000  Uiso   1.00
O860   O     0.77321   0.46042   0.83333   0.00000  Uiso   1.00
O861   O     0.83333   0.53959   0.76280   0.00000  Uiso   1.00
O862   O     0.83333   0.46041   0.90387   0.00000  Uiso   1.00
O863   O     0.83333   0.53959   0.90387   0.00000  Uiso   1.00
O864   O     0.83333   0.46041   0.76280   0.00000  Uiso   1.00
C865   C     0.08748   0.83333   0.83331   0.00000  Uiso   1.00
C866   C     0.02145   0.85470   0.79439   0.00000  Uiso   1.00
C867   C     0.29046   0.83334   0.83335   0.00000  Uiso   1.00
C868   C     0.04287   0.83332   0.83332   0.00000  Uiso   1.00
C869   C     0.14050   0.69141   0.80336   0.00000  Uiso   1.00
C870   C     0.19284   0.97526   0.86330   0.00000  Uiso   1.00
C871   C     0.19283   0.69149   0.86331   0.00000  Uiso   1.00
C872   C     0.14050   0.97518   0.80336   0.00000  Uiso   1.00
C873   C     0.24585   0.83334   0.83336   0.00000  Uiso   1.00
C874   C     0.16665   0.83332   0.74021   0.00000  Uiso   1.00
C875   C     0.16669   0.83335   0.92646   0.00000  Uiso   1.00
C876   C     0.16666   0.83331   0.68851   0.00000  Uiso   1.00
C877   C     0.16667   0.83336   0.97815   0.00000  Uiso   1.00
C878   C     0.02166   0.81195   0.87226   0.00000  Uiso   1.00
C879   C     0.31167   0.85471   0.79441   0.00000  Uiso   1.00
C880   C     0.31189   0.81196   0.87227   0.00000  Uiso   1.00
Cl881  Cl    0.04899   0.78684   0.92213   0.00000  Uiso   1.00
Cl882  Cl    0.28434   0.87982   0.74454   0.00000  Uiso   1.00
Cl883  Cl    0.28484   0.78687   0.92217   0.00000  Uiso   1.00
Cl884  Cl    0.04849   0.87979   0.74450   0.00000  Uiso   1.00
Cu885  Cu    0.16667   0.88022   0.83333   0.00000  Uiso   1.00
Cu886  Cu    0.16667   0.78645   0.83333   0.00000  Uiso   1.00
H887   H     0.11952   0.71001   0.77933   0.00000  Uiso   1.00
H888   H     0.21382   0.95666   0.88734   0.00000  Uiso   1.00
H889   H     0.21381   0.71016   0.88735   0.00000  Uiso   1.00
H890   H     0.11953   0.95651   0.77932   0.00000  Uiso   1.00
N891   N     0.16667   0.95069   0.83333   0.00000  Uiso   1.00
N892   N     0.16667   0.71598   0.83333   0.00000  Uiso   1.00
O893   O     0.10655   0.87291   0.83333   0.00000  Uiso   1.00
O894   O     0.22679   0.79375   0.83334   0.00000  Uiso   1.00
O895   O     0.22679   0.87291   0.83334   0.00000  Uiso   1.00
O896   O     0.10655   0.79375   0.83333   0.00000  Uiso   1.00
O897   O     0.16667   0.87292   0.76280   0.00000  Uiso   1.00
O898   O     0.16667   0.79375   0.90387   0.00000  Uiso   1.00
O899   O     0.16667   0.87292   0.90387   0.00000  Uiso   1.00
O900   O     0.16667   0.79375   0.76280   0.00000  Uiso   1.00
C901   C     0.42082   0.83333   0.83331   0.00000  Uiso   1.00
C902   C     0.35478   0.85470   0.79439   0.00000  Uiso   1.00
C903   C     0.62380   0.83334   0.83335   0.00000  Uiso   1.00
C904   C     0.37620   0.83332   0.83332   0.00000  Uiso   1.00
C905   C     0.47383   0.69141   0.80336   0.00000  Uiso   1.00
C906   C     0.52617   0.97526   0.86330   0.00000  Uiso   1.00
C907   C     0.52617   0.69149   0.86331   0.00000  Uiso   1.00
C908   C     0.47383   0.97518   0.80336   0.00000  Uiso   1.00
C909   C     0.57918   0.83334   0.83336   0.00000  Uiso   1.00
C910   C     0.49998   0.83332   0.74021   0.00000  Uiso   1.00
C911   C     0.50002   0.83335   0.92646   0.00000  Uiso   1.00
C912   C     0.49999   0.83331   0.68851   0.00000  Uiso   1.00
C913   C     0.50001   0.83336   0.97815   0.00000  Uiso   1.00
C914   C     0.35500   0.81195   0.87226   0.00000  Uiso   1.00
C915   C     0.64500   0.85471   0.79441   0.00000  Uiso   1.00
C916   C     0.64522   0.81196   0.87227   0.00000  Uiso   1.00
Cl917  Cl    0.38232   0.78684   0.92213   0.00000  Uiso   1.00
Cl918  Cl    0.61768   0.87982   0.74454   0.00000  Uiso   1.00
Cl919  Cl    0.61817   0.78687   0.92217   0.00000  Uiso   1.00
Cl920  Cl    0.38183   0.87979   0.74450   0.00000  Uiso   1.00
Cu921  Cu    0.50000   0.88022   0.83333   0.00000  Uiso   1.00
Cu922  Cu    0.50000   0.78645   0.83333   0.00000  Uiso   1.00
H923   H     0.45285   0.71001   0.77933   0.00000  Uiso   1.00
H924   H     0.54715   0.95666   0.88734   0.00000  Uiso   1.00
H925   H     0.54714   0.71016   0.88735   0.00000  Uiso   1.00
H926   H     0.45286   0.95651   0.77932   0.00000  Uiso   1.00
N927   N     0.50000   0.95069   0.83333   0.00000  Uiso   1.00
N928   N     0.50000   0.71598   0.83333   0.00000  Uiso   1.00
O929   O     0.43988   0.87291   0.83333   0.00000  Uiso   1.00
O930   O     0.56012   0.79375   0.83334   0.00000  Uiso   1.00
O931   O     0.56012   0.87291   0.83334   0.00000  Uiso   1.00
O932   O     0.43988   0.79375   0.83333   0.00000  Uiso   1.00
O933   O     0.50000   0.87292   0.76280   0.00000  Uiso   1.00
O934   O     0.50000   0.79375   0.90387   0.00000  Uiso   1.00
O935   O     0.50000   0.87292   0.90387   0.00000  Uiso   1.00
O936   O     0.50000   0.79375   0.76280   0.00000  Uiso   1.00
C937   C     0.75415   0.83333   0.83331   0.00000  Uiso   1.00
C938   C     0.68811   0.85470   0.79439   0.00000  Uiso   1.00
C939   C     0.95713   0.83334   0.83335   0.00000  Uiso   1.00
C940   C     0.70954   0.83332   0.83332   0.00000  Uiso   1.00
C941   C     0.80716   0.69141   0.80336   0.00000  Uiso   1.00
C942   C     0.85950   0.97526   0.86330   0.00000  Uiso   1.00
C943   C     0.85950   0.69149   0.86331   0.00000  Uiso   1.00
C944   C     0.80717   0.97518   0.80336   0.00000  Uiso   1.00
C945   C     0.91252   0.83334   0.83336   0.00000  Uiso   1.00
C946   C     0.83331   0.83332   0.74021   0.00000  Uiso   1.00
C947   C     0.83335   0.83335   0.92646   0.00000  Uiso   1.00
C948   C     0.83333   0.83331   0.68851   0.00000  Uiso   1.00
C949   C     0.83334   0.83336   0.97815   0.00000  Uiso   1.00
C950   C     0.68833   0.81195   0.87226   0.00000  Uiso   1.00
C951   C     0.97834   0.85471   0.79441   0.00000  Uiso   1.00
C952   C     0.97855   0.81196   0.87227   0.00000  Uiso   1.00
Cl953  Cl    0.71566   0.78684   0.92213   0.00000  Uiso   1.00
Cl954  Cl    0.95101   0.87982   0.74454   0.00000  Uiso   1.00
Cl955  Cl    0.95151   0.78687   0.92217   0.00000  Uiso   1.00
Cl956  Cl    0.71516   0.87979   0.74450   0.00000  Uiso   1.00
Cu957  Cu    0.83333   0.88022   0.83333   0.00000  Uiso   1.00
Cu958  Cu    0.83333   0.78645   0.83333   0.00000  Uiso   1.00
H959   H     0.78618   0.71001   0.77933   0.00000  Uiso   1.00
H960   H     0.88048   0.95666   0.88734   0.00000  Uiso   1.00
H961   H     0.88047   0.71016   0.88735   0.00000  Uiso   1.00
H962   H     0.78619   0.95651   0.77932   0.00000  Uiso   1.00
N963   N     0.83333   0.95069   0.83333   0.00000  Uiso   1.00
N964   N     0.83333   0.71598   0.83333   0.00000  Uiso   1.00
O965   O     0.77321   0.87291   0.83333   0.00000  Uiso   1.00
O966   O     0.89345   0.79375   0.83334   0.00000  Uiso   1.00
O967   O     0.89345   0.87291   0.83334   0.00000  Uiso   1.00
O968   O     0.77321   0.79375   0.83333   0.00000  Uiso   1.00
O969   O     0.83333   0.87292   0.76280   0.00000  Uiso   1.00
O970   O     0.83333   0.79375   0.90387   0.00000  Uiso   1.00
O971   O     0.83333   0.87292   0.90387   0.00000  Uiso   1.00
O972   O     0.83333   0.79375   0.76280   0.00000  Uiso   1.00
loop_
_geom_bond_atom_site_label_1
_geom_bond_atom_site_label_2
_geom_bond_distance
_geom_bond_site_symmetry_2
_ccdc_geom_bond_type
C1     C4      1.443   .     S
C1     O29     1.289   .     A
C1     O32     1.289   .     A
C2     C4      1.405   .     A
C2     Cl20    1.771   .     S
C2     C87     1.394   1_455 S
C3     C9      1.443   .     S
C3     C15     1.405   .     A
C3     C16     1.405   .     A
C4     C14     1.405   .     A
C5     N28     1.368   .     A
C5     H23     1.082   .     S
C5     C224    1.418   1_545 S
C6     N27     1.368   .     A
C6     H24     1.082   .     S
C6     C115    1.418   .     S
C7     H25     1.082   .     S
C7     N28     1.368   .     A
C7     C222    1.418   1_545 S
C8     H26     1.082   .     S
C8     N27     1.368   .     A
C8     C113    1.418   .     S
C9     O30     1.289   .     A
C9     O31     1.289   .     A
C10    C12     1.408   .     S
C10    O33     1.289   .     A
C10    O36     1.289   .     A
C11    O35     1.289   .     A
C11    C13     1.408   .     S
C11    O34     1.289   .     A
C12    C661    1.190   1_554 S
C13    C336    1.190   .     S
C14    Cl17    1.771   .     S
C14    C88     1.394   1_455 S
C15    Cl18    1.771   .     S
C15    C38     1.394   .     S
C16    Cl19    1.771   .     S
C16    C50     1.394   .     S
Cu21   O35     1.933   .     S
Cu21   N27     2.016   .     S
Cu21   Cu22    2.683   .     S
Cu21   O31     1.955   .     S
Cu21   O33     1.932   .     S
Cu21   O29     1.955   .     S
Cu22   N28     2.016   .     S
Cu22   O32     1.955   .     S
Cu22   O34     1.932   .     S
Cu22   O30     1.955   .     S
Cu22   O36     1.933   .     S
C37    C40     1.443   .     S
C37    O65     1.289   .     A
C37    O68     1.289   .     A
C38    C40     1.405   .     A
C38    Cl56    1.771   .     S
C39    C45     1.443   .     S
C39    C51     1.405   .     A
C39    C52     1.405   .     A
C40    C50     1.405   .     A
C41    N64     1.368   .     A
C41    H59     1.082   .     S
C41    C260    1.418   1_545 S
C42    N63     1.368   .     A
C42    H60     1.082   .     S
C42    C151    1.418   .     S
C43    H61     1.082   .     S
C43    N64     1.368   .     A
C43    C258    1.418   1_545 S
C44    H62     1.082   .     S
C44    N63     1.368   .     A
C44    C149    1.418   .     S
C45    O66     1.289   .     A
C45    O67     1.289   .     A
C46    C48     1.408   .     S
C46    O69     1.289   .     A
C46    O72     1.289   .     A
C47    O71     1.289   .     A
C47    C49     1.408   .     S
C47    O70     1.289   .     A
C48    C697    1.190   1_554 S
C49    C372    1.190   .     S
C50    Cl53    1.771   .     S
C51    Cl54    1.771   .     S
C51    C74     1.394   .     S
C52    Cl55    1.771   .     S
C52    C86     1.394   .     S
Cu57   O71     1.933   .     S
Cu57   N63     2.016   .     S
Cu57   Cu58    2.683   .     S
Cu57   O67     1.955   .     S
Cu57   O69     1.932   .     S
Cu57   O65     1.955   .     S
Cu58   N64     2.016   .     S
Cu58   O68     1.955   .     S
Cu58   O70     1.932   .     S
Cu58   O66     1.955   .     S
Cu58   O72     1.933   .     S
C73    C76     1.443   .     S
C73    O101    1.289   .     A
C73    O104    1.289   .     A
C74    C76     1.405   .     A
C74    Cl92    1.771   .     S
C75    C81     1.443   .     S
C75    C87     1.405   .     A
C75    C88     1.405   .     A
C76    C86     1.405   .     A
C77    N100    1.368   .     A
C77    H95     1.082   .     S
C77    C296    1.418   1_545 S
C78    N99     1.368   .     A
C78    H96     1.082   .     S
C78    C187    1.418   .     S
C79    H97     1.082   .     S
C79    N100    1.368   .     A
C79    C294    1.418   1_545 S
C80    H98     1.082   .     S
C80    N99     1.368   .     A
C80    C185    1.418   .     S
C81    O102    1.289   .     A
C81    O103    1.289   .     A
C82    C84     1.408   .     S
C82    O105    1.289   .     A
C82    O108    1.289   .     A
C83    O107    1.289   .     A
C83    C85     1.408   .     S
C83    O106    1.289   .     A
C84    C733    1.190   1_554 S
C85    C408    1.190   .     S
C86    Cl89    1.771   .     S
C87    Cl90    1.771   .     S
C87    C2      1.394   1_655 S
C88    Cl91    1.771   .     S
C88    C14     1.394   1_655 S
Cu93   O107    1.933   .     S
Cu93   N99     2.016   .     S
Cu93   Cu94    2.683   .     S
Cu93   O103    1.955   .     S
Cu93   O105    1.932   .     S
Cu93   O101    1.955   .     S
Cu94   N100    2.016   .     S
Cu94   O104    1.955   .     S
Cu94   O106    1.932   .     S
Cu94   O102    1.955   .     S
Cu94   O108    1.933   .     S
C109   C112    1.443   .     S
C109   O137    1.289   .     A
C109   O140    1.289   .     A
C110   C112    1.405   .     A
C110   Cl128   1.771   .     S
C110   C195    1.394   1_455 S
C111   C117    1.443   .     S
C111   C123    1.405   .     A
C111   C124    1.405   .     A
C112   C122    1.405   .     A
C113   N136    1.368   .     A
C113   H131    1.082   .     S
C114   N135    1.368   .     A
C114   H132    1.082   .     S
C114   C223    1.418   .     S
C115   H133    1.082   .     S
C115   N136    1.368   .     A
C116   H134    1.082   .     S
C116   N135    1.368   .     A
C116   C221    1.418   .     S
C117   O138    1.289   .     A
C117   O139    1.289   .     A
C118   C120    1.408   .     S
C118   O141    1.289   .     A
C118   O144    1.289   .     A
C119   O143    1.289   .     A
C119   C121    1.408   .     S
C119   O142    1.289   .     A
C120   C769    1.190   1_554 S
C121   C444    1.190   .     S
C122   Cl125   1.771   .     S
C122   C196    1.394   1_455 S
C123   Cl126   1.771   .     S
C123   C146    1.394   .     S
C124   Cl127   1.771   .     S
C124   C158    1.394   .     S
Cu129  O143    1.933   .     S
Cu129  N135    2.016   .     S
Cu129  Cu130   2.683   .     S
Cu129  O139    1.955   .     S
Cu129  O141    1.932   .     S
Cu129  O137    1.955   .     S
Cu130  N136    2.016   .     S
Cu130  O140    1.955   .     S
Cu130  O142    1.932   .     S
Cu130  O138    1.955   .     S
Cu130  O144    1.933   .     S
C145   C148    1.443   .     S
C145   O173    1.289   .     A
C145   O176    1.289   .     A
C146   C148    1.405   .     A
C146   Cl164   1.771   .     S
C147   C153    1.443   .     S
C147   C159    1.405   .     A
C147   C160    1.405   .     A
C148   C158    1.405   .     A
C149   N172    1.368   .     A
C149   H167    1.082   .     S
C150   N171    1.368   .     A
C150   H168    1.082   .     S
C150   C259    1.418   .     S
C151   H169    1.082   .     S
C151   N172    1.368   .     A
C152   H170    1.082   .     S
C152   N171    1.368   .     A
C152   C257    1.418   .     S
C153   O174    1.289   .     A
C153   O175    1.289   .     A
C154   C156    1.408   .     S
C154   O177    1.289   .     A
C154   O180    1.289   .     A
C155   O179    1.289   .     A
C155   C157    1.408   .     S
C155   O178    1.289   .     A
C156   C805    1.190   1_554 S
C157   C480    1.190   .     S
C158   Cl161   1.771   .     S
C159   Cl162   1.771   .     S
C159   C182    1.394   .     S
C160   Cl163   1.771   .     S
C160   C194    1.394   .     S
Cu165  O179    1.933   .     S
Cu165  N171    2.016   .     S
Cu165  Cu166   2.683   .     S
Cu165  O175    1.955   .     S
Cu165  O177    1.932   .     S
Cu165  O173    1.955   .     S
Cu166  N172    2.016   .     S
Cu166  O176    1.955   .     S
Cu166  O178    1.932   .     S
Cu166  O174    1.955   .     S
Cu166  O180    1.933   .     S
C181   C184    1.443   .     S
C181   O209    1.289   .     A
C181   O212    1.289   .     A
C182   C184    1.405   .     A
C182   Cl200   1.771   .     S
C183   C189    1.443   .     S
C183   C195    1.405   .     A
C183   C196    1.405   .     A
C184   C194    1.405   .     A
C185   N208    1.368   .     A
C185   H203    1.082   .     S
C186   N207    1.368   .     A
C186   H204    1.082   .     S
C186   C295    1.418   .     S
C187   H205    1.082   .     S
C187   N208    1.368   .     A
C188   H206    1.082   .     S
C188   N207    1.368   .     A
C188   C293    1.418   .     S
C189   O210    1.289   .     A
C189   O211    1.289   .     A
C190   C192    1.408   .     S
C190   O213    1.289   .     A
C190   O216    1.289   .     A
C191   O215    1.289   .     A
C191   C193    1.408   .     S
C191   O214    1.289   .     A
C192   C841    1.190   1_554 S
C193   C516    1.190   .     S
C194   Cl197   1.771   .     S
C195   Cl198   1.771   .     S
C195   C110    1.394   1_655 S
C196   Cl199   1.771   .     S
C196   C122    1.394   1_655 S
Cu201  O215    1.933   .     S
Cu201  N207    2.016   .     S
Cu201  Cu202   2.683   .     S
Cu201  O211    1.955   .     S
Cu201  O213    1.932   .     S
Cu201  O209    1.955   .     S
Cu202  N208    2.016   .     S
Cu202  O212    1.955   .     S
Cu202  O214    1.932   .     S
Cu202  O210    1.955   .     S
Cu202  O216    1.933   .     S
C217   C220    1.443   .     S
C217   O245    1.289   .     A
C217   O248    1.289   .     A
C218   C220    1.405   .     A
C218   Cl236   1.771   .     S
C218   C303    1.394   1_455 S
C219   C225    1.443   .     S
C219   C231    1.405   .     A
C219   C232    1.405   .     A
C220   C230    1.405   .     A
C221   N244    1.368   .     A
C221   H239    1.082   .     S
C222   N243    1.368   .     A
C222   H240    1.082   .     S
C222   C7      1.418   1_565 S
C223   H241    1.082   .     S
C223   N244    1.368   .     A
C224   H242    1.082   .     S
C224   N243    1.368   .     A
C224   C5      1.418   1_565 S
C225   O246    1.289   .     A
C225   O247    1.289   .     A
C226   C228    1.408   .     S
C226   O249    1.289   .     A
C226   O252    1.289   .     A
C227   O251    1.289   .     A
C227   C229    1.408   .     S
C227   O250    1.289   .     A
C228   C877    1.190   1_554 S
C229   C552    1.190   .     S
C230   Cl233   1.771   .     S
C230   C304    1.394   1_455 S
C231   Cl234   1.771   .     S
C231   C254    1.394   .     S
C232   Cl235   1.771   .     S
C232   C266    1.394   .     S
Cu237  O251    1.933   .     S
Cu237  N243    2.016   .     S
Cu237  Cu238   2.683   .     S
Cu237  O247    1.955   .     S
Cu237  O249    1.932   .     S
Cu237  O245    1.955   .     S
Cu238  N244    2.016   .     S
Cu238  O248    1.955   .     S
Cu238  O250    1.932   .     S
Cu238  O246    1.955   .     S
Cu238  O252    1.933   .     S
C253   C256    1.443   .     S
C253   O281    1.289   .     A
C253   O284    1.289   .     A
C254   C256    1.405   .     A
C254   Cl272   1.771   .     S
C255   C261    1.443   .     S
C255   C267    1.405   .     A
C255   C268    1.405   .     A
C256   C266    1.405   .     A
C257   N280    1.368   .     A
C257   H275    1.082   .     S
C258   N279    1.368   .     A
C258   H276    1.082   .     S
C258   C43     1.418   1_565 S
C259   H277    1.082   .     S
C259   N280    1.368   .     A
C260   H278    1.082   .     S
C260   N279    1.368   .     A
C260   C41     1.418   1_565 S
C261   O282    1.289   .     A
C261   O283    1.289   .     A
C262   C264    1.408   .     S
C262   O285    1.289   .     A
C262   O288    1.289   .     A
C263   O287    1.289   .     A
C263   C265    1.408   .     S
C263   O286    1.289   .     A
C264   C913    1.190   1_554 S
C265   C588    1.190   .     S
C266   Cl269   1.771   .     S
C267   Cl270   1.771   .     S
C267   C290    1.394   .     S
C268   Cl271   1.771   .     S
C268   C302    1.394   .     S
Cu273  O287    1.933   .     S
Cu273  N279    2.016   .     S
Cu273  Cu274   2.683   .     S
Cu273  O283    1.955   .     S
Cu273  O285    1.932   .     S
Cu273  O281    1.955   .     S
Cu274  N280    2.016   .     S
Cu274  O284    1.955   .     S
Cu274  O286    1.932   .     S
Cu274  O282    1.955   .     S
Cu274  O288    1.933   .     S
C289   C292    1.443   .     S
C289   O317    1.289   .     A
C289   O320    1.289   .     A
C290   C292    1.405   .     A
C290   Cl308   1.771   .     S
C291   C297    1.443   .     S
C291   C303    1.405   .     A
C291   C304    1.405   .     A
C292   C302    1.405   .     A
C293   N316    1.368   .     A
C293   H311    1.082   .     S
C294   N315    1.368   .     A
C294   H312    1.082   .     S
C294   C79     1.418   1_565 S
C295   H313    1.082   .     S
C295   N316    1.368   .     A
C296   H314    1.082   .     S
C296   N315    1.368   .     A
C296   C77     1.418   1_565 S
C297   O318    1.289   .     A
C297   O319    1.289   .     A
C298   C300    1.408   .     S
C298   O321    1.289   .     A
C298   O324    1.289   .     A
C299   O323    1.289   .     A
C299   C301    1.408   .     S
C299   O322    1.289   .     A
C300   C949    1.190   1_554 S
C301   C624    1.190   .     S
C302   Cl305   1.771   .     S
C303   Cl306   1.771   .     S
C303   C218    1.394   1_655 S
C304   Cl307   1.771   .     S
C304   C230    1.394   1_655 S
Cu309  O323    1.933   .     S
Cu309  N315    2.016   .     S
Cu309  Cu310   2.683   .     S
Cu309  O319    1.955   .     S
Cu309  O321    1.932   .     S
Cu309  O317    1.955   .     S
Cu310  N316    2.016   .     S
Cu310  O320    1.955   .     S
Cu310  O322    1.932   .     S
Cu310  O318    1.955   .     S
Cu310  O324    1.933   .     S
C325   C328    1.443   .     S
C325   O353    1.289   .     A
C325   O356    1.289   .     A
C326   C328    1.405   .     A
C326   Cl344   1.771   .     S
C326   C411    1.394   1_455 S
C327   C333    1.443   .     S
C327   C339    1.405   .     A
C327   C340    1.405   .     A
C328   C338    1.405   .     A
C329   N352    1.368   .     A
C329   H347    1.082   .     S
C329   C548    1.418   1_545 S
C330   N351    1.368   .     A
C330   H348    1.082   .     S
C330   C439    1.418   .     S
C331   H349    1.082   .     S
C331   N352    1.368   .     A
C331   C546    1.418   1_545 S
C332   H350    1.082   .     S
C332   N351    1.368   .     A
C332   C437    1.418   .     S
C333   O354    1.289   .     A
C333   O355    1.289   .     A
C334   C336    1.408   .     S
C334   O357    1.289   .     A
C334   O360    1.289   .     A
C335   O359    1.289   .     A
C335   C337    1.408   .     S
C335   O358    1.289   .     A
C337   C660    1.190   .     S
C338   Cl341   1.771   .     S
C338   C412    1.394   1_455 S
C339   Cl342   1.771   .     S
C339   C362    1.394   .     S
C340   Cl343   1.771   .     S
C340   C374    1.394   .     S
Cu345  O359    1.933   .     S
Cu345  N351    2.016   .     S
Cu345  Cu346   2.683   .     S
Cu345  O355    1.955   .     S
Cu345  O357    1.932   .     S
Cu345  O353    1.955   .     S
Cu346  N352    2.016   .     S
Cu346  O356    1.955   .     S
Cu346  O358    1.932   .     S
Cu346  O354    1.955   .     S
Cu346  O360    1.933   .     S
C361   C364    1.443   .     S
C361   O389    1.289   .     A
C361   O392    1.289   .     A
C362   C364    1.405   .     A
C362   Cl380   1.771   .     S
C363   C369    1.443   .     S
C363   C375    1.405   .     A
C363   C376    1.405   .     A
C364   C374    1.405   .     A
C365   N388    1.368   .     A
C365   H383    1.082   .     S
C365   C584    1.418   1_545 S
C366   N387    1.368   .     A
C366   H384    1.082   .     S
C366   C475    1.418   .     S
C367   H385    1.082   .     S
C367   N388    1.368   .     A
C367   C582    1.418   1_545 S
C368   H386    1.082   .     S
C368   N387    1.368   .     A
C368   C473    1.418   .     S
C369   O390    1.289   .     A
C369   O391    1.289   .     A
C370   C372    1.408   .     S
C370   O393    1.289   .     A
C370   O396    1.289   .     A
C371   O395    1.289   .     A
C371   C373    1.408   .     S
C371   O394    1.289   .     A
C373   C696    1.190   .     S
C374   Cl377   1.771   .     S
C375   Cl378   1.771   .     S
C375   C398    1.394   .     S
C376   Cl379   1.771   .     S
C376   C410    1.394   .     S
Cu381  O395    1.933   .     S
Cu381  N387    2.016   .     S
Cu381  Cu382   2.683   .     S
Cu381  O391    1.955   .     S
Cu381  O393    1.932   .     S
Cu381  O389    1.955   .     S
Cu382  N388    2.016   .     S
Cu382  O392    1.955   .     S
Cu382  O394    1.932   .     S
Cu382  O390    1.955   .     S
Cu382  O396    1.933   .     S
C397   C400    1.443   .     S
C397   O425    1.289   .     A
C397   O428    1.289   .     A
C398   C400    1.405   .     A
C398   Cl416   1.771   .     S
C399   C405    1.443   .     S
C399   C411    1.405   .     A
C399   C412    1.405   .     A
C400   C410    1.405   .     A
C401   N424    1.368   .     A
C401   H419    1.082   .     S
C401   C620    1.418   1_545 S
C402   N423    1.368   .     A
C402   H420    1.082   .     S
C402   C511    1.418   .     S
C403   H421    1.082   .     S
C403   N424    1.368   .     A
C403   C618    1.418   1_545 S
C404   H422    1.082   .     S
C404   N423    1.368   .     A
C404   C509    1.418   .     S
C405   O426    1.289   .     A
C405   O427    1.289   .     A
C406   C408    1.408   .     S
C406   O429    1.289   .     A
C406   O432    1.289   .     A
C407   O431    1.289   .     A
C407   C409    1.408   .     S
C407   O430    1.289   .     A
C409   C732    1.190   .     S
C410   Cl413   1.771   .     S
C411   Cl414   1.771   .     S
C411   C326    1.394   1_655 S
C412   Cl415   1.771   .     S
C412   C338    1.394   1_655 S
Cu417  O431    1.933   .     S
Cu417  N423    2.016   .     S
Cu417  Cu418   2.683   .     S
Cu417  O427    1.955   .     S
Cu417  O429    1.932   .     S
Cu417  O425    1.955   .     S
Cu418  N424    2.016   .     S
Cu418  O428    1.955   .     S
Cu418  O430    1.932   .     S
Cu418  O426    1.955   .     S
Cu418  O432    1.933   .     S
C433   C436    1.443   .     S
C433   O461    1.289   .     A
C433   O464    1.289   .     A
C434   C436    1.405   .     A
C434   Cl452   1.771   .     S
C434   C519    1.394   1_455 S
C435   C441    1.443   .     S
C435   C447    1.405   .     A
C435   C448    1.405   .     A
C436   C446    1.405   .     A
C437   N460    1.368   .     A
C437   H455    1.082   .     S
C438   N459    1.368   .     A
C438   H456    1.082   .     S
C438   C547    1.418   .     S
C439   H457    1.082   .     S
C439   N460    1.368   .     A
C440   H458    1.082   .     S
C440   N459    1.368   .     A
C440   C545    1.418   .     S
C441   O462    1.289   .     A
C441   O463    1.289   .     A
C442   C444    1.408   .     S
C442   O465    1.289   .     A
C442   O468    1.289   .     A
C443   O467    1.289   .     A
C443   C445    1.408   .     S
C443   O466    1.289   .     A
C445   C768    1.190   .     S
C446   Cl449   1.771   .     S
C446   C520    1.394   1_455 S
C447   Cl450   1.771   .     S
C447   C470    1.394   .     S
C448   Cl451   1.771   .     S
C448   C482    1.394   .     S
Cu453  O467    1.933   .     S
Cu453  N459    2.016   .     S
Cu453  Cu454   2.683   .     S
Cu453  O463    1.955   .     S
Cu453  O465    1.932   .     S
Cu453  O461    1.955   .     S
Cu454  N460    2.016   .     S
Cu454  O464    1.955   .     S
Cu454  O466    1.932   .     S
Cu454  O462    1.955   .     S
Cu454  O468    1.933   .     S
C469   C472    1.443   .     S
C469   O497    1.289   .     A
C469   O500    1.289   .     A
C470   C472    1.405   .     A
C470   Cl488   1.771   .     S
C471   C477    1.443   .     S
C471   C483    1.405   .     A
C471   C484    1.405   .     A
C472   C482    1.405   .     A
C473   N496    1.368   .     A
C473   H491    1.082   .     S
C474   N495    1.368   .     A
C474   H492    1.082   .     S
C474   C583    1.418   .     S
C475   H493    1.082   .     S
C475   N496    1.368   .     A
C476   H494    1.082   .     S
C476   N495    1.368   .     A
C476   C581    1.418   .     S
C477   O498    1.289   .     A
C477   O499    1.289   .     A
C478   C480    1.408   .     S
C478   O501    1.289   .     A
C478   O504    1.289   .     A
C479   O503    1.289   .     A
C479   C481    1.408   .     S
C479   O502    1.289   .     A
C481   C804    1.190   .     S
C482   Cl485   1.771   .     S
C483   Cl486   1.771   .     S
C483   C506    1.394   .     S
C484   Cl487   1.771   .     S
C484   C518    1.394   .     S
Cu489  O503    1.933   .     S
Cu489  N495    2.016   .     S
Cu489  Cu490   2.683   .     S
Cu489  O499    1.955   .     S
Cu489  O501    1.932   .     S
Cu489  O497    1.955   .     S
Cu490  N496    2.016   .     S
Cu490  O500    1.955   .     S
Cu490  O502    1.932   .     S
Cu490  O498    1.955   .     S
Cu490  O504    1.933   .     S
C505   C508    1.443   .     S
C505   O533    1.289   .     A
C505   O536    1.289   .     A
C506   C508    1.405   .     A
C506   Cl524   1.771   .     S
C507   C513    1.443   .     S
C507   C519    1.405   .     A
C507   C520    1.405   .     A
C508   C518    1.405   .     A
C509   N532    1.368   .     A
C509   H527    1.082   .     S
C510   N531    1.368   .     A
C510   H528    1.082   .     S
C510   C619    1.418   .     S
C511   H529    1.082   .     S
C511   N532    1.368   .     A
C512   H530    1.082   .     S
C512   N531    1.368   .     A
C512   C617    1.418   .     S
C513   O534    1.289   .     A
C513   O535    1.289   .     A
C514   C516    1.408   .     S
C514   O537    1.289   .     A
C514   O540    1.289   .     A
C515   O539    1.289   .     A
C515   C517    1.408   .     S
C515   O538    1.289   .     A
C517   C840    1.190   .     S
C518   Cl521   1.771   .     S
C519   Cl522   1.771   .     S
C519   C434    1.394   1_655 S
C520   Cl523   1.771   .     S
C520   C446    1.394   1_655 S
Cu525  O539    1.933   .     S
Cu525  N531    2.016   .     S
Cu525  Cu526   2.683   .     S
Cu525  O535    1.955   .     S
Cu525  O537    1.932   .     S
Cu525  O533    1.955   .     S
Cu526  N532    2.016   .     S
Cu526  O536    1.955   .     S
Cu526  O538    1.932   .     S
Cu526  O534    1.955   .     S
Cu526  O540    1.933   .     S
C541   C544    1.443   .     S
C541   O569    1.289   .     A
C541   O572    1.289   .     A
C542   C544    1.405   .     A
C542   Cl560   1.771   .     S
C542   C627    1.394   1_455 S
C543   C549    1.443   .     S
C543   C555    1.405   .     A
C543   C556    1.405   .     A
C544   C554    1.405   .     A
C545   N568    1.368   .     A
C545   H563    1.082   .     S
C546   N567    1.368   .     A
C546   H564    1.082   .     S
C546   C331    1.418   1_565 S
C547   H565    1.082   .     S
C547   N568    1.368   .     A
C548   H566    1.082   .     S
C548   N567    1.368   .     A
C548   C329    1.418   1_565 S
C549   O570    1.289   .     A
C549   O571    1.289   .     A
C550   C552    1.408   .     S
C550   O573    1.289   .     A
C550   O576    1.289   .     A
C551   O575    1.289   .     A
C551   C553    1.408   .     S
C551   O574    1.289   .     A
C553   C876    1.190   .     S
C554   Cl557   1.771   .     S
C554   C628    1.394   1_455 S
C555   Cl558   1.771   .     S
C555   C578    1.394   .     S
C556   Cl559   1.771   .     S
C556   C590    1.394   .     S
Cu561  O575    1.933   .     S
Cu561  N567    2.016   .     S
Cu561  Cu562   2.683   .     S
Cu561  O571    1.955   .     S
Cu561  O573    1.932   .     S
Cu561  O569    1.955   .     S
Cu562  N568    2.016   .     S
Cu562  O572    1.955   .     S
Cu562  O574    1.932   .     S
Cu562  O570    1.955   .     S
Cu562  O576    1.933   .     S
C577   C580    1.443   .     S
C577   O605    1.289   .     A
C577   O608    1.289   .     A
C578   C580    1.405   .     A
C578   Cl596   1.771   .     S
C579   C585    1.443   .     S
C579   C591    1.405   .     A
C579   C592    1.405   .     A
C580   C590    1.405   .     A
C581   N604    1.368   .     A
C581   H599    1.082   .     S
C582   N603    1.368   .     A
C582   H600    1.082   .     S
C582   C367    1.418   1_565 S
C583   H601    1.082   .     S
C583   N604    1.368   .     A
C584   H602    1.082   .     S
C584   N603    1.368   .     A
C584   C365    1.418   1_565 S
C585   O606    1.289   .     A
C585   O607    1.289   .     A
C586   C588    1.408   .     S
C586   O609    1.289   .     A
C586   O612    1.289   .     A
C587   O611    1.289   .     A
C587   C589    1.408   .     S
C587   O610    1.289   .     A
C589   C912    1.190   .     S
C590   Cl593   1.771   .     S
C591   Cl594   1.771   .     S
C591   C614    1.394   .     S
C592   Cl595   1.771   .     S
C592   C626    1.394   .     S
Cu597  O611    1.933   .     S
Cu597  N603    2.016   .     S
Cu597  Cu598   2.683   .     S
Cu597  O607    1.955   .     S
Cu597  O609    1.932   .     S
Cu597  O605    1.955   .     S
Cu598  N604    2.016   .     S
Cu598  O608    1.955   .     S
Cu598  O610    1.932   .     S
Cu598  O606    1.955   .     S
Cu598  O612    1.933   .     S
C613   C616    1.443   .     S
C613   O641    1.289   .     A
C613   O644    1.289   .     A
C614   C616    1.405   .     A
C614   Cl632   1.771   .     S
C615   C621    1.443   .     S
C615   C627    1.405   .     A
C615   C628    1.405   .     A
C616   C626    1.405   .     A
C617   N640    1.368   .     A
C617   H635    1.082   .     S
C618   N639    1.368   .     A
C618   H636    1.082   .     S
C618   C403    1.418   1_565 S
C619   H637    1.082   .     S
C619   N640    1.368   .     A
C620   H638    1.082   .     S
C620   N639    1.368   .     A
C620   C401    1.418   1_565 S
C621   O642    1.289   .     A
C621   O643    1.289   .     A
C622   C624    1.408   .     S
C622   O645    1.289   .     A
C622   O648    1.289   .     A
C623   O647    1.289   .     A
C623   C625    1.408   .     S
C623   O646    1.289   .     A
C625   C948    1.190   .     S
C626   Cl629   1.771   .     S
C627   Cl630   1.771   .     S
C627   C542    1.394   1_655 S
C628   Cl631   1.771   .     S
C628   C554    1.394   1_655 S
Cu633  O647    1.933   .     S
Cu633  N639    2.016   .     S
Cu633  Cu634   2.683   .     S
Cu633  O643    1.955   .     S
Cu633  O645    1.932   .     S
Cu633  O641    1.955   .     S
Cu634  N640    2.016   .     S
Cu634  O644    1.955   .     S
Cu634  O646    1.932   .     S
Cu634  O642    1.955   .     S
Cu634  O648    1.933   .     S
C649   C652    1.443   .     S
C649   O677    1.289   .     A
C649   O680    1.289   .     A
C650   C652    1.405   .     A
C650   Cl668   1.771   .     S
C650   C735    1.394   1_455 S
C651   C657    1.443   .     S
C651   C663    1.405   .     A
C651   C664    1.405   .     A
C652   C662    1.405   .     A
C653   N676    1.368   .     A
C653   H671    1.082   .     S
C653   C872    1.418   1_545 S
C654   N675    1.368   .     A
C654   H672    1.082   .     S
C654   C763    1.418   .     S
C655   H673    1.082   .     S
C655   N676    1.368   .     A
C655   C870    1.418   1_545 S
C656   H674    1.082   .     S
C656   N675    1.368   .     A
C656   C761    1.418   .     S
C657   O678    1.289   .     A
C657   O679    1.289   .     A
C658   C660    1.408   .     S
C658   O681    1.289   .     A
C658   O684    1.289   .     A
C659   O683    1.289   .     A
C659   C661    1.408   .     S
C659   O682    1.289   .     A
C661   C12     1.190   1_556 S
C662   Cl665   1.771   .     S
C662   C736    1.394   1_455 S
C663   Cl666   1.771   .     S
C663   C686    1.394   .     S
C664   Cl667   1.771   .     S
C664   C698    1.394   .     S
Cu669  O683    1.933   .     S
Cu669  N675    2.016   .     S
Cu669  Cu670   2.683   .     S
Cu669  O679    1.955   .     S
Cu669  O681    1.932   .     S
Cu669  O677    1.955   .     S
Cu670  N676    2.016   .     S
Cu670  O680    1.955   .     S
Cu670  O682    1.932   .     S
Cu670  O678    1.955   .     S
Cu670  O684    1.933   .     S
C685   C688    1.443   .     S
C685   O713    1.289   .     A
C685   O716    1.289   .     A
C686   C688    1.405   .     A
C686   Cl704   1.771   .     S
C687   C693    1.443   .     S
C687   C699    1.405   .     A
C687   C700    1.405   .     A
C688   C698    1.405   .     A
C689   N712    1.368   .     A
C689   H707    1.082   .     S
C689   C908    1.418   1_545 S
C690   N711    1.368   .     A
C690   H708    1.082   .     S
C690   C799    1.418   .     S
C691   H709    1.082   .     S
C691   N712    1.368   .     A
C691   C906    1.418   1_545 S
C692   H710    1.082   .     S
C692   N711    1.368   .     A
C692   C797    1.418   .     S
C693   O714    1.289   .     A
C693   O715    1.289   .     A
C694   C696    1.408   .     S
C694   O717    1.289   .     A
C694   O720    1.289   .     A
C695   O719    1.289   .     A
C695   C697    1.408   .     S
C695   O718    1.289   .     A
C697   C48     1.190   1_556 S
C698   Cl701   1.771   .     S
C699   Cl702   1.771   .     S
C699   C722    1.394   .     S
C700   Cl703   1.771   .     S
C700   C734    1.394   .     S
Cu705  O719    1.933   .     S
Cu705  N711    2.016   .     S
Cu705  Cu706   2.683   .     S
Cu705  O715    1.955   .     S
Cu705  O717    1.932   .     S
Cu705  O713    1.955   .     S
Cu706  N712    2.016   .     S
Cu706  O716    1.955   .     S
Cu706  O718    1.932   .     S
Cu706  O714    1.955   .     S
Cu706  O720    1.933   .     S
C721   C724    1.443   .     S
C721   O749    1.289   .     A
C721   O752    1.289   .     A
C722   C724    1.405   .     A
C722   Cl740   1.771   .     S
C723   C729    1.443   .     S
C723   C735    1.405   .     A
C723   C736    1.405   .     A
C724   C734    1.405   .     A
C725   N748    1.368   .     A
C725   H743    1.082   .     S
C725   C944    1.418   1_545 S
C726   N747    1.368   .     A
C726   H744    1.082   .     S
C726   C835    1.418   .     S
C727   H745    1.082   .     S
C727   N748    1.368   .     A
C727   C942    1.418   1_545 S
C728   H746    1.082   .     S
C728   N747    1.368   .     A
C728   C833    1.418   .     S
C729   O750    1.289   .     A
C729   O751    1.289   .     A
C730   C732    1.408   .     S
C730   O753    1.289   .     A
C730   O756    1.289   .     A
C731   O755    1.289   .     A
C731   C733    1.408   .     S
C731   O754    1.289   .     A
C733   C84     1.190   1_556 S
C734   Cl737   1.771   .     S
C735   Cl738   1.771   .     S
C735   C650    1.394   1_655 S
C736   Cl739   1.771   .     S
C736   C662    1.394   1_655 S
Cu741  O755    1.933   .     S
Cu741  N747    2.016   .     S
Cu741  Cu742   2.683   .     S
Cu741  O751    1.955   .     S
Cu741  O753    1.932   .     S
Cu741  O749    1.955   .     S
Cu742  N748    2.016   .     S
Cu742  O752    1.955   .     S
Cu742  O754    1.932   .     S
Cu742  O750    1.955   .     S
Cu742  O756    1.933   .     S
C757   C760    1.443   .     S
C757   O785    1.289   .     A
C757   O788    1.289   .     A
C758   C760    1.405   .     A
C758   Cl776   1.771   .     S
C758   C843    1.394   1_455 S
C759   C765    1.443   .     S
C759   C771    1.405   .     A
C759   C772    1.405   .     A
C760   C770    1.405   .     A
C761   N784    1.368   .     A
C761   H779    1.082   .     S
C762   N783    1.368   .     A
C762   H780    1.082   .     S
C762   C871    1.418   .     S
C763   H781    1.082   .     S
C763   N784    1.368   .     A
C764   H782    1.082   .     S
C764   N783    1.368   .     A
C764   C869    1.418   .     S
C765   O786    1.289   .     A
C765   O787    1.289   .     A
C766   C768    1.408   .     S
C766   O789    1.289   .     A
C766   O792    1.289   .     A
C767   O791    1.289   .     A
C767   C769    1.408   .     S
C767   O790    1.289   .     A
C769   C120    1.190   1_556 S
C770   Cl773   1.771   .     S
C770   C844    1.394   1_455 S
C771   Cl774   1.771   .     S
C771   C794    1.394   .     S
C772   Cl775   1.771   .     S
C772   C806    1.394   .     S
Cu777  O791    1.933   .     S
Cu777  N783    2.016   .     S
Cu777  Cu778   2.683   .     S
Cu777  O787    1.955   .     S
Cu777  O789    1.932   .     S
Cu777  O785    1.955   .     S
Cu778  N784    2.016   .     S
Cu778  O788    1.955   .     S
Cu778  O790    1.932   .     S
Cu778  O786    1.955   .     S
Cu778  O792    1.933   .     S
C793   C796    1.443   .     S
C793   O821    1.289   .     A
C793   O824    1.289   .     A
C794   C796    1.405   .     A
C794   Cl812   1.771   .     S
C795   C801    1.443   .     S
C795   C807    1.405   .     A
C795   C808    1.405   .     A
C796   C806    1.405   .     A
C797   N820    1.368   .     A
C797   H815    1.082   .     S
C798   N819    1.368   .     A
C798   H816    1.082   .     S
C798   C907    1.418   .     S
C799   H817    1.082   .     S
C799   N820    1.368   .     A
C800   H818    1.082   .     S
C800   N819    1.368   .     A
C800   C905    1.418   .     S
C801   O822    1.289   .     A
C801   O823    1.289   .     A
C802   C804    1.408   .     S
C802   O825    1.289   .     A
C802   O828    1.289   .     A
C803   O827    1.289   .     A
C803   C805    1.408   .     S
C803   O826    1.289   .     A
C805   C156    1.190   1_556 S
C806   Cl809   1.771   .     S
C807   Cl810   1.771   .     S
C807   C830    1.394   .     S
C808   Cl811   1.771   .     S
C808   C842    1.394   .     S
Cu813  O827    1.933   .     S
Cu813  N819    2.016   .     S
Cu813  Cu814   2.683   .     S
Cu813  O823    1.955   .     S
Cu813  O825    1.932   .     S
Cu813  O821    1.955   .     S
Cu814  N820    2.016   .     S
Cu814  O824    1.955   .     S
Cu814  O826    1.932   .     S
Cu814  O822    1.955   .     S
Cu814  O828    1.933   .     S
C829   C832    1.443   .     S
C829   O857    1.289   .     A
C829   O860    1.289   .     A
C830   C832    1.405   .     A
C830   Cl848   1.771   .     S
C831   C837    1.443   .     S
C831   C843    1.405   .     A
C831   C844    1.405   .     A
C832   C842    1.405   .     A
C833   N856    1.368   .     A
C833   H851    1.082   .     S
C834   N855    1.368   .     A
C834   H852    1.082   .     S
C834   C943    1.418   .     S
C835   H853    1.082   .     S
C835   N856    1.368   .     A
C836   H854    1.082   .     S
C836   N855    1.368   .     A
C836   C941    1.418   .     S
C837   O858    1.289   .     A
C837   O859    1.289   .     A
C838   C840    1.408   .     S
C838   O861    1.289   .     A
C838   O864    1.289   .     A
C839   O863    1.289   .     A
C839   C841    1.408   .     S
C839   O862    1.289   .     A
C841   C192    1.190   1_556 S
C842   Cl845   1.771   .     S
C843   Cl846   1.771   .     S
C843   C758    1.394   1_655 S
C844   Cl847   1.771   .     S
C844   C770    1.394   1_655 S
Cu849  O863    1.933   .     S
Cu849  N855    2.016   .     S
Cu849  Cu850   2.683   .     S
Cu849  O859    1.955   .     S
Cu849  O861    1.932   .     S
Cu849  O857    1.955   .     S
Cu850  N856    2.016   .     S
Cu850  O860    1.955   .     S
Cu850  O862    1.932   .     S
Cu850  O858    1.955   .     S
Cu850  O864    1.933   .     S
C865   C868    1.443   .     S
C865   O893    1.289   .     A
C865   O896    1.289   .     A
C866   C868    1.405   .     A
C866   Cl884   1.771   .     S
C866   C951    1.394   1_455 S
C867   C873    1.443   .     S
C867   C879    1.405   .     A
C867   C880    1.405   .     A
C868   C878    1.405   .     A
C869   N892    1.368   .     A
C869   H887    1.082   .     S
C870   N891    1.368   .     A
C870   H888    1.082   .     S
C870   C655    1.418   1_565 S
C871   H889    1.082   .     S
C871   N892    1.368   .     A
C872   H890    1.082   .     S
C872   N891    1.368   .     A
C872   C653    1.418   1_565 S
C873   O894    1.289   .     A
C873   O895    1.289   .     A
C874   C876    1.408   .     S
C874   O897    1.289   .     A
C874   O900    1.289   .     A
C875   O899    1.289   .     A
C875   C877    1.408   .     S
C875   O898    1.289   .     A
C877   C228    1.190   1_556 S
C878   Cl881   1.771   .     S
C878   C952    1.394   1_455 S
C879   Cl882   1.771   .     S
C879   C902    1.394   .     S
C880   Cl883   1.771   .     S
C880   C914    1.394   .     S
Cu885  O899    1.933   .     S
Cu885  N891    2.016   .     S
Cu885  Cu886   2.683   .     S
Cu885  O895    1.955   .     S
Cu885  O897    1.932   .     S
Cu885  O893    1.955   .     S
Cu886  N892    2.016   .     S
Cu886  O896    1.955   .     S
Cu886  O898    1.932   .     S
Cu886  O894    1.955   .     S
Cu886  O900    1.933   .     S
C901   C904    1.443   .     S
C901   O929    1.289   .     A
C901   O932    1.289   .     A
C902   C904    1.405   .     A
C902   Cl920   1.771   .     S
C903   C909    1.443   .     S
C903   C915    1.405   .     A
C903   C916    1.405   .     A
C904   C914    1.405   .     A
C905   N928    1.368   .     A
C905   H923    1.082   .     S
C906   N927    1.368   .     A
C906   H924    1.082   .     S
C906   C691    1.418   1_565 S
C907   H925    1.082   .     S
C907   N928    1.368   .     A
C908   H926    1.082   .     S
C908   N927    1.368   .     A
C908   C689    1.418   1_565 S
C909   O930    1.289   .     A
C909   O931    1.289   .     A
C910   C912    1.408   .     S
C910   O933    1.289   .     A
C910   O936    1.289   .     A
C911   O935    1.289   .     A
C911   C913    1.408   .     S
C911   O934    1.289   .     A
C913   C264    1.190   1_556 S
C914   Cl917   1.771   .     S
C915   Cl918   1.771   .     S
C915   C938    1.394   .     S
C916   Cl919   1.771   .     S
C916   C950    1.394   .     S
Cu921  O935    1.933   .     S
Cu921  N927    2.016   .     S
Cu921  Cu922   2.683   .     S
Cu921  O931    1.955   .     S
Cu921  O933    1.932   .     S
Cu921  O929    1.955   .     S
Cu922  N928    2.016   .     S
Cu922  O932    1.955   .     S
Cu922  O934    1.932   .     S
Cu922  O930    1.955   .     S
Cu922  O936    1.933   .     S
C937   C940    1.443   .     S
C937   O965    1.289   .     A
C937   O968    1.289   .     A
C938   C940    1.405   .     A
C938   Cl956   1.771   .     S
C939   C945    1.443   .     S
C939   C951    1.405   .     A
C939   C952    1.405   .     A
C940   C950    1.405   .     A
C941   N964    1.368   .     A
C941   H959    1.082   .     S
C942   N963    1.368   .     A
C942   H960    1.082   .     S
C942   C727    1.418   1_565 S
C943   H961    1.082   .     S
C943   N964    1.368   .     A
C944   H962    1.082   .     S
C944   N963    1.368   .     A
C944   C725    1.418   1_565 S
C945   O966    1.289   .     A
C945   O967    1.289   .     A
C946   C948    1.408   .     S
C946   O969    1.289   .     A
C946   O972    1.289   .     A
C947   O971    1.289   .     A
C947   C949    1.408   .     S
C947   O970    1.289   .     A
C949   C300    1.190   1_556 S
C950   Cl953   1.771   .     S
C951   Cl954   1.771   .     S
C951   C866    1.394   1_655 S
C952   Cl955   1.771   .     S
C952   C878    1.394   1_655 S
Cu957  O971    1.933   .     S
Cu957  N963    2.016   .     S
Cu957  Cu958   2.683   .     S
Cu957  O967    1.955   .     S
Cu957  O969    1.932   .     S
Cu957  O965    1.955   .     S
Cu958  N964    2.016   .     S
Cu958  O968    1.955   .     S
Cu958  O970    1.932   .     S
Cu958  O966    1.955   .     S
Cu958  O972    1.933   .     S
