data_str_m2_o1_o10_pcu_sym.147
_audit_creation_date              2020-01-03
_audit_creation_method            'Materials Studio'
_symmetry_space_group_name_H-M    'P1'
_symmetry_Int_Tables_number       1
_symmetry_cell_setting            triclinic
loop_
_symmetry_equiv_pos_as_xyz
  x,y,z
_cell_length_a                    26.2348
_cell_length_b                    32.3919
_cell_length_c                    28.6836
_cell_angle_alpha                 90.4933
_cell_angle_beta                  97.2547
_cell_angle_gamma                 92.7059
loop_
_atom_site_label
_atom_site_type_symbol
_atom_site_fract_x
_atom_site_fract_y
_atom_site_fract_z
_atom_site_U_iso_or_equiv
_atom_site_adp_type
_atom_site_occupancy
C1     C     0.16488   0.08740   0.16620   0.00000  Uiso   1.00
C2     C     0.16846   0.24593   0.16714   0.00000  Uiso   1.00
C3     C     0.06814   0.16503   0.15491   0.00000  Uiso   1.00
C4     C     0.26520   0.16829   0.17842   0.00000  Uiso   1.00
C5     C     0.01314   0.15849   0.15009   0.00000  Uiso   1.00
C6     C     0.32019   0.17483   0.18324   0.00000  Uiso   1.00
C7     C     0.13462   0.01861   0.13074   0.00000  Uiso   1.00
C8     C     0.19873   0.31472   0.20258   0.00000  Uiso   1.00
C9     C     0.13699   0.30935   0.13174   0.00000  Uiso   1.00
C10    C     0.19636   0.02398   0.20160   0.00000  Uiso   1.00
C11    C     0.16856   0.29056   0.16746   0.00000  Uiso   1.00
C12    C     0.16478   0.04278   0.16587   0.00000  Uiso   1.00
C13    C     0.13222   0.14219   0.02099   0.00000  Uiso   1.00
C14    C     0.20110   0.19116   0.31234   0.00000  Uiso   1.00
C15    C     0.13236   0.14154   0.30508   0.00000  Uiso   1.00
C16    C     0.20097   0.19180   0.02825   0.00000  Uiso   1.00
Cu17   Cu    0.16667   0.16667   0.21355   0.00000  Uiso   1.00
Cu18   Cu    0.16667   0.16666   0.11978   0.00000  Uiso   1.00
H19    H     0.11314   0.29072   0.10507   0.00000  Uiso   1.00
H20    H     0.22020   0.04261   0.22826   0.00000  Uiso   1.00
H21    H     0.10434   0.12310   0.03653   0.00000  Uiso   1.00
H22    H     0.22897   0.21026   0.29680   0.00000  Uiso   1.00
N23    N     0.16668   0.16668   0.28403   0.00000  Uiso   1.00
N24    N     0.16665   0.16666   0.04931   0.00000  Uiso   1.00
O25    O     0.16666   0.10655   0.20625   0.00000  Uiso   1.00
O26    O     0.16667   0.22678   0.12709   0.00000  Uiso   1.00
O27    O     0.16666   0.10654   0.12706   0.00000  Uiso   1.00
O28    O     0.16667   0.22679   0.20628   0.00000  Uiso   1.00
O29    O     0.09161   0.16667   0.19712   0.00000  Uiso   1.00
O30    O     0.24172   0.16666   0.13621   0.00000  Uiso   1.00
O31    O     0.09161   0.16666   0.11793   0.00000  Uiso   1.00
O32    O     0.24172   0.16667   0.21540   0.00000  Uiso   1.00
C33    C     0.32305   0.12727   0.11400   0.00000  Uiso   1.00
C34    C     0.32171   0.13551   0.06585   0.00000  Uiso   1.00
C35    C     0.29679   0.10737   0.03223   0.00000  Uiso   1.00
C36    C     0.27344   0.07069   0.04637   0.00000  Uiso   1.00
C37    C     0.27537   0.06188   0.09415   0.00000  Uiso   1.00
C38    C     0.30025   0.08991   0.12788   0.00000  Uiso   1.00
H39    H     0.00561   0.16405   0.05439   0.00000  Uiso   1.00
H40    H     0.29531   0.11407   0.32855   0.00000  Uiso   1.00
H41    H     0.25404   0.04903   0.02030   0.00000  Uiso   1.00
H42    H     0.25745   0.03339   0.10507   0.00000  Uiso   1.00
H43    H     0.30108   0.08286   0.16481   0.00000  Uiso   1.00
C44    C     0.01026   0.20608   0.21931   0.00000  Uiso   1.00
C45    C     0.03311   0.24341   0.20537   0.00000  Uiso   1.00
C46    C     0.05803   0.27144   0.23908   0.00000  Uiso   1.00
C47    C     0.05995   0.26266   0.28688   0.00000  Uiso   1.00
C48    C     0.03656   0.22602   0.30107   0.00000  Uiso   1.00
C49    C     0.01161   0.19788   0.26747   0.00000  Uiso   1.00
H50    H     0.03230   0.25042   0.16843   0.00000  Uiso   1.00
H51    H     0.07601   0.29989   0.22812   0.00000  Uiso   1.00
H52    H     0.07939   0.28433   0.31294   0.00000  Uiso   1.00
H53    H     0.03807   0.21934   0.00477   0.00000  Uiso   1.00
H54    H     0.32768   0.16936   0.27896   0.00000  Uiso   1.00
I55    I     0.08136   0.04238   0.07732   0.00000  Uiso   1.00
I56    I     0.25205   0.29093   0.25592   0.00000  Uiso   1.00
I57    I     0.07844   0.09801   0.26835   0.00000  Uiso   1.00
I58    I     0.25484   0.23536   0.06498   0.00000  Uiso   1.00
C59    C     0.49821   0.08740   0.16620   0.00000  Uiso   1.00
C60    C     0.50179   0.24593   0.16714   0.00000  Uiso   1.00
C61    C     0.40147   0.16503   0.15491   0.00000  Uiso   1.00
C62    C     0.59853   0.16829   0.17842   0.00000  Uiso   1.00
C63    C     0.34647   0.15849   0.15009   0.00000  Uiso   1.00
C64    C     0.65352   0.17483   0.18324   0.00000  Uiso   1.00
C65    C     0.46795   0.01861   0.13074   0.00000  Uiso   1.00
C66    C     0.53206   0.31472   0.20258   0.00000  Uiso   1.00
C67    C     0.47032   0.30935   0.13174   0.00000  Uiso   1.00
C68    C     0.52969   0.02398   0.20160   0.00000  Uiso   1.00
C69    C     0.50190   0.29056   0.16746   0.00000  Uiso   1.00
C70    C     0.49811   0.04278   0.16587   0.00000  Uiso   1.00
C71    C     0.46556   0.14219   0.02099   0.00000  Uiso   1.00
C72    C     0.53443   0.19116   0.31234   0.00000  Uiso   1.00
C73    C     0.46569   0.14154   0.30508   0.00000  Uiso   1.00
C74    C     0.53430   0.19180   0.02825   0.00000  Uiso   1.00
Cu75   Cu    0.50000   0.16667   0.21355   0.00000  Uiso   1.00
Cu76   Cu    0.50000   0.16666   0.11978   0.00000  Uiso   1.00
H77    H     0.44648   0.29072   0.10507   0.00000  Uiso   1.00
H78    H     0.55354   0.04261   0.22826   0.00000  Uiso   1.00
H79    H     0.43767   0.12310   0.03653   0.00000  Uiso   1.00
H80    H     0.56230   0.21026   0.29680   0.00000  Uiso   1.00
N81    N     0.50001   0.16668   0.28403   0.00000  Uiso   1.00
N82    N     0.49999   0.16666   0.04931   0.00000  Uiso   1.00
O83    O     0.50000   0.10655   0.20625   0.00000  Uiso   1.00
O84    O     0.50000   0.22678   0.12709   0.00000  Uiso   1.00
O85    O     0.50000   0.10654   0.12706   0.00000  Uiso   1.00
O86    O     0.50000   0.22679   0.20628   0.00000  Uiso   1.00
O87    O     0.42495   0.16667   0.19712   0.00000  Uiso   1.00
O88    O     0.57505   0.16666   0.13621   0.00000  Uiso   1.00
O89    O     0.42494   0.16666   0.11793   0.00000  Uiso   1.00
O90    O     0.57506   0.16667   0.21540   0.00000  Uiso   1.00
C91    C     0.65639   0.12727   0.11400   0.00000  Uiso   1.00
C92    C     0.65504   0.13551   0.06585   0.00000  Uiso   1.00
C93    C     0.63012   0.10737   0.03223   0.00000  Uiso   1.00
C94    C     0.60677   0.07069   0.04637   0.00000  Uiso   1.00
C95    C     0.60870   0.06188   0.09415   0.00000  Uiso   1.00
C96    C     0.63358   0.08991   0.12788   0.00000  Uiso   1.00
H97    H     0.33894   0.16405   0.05439   0.00000  Uiso   1.00
H98    H     0.62864   0.11407   0.32855   0.00000  Uiso   1.00
H99    H     0.58737   0.04903   0.02030   0.00000  Uiso   1.00
H100   H     0.59078   0.03339   0.10507   0.00000  Uiso   1.00
H101   H     0.63441   0.08286   0.16481   0.00000  Uiso   1.00
C102   C     0.34360   0.20608   0.21931   0.00000  Uiso   1.00
C103   C     0.36644   0.24341   0.20537   0.00000  Uiso   1.00
C104   C     0.39137   0.27144   0.23908   0.00000  Uiso   1.00
C105   C     0.39329   0.26266   0.28688   0.00000  Uiso   1.00
C106   C     0.36990   0.22602   0.30107   0.00000  Uiso   1.00
C107   C     0.34494   0.19788   0.26747   0.00000  Uiso   1.00
H108   H     0.36564   0.25042   0.16843   0.00000  Uiso   1.00
H109   H     0.40934   0.29989   0.22812   0.00000  Uiso   1.00
H110   H     0.41272   0.28433   0.31294   0.00000  Uiso   1.00
H111   H     0.37140   0.21934   0.00477   0.00000  Uiso   1.00
H112   H     0.66102   0.16936   0.27896   0.00000  Uiso   1.00
I113   I     0.41469   0.04238   0.07732   0.00000  Uiso   1.00
I114   I     0.58538   0.29093   0.25592   0.00000  Uiso   1.00
I115   I     0.41178   0.09801   0.26835   0.00000  Uiso   1.00
I116   I     0.58817   0.23536   0.06498   0.00000  Uiso   1.00
C117   C     0.83155   0.08740   0.16620   0.00000  Uiso   1.00
C118   C     0.83513   0.24593   0.16714   0.00000  Uiso   1.00
C119   C     0.73480   0.16503   0.15491   0.00000  Uiso   1.00
C120   C     0.93186   0.16829   0.17842   0.00000  Uiso   1.00
C121   C     0.67981   0.15849   0.15009   0.00000  Uiso   1.00
C122   C     0.98686   0.17483   0.18324   0.00000  Uiso   1.00
C123   C     0.80129   0.01861   0.13074   0.00000  Uiso   1.00
C124   C     0.86540   0.31472   0.20258   0.00000  Uiso   1.00
C125   C     0.80365   0.30935   0.13174   0.00000  Uiso   1.00
C126   C     0.86302   0.02398   0.20160   0.00000  Uiso   1.00
C127   C     0.83523   0.29056   0.16746   0.00000  Uiso   1.00
C128   C     0.83144   0.04278   0.16587   0.00000  Uiso   1.00
C129   C     0.79889   0.14219   0.02099   0.00000  Uiso   1.00
C130   C     0.86777   0.19116   0.31234   0.00000  Uiso   1.00
C131   C     0.79902   0.14154   0.30508   0.00000  Uiso   1.00
C132   C     0.86763   0.19180   0.02825   0.00000  Uiso   1.00
Cu133  Cu    0.83333   0.16667   0.21355   0.00000  Uiso   1.00
Cu134  Cu    0.83333   0.16666   0.11978   0.00000  Uiso   1.00
H135   H     0.77981   0.29072   0.10507   0.00000  Uiso   1.00
H136   H     0.88687   0.04261   0.22826   0.00000  Uiso   1.00
H137   H     0.77100   0.12310   0.03653   0.00000  Uiso   1.00
H138   H     0.89564   0.21026   0.29680   0.00000  Uiso   1.00
N139   N     0.83335   0.16668   0.28403   0.00000  Uiso   1.00
N140   N     0.83332   0.16666   0.04931   0.00000  Uiso   1.00
O141   O     0.83333   0.10655   0.20625   0.00000  Uiso   1.00
O142   O     0.83334   0.22678   0.12709   0.00000  Uiso   1.00
O143   O     0.83333   0.10654   0.12706   0.00000  Uiso   1.00
O144   O     0.83334   0.22679   0.20628   0.00000  Uiso   1.00
O145   O     0.75828   0.16667   0.19712   0.00000  Uiso   1.00
O146   O     0.90839   0.16666   0.13621   0.00000  Uiso   1.00
O147   O     0.75828   0.16666   0.11793   0.00000  Uiso   1.00
O148   O     0.90839   0.16667   0.21540   0.00000  Uiso   1.00
C149   C     0.98972   0.12727   0.11400   0.00000  Uiso   1.00
C150   C     0.98837   0.13551   0.06585   0.00000  Uiso   1.00
C151   C     0.96346   0.10737   0.03223   0.00000  Uiso   1.00
C152   C     0.94011   0.07069   0.04637   0.00000  Uiso   1.00
C153   C     0.94204   0.06188   0.09415   0.00000  Uiso   1.00
C154   C     0.96691   0.08991   0.12788   0.00000  Uiso   1.00
H155   H     0.67227   0.16405   0.05439   0.00000  Uiso   1.00
H156   H     0.96197   0.11407   0.32855   0.00000  Uiso   1.00
H157   H     0.92071   0.04903   0.02030   0.00000  Uiso   1.00
H158   H     0.92411   0.03339   0.10507   0.00000  Uiso   1.00
H159   H     0.96775   0.08286   0.16481   0.00000  Uiso   1.00
C160   C     0.67693   0.20608   0.21931   0.00000  Uiso   1.00
C161   C     0.69978   0.24341   0.20537   0.00000  Uiso   1.00
C162   C     0.72470   0.27144   0.23908   0.00000  Uiso   1.00
C163   C     0.72662   0.26266   0.28688   0.00000  Uiso   1.00
C164   C     0.70323   0.22602   0.30107   0.00000  Uiso   1.00
C165   C     0.67827   0.19788   0.26747   0.00000  Uiso   1.00
H166   H     0.69897   0.25042   0.16843   0.00000  Uiso   1.00
H167   H     0.74267   0.29989   0.22812   0.00000  Uiso   1.00
H168   H     0.74605   0.28433   0.31294   0.00000  Uiso   1.00
H169   H     0.70473   0.21934   0.00477   0.00000  Uiso   1.00
H170   H     0.99435   0.16936   0.27896   0.00000  Uiso   1.00
I171   I     0.74803   0.04238   0.07732   0.00000  Uiso   1.00
I172   I     0.91871   0.29093   0.25592   0.00000  Uiso   1.00
I173   I     0.74511   0.09801   0.26835   0.00000  Uiso   1.00
I174   I     0.92150   0.23536   0.06498   0.00000  Uiso   1.00
C175   C     0.16488   0.42073   0.16620   0.00000  Uiso   1.00
C176   C     0.16846   0.57926   0.16714   0.00000  Uiso   1.00
C177   C     0.06814   0.49837   0.15491   0.00000  Uiso   1.00
C178   C     0.26520   0.50162   0.17842   0.00000  Uiso   1.00
C179   C     0.01314   0.49182   0.15009   0.00000  Uiso   1.00
C180   C     0.32019   0.50817   0.18324   0.00000  Uiso   1.00
C181   C     0.13462   0.35194   0.13074   0.00000  Uiso   1.00
C182   C     0.19873   0.64805   0.20258   0.00000  Uiso   1.00
C183   C     0.13699   0.64268   0.13174   0.00000  Uiso   1.00
C184   C     0.19636   0.35732   0.20160   0.00000  Uiso   1.00
C185   C     0.16856   0.62389   0.16746   0.00000  Uiso   1.00
C186   C     0.16478   0.37611   0.16587   0.00000  Uiso   1.00
C187   C     0.13222   0.47552   0.02099   0.00000  Uiso   1.00
C188   C     0.20110   0.52449   0.31234   0.00000  Uiso   1.00
C189   C     0.13236   0.47487   0.30508   0.00000  Uiso   1.00
C190   C     0.20097   0.52514   0.02825   0.00000  Uiso   1.00
Cu191  Cu    0.16667   0.50001   0.21355   0.00000  Uiso   1.00
Cu192  Cu    0.16667   0.49999   0.11978   0.00000  Uiso   1.00
H193   H     0.11314   0.62406   0.10507   0.00000  Uiso   1.00
H194   H     0.22020   0.37594   0.22826   0.00000  Uiso   1.00
H195   H     0.10434   0.45643   0.03653   0.00000  Uiso   1.00
H196   H     0.22897   0.54359   0.29680   0.00000  Uiso   1.00
N197   N     0.16668   0.50001   0.28403   0.00000  Uiso   1.00
N198   N     0.16665   0.49999   0.04931   0.00000  Uiso   1.00
O199   O     0.16666   0.43989   0.20625   0.00000  Uiso   1.00
O200   O     0.16667   0.56011   0.12709   0.00000  Uiso   1.00
O201   O     0.16666   0.43988   0.12706   0.00000  Uiso   1.00
O202   O     0.16667   0.56012   0.20628   0.00000  Uiso   1.00
O203   O     0.09161   0.50000   0.19712   0.00000  Uiso   1.00
O204   O     0.24172   0.50000   0.13621   0.00000  Uiso   1.00
O205   O     0.09161   0.49999   0.11793   0.00000  Uiso   1.00
O206   O     0.24172   0.50001   0.21540   0.00000  Uiso   1.00
C207   C     0.32305   0.46061   0.11400   0.00000  Uiso   1.00
C208   C     0.32171   0.46885   0.06585   0.00000  Uiso   1.00
C209   C     0.29679   0.44070   0.03223   0.00000  Uiso   1.00
C210   C     0.27344   0.40403   0.04637   0.00000  Uiso   1.00
C211   C     0.27537   0.39521   0.09415   0.00000  Uiso   1.00
C212   C     0.30025   0.42325   0.12788   0.00000  Uiso   1.00
H213   H     0.00561   0.49738   0.05439   0.00000  Uiso   1.00
H214   H     0.29531   0.44740   0.32855   0.00000  Uiso   1.00
H215   H     0.25404   0.38236   0.02030   0.00000  Uiso   1.00
H216   H     0.25745   0.36672   0.10507   0.00000  Uiso   1.00
H217   H     0.30108   0.41619   0.16481   0.00000  Uiso   1.00
C218   C     0.01026   0.53941   0.21931   0.00000  Uiso   1.00
C219   C     0.03311   0.57674   0.20537   0.00000  Uiso   1.00
C220   C     0.05803   0.60478   0.23908   0.00000  Uiso   1.00
C221   C     0.05995   0.59600   0.28688   0.00000  Uiso   1.00
C222   C     0.03656   0.55935   0.30107   0.00000  Uiso   1.00
C223   C     0.01161   0.53121   0.26747   0.00000  Uiso   1.00
H224   H     0.03230   0.58375   0.16843   0.00000  Uiso   1.00
H225   H     0.07601   0.63323   0.22812   0.00000  Uiso   1.00
H226   H     0.07939   0.61766   0.31294   0.00000  Uiso   1.00
H227   H     0.03807   0.55267   0.00477   0.00000  Uiso   1.00
H228   H     0.32768   0.50269   0.27896   0.00000  Uiso   1.00
I229   I     0.08136   0.37572   0.07732   0.00000  Uiso   1.00
I230   I     0.25205   0.62426   0.25592   0.00000  Uiso   1.00
I231   I     0.07844   0.43134   0.26835   0.00000  Uiso   1.00
I232   I     0.25484   0.56870   0.06498   0.00000  Uiso   1.00
C233   C     0.49821   0.42073   0.16620   0.00000  Uiso   1.00
C234   C     0.50179   0.57926   0.16714   0.00000  Uiso   1.00
C235   C     0.40147   0.49837   0.15491   0.00000  Uiso   1.00
C236   C     0.59853   0.50162   0.17842   0.00000  Uiso   1.00
C237   C     0.34647   0.49182   0.15009   0.00000  Uiso   1.00
C238   C     0.65352   0.50817   0.18324   0.00000  Uiso   1.00
C239   C     0.46795   0.35194   0.13074   0.00000  Uiso   1.00
C240   C     0.53206   0.64805   0.20258   0.00000  Uiso   1.00
C241   C     0.47032   0.64268   0.13174   0.00000  Uiso   1.00
C242   C     0.52969   0.35732   0.20160   0.00000  Uiso   1.00
C243   C     0.50190   0.62389   0.16746   0.00000  Uiso   1.00
C244   C     0.49811   0.37611   0.16587   0.00000  Uiso   1.00
C245   C     0.46556   0.47552   0.02099   0.00000  Uiso   1.00
C246   C     0.53443   0.52449   0.31234   0.00000  Uiso   1.00
C247   C     0.46569   0.47487   0.30508   0.00000  Uiso   1.00
C248   C     0.53430   0.52514   0.02825   0.00000  Uiso   1.00
Cu249  Cu    0.50000   0.50001   0.21355   0.00000  Uiso   1.00
Cu250  Cu    0.50000   0.49999   0.11978   0.00000  Uiso   1.00
H251   H     0.44648   0.62406   0.10507   0.00000  Uiso   1.00
H252   H     0.55354   0.37594   0.22826   0.00000  Uiso   1.00
H253   H     0.43767   0.45643   0.03653   0.00000  Uiso   1.00
H254   H     0.56230   0.54359   0.29680   0.00000  Uiso   1.00
N255   N     0.50001   0.50001   0.28403   0.00000  Uiso   1.00
N256   N     0.49999   0.49999   0.04931   0.00000  Uiso   1.00
O257   O     0.50000   0.43989   0.20625   0.00000  Uiso   1.00
O258   O     0.50000   0.56011   0.12709   0.00000  Uiso   1.00
O259   O     0.50000   0.43988   0.12706   0.00000  Uiso   1.00
O260   O     0.50000   0.56012   0.20628   0.00000  Uiso   1.00
O261   O     0.42495   0.50000   0.19712   0.00000  Uiso   1.00
O262   O     0.57505   0.50000   0.13621   0.00000  Uiso   1.00
O263   O     0.42494   0.49999   0.11793   0.00000  Uiso   1.00
O264   O     0.57506   0.50001   0.21540   0.00000  Uiso   1.00
C265   C     0.65639   0.46061   0.11400   0.00000  Uiso   1.00
C266   C     0.65504   0.46885   0.06585   0.00000  Uiso   1.00
C267   C     0.63012   0.44070   0.03223   0.00000  Uiso   1.00
C268   C     0.60677   0.40403   0.04637   0.00000  Uiso   1.00
C269   C     0.60870   0.39521   0.09415   0.00000  Uiso   1.00
C270   C     0.63358   0.42325   0.12788   0.00000  Uiso   1.00
H271   H     0.33894   0.49738   0.05439   0.00000  Uiso   1.00
H272   H     0.62864   0.44740   0.32855   0.00000  Uiso   1.00
H273   H     0.58737   0.38236   0.02030   0.00000  Uiso   1.00
H274   H     0.59078   0.36672   0.10507   0.00000  Uiso   1.00
H275   H     0.63441   0.41619   0.16481   0.00000  Uiso   1.00
C276   C     0.34360   0.53941   0.21931   0.00000  Uiso   1.00
C277   C     0.36644   0.57674   0.20537   0.00000  Uiso   1.00
C278   C     0.39137   0.60478   0.23908   0.00000  Uiso   1.00
C279   C     0.39329   0.59600   0.28688   0.00000  Uiso   1.00
C280   C     0.36990   0.55935   0.30107   0.00000  Uiso   1.00
C281   C     0.34494   0.53121   0.26747   0.00000  Uiso   1.00
H282   H     0.36564   0.58375   0.16843   0.00000  Uiso   1.00
H283   H     0.40934   0.63323   0.22812   0.00000  Uiso   1.00
H284   H     0.41272   0.61766   0.31294   0.00000  Uiso   1.00
H285   H     0.37140   0.55267   0.00477   0.00000  Uiso   1.00
H286   H     0.66102   0.50269   0.27896   0.00000  Uiso   1.00
I287   I     0.41469   0.37572   0.07732   0.00000  Uiso   1.00
I288   I     0.58538   0.62426   0.25592   0.00000  Uiso   1.00
I289   I     0.41178   0.43134   0.26835   0.00000  Uiso   1.00
I290   I     0.58817   0.56870   0.06498   0.00000  Uiso   1.00
C291   C     0.83155   0.42073   0.16620   0.00000  Uiso   1.00
C292   C     0.83513   0.57926   0.16714   0.00000  Uiso   1.00
C293   C     0.73480   0.49837   0.15491   0.00000  Uiso   1.00
C294   C     0.93186   0.50162   0.17842   0.00000  Uiso   1.00
C295   C     0.67981   0.49182   0.15009   0.00000  Uiso   1.00
C296   C     0.98686   0.50817   0.18324   0.00000  Uiso   1.00
C297   C     0.80129   0.35194   0.13074   0.00000  Uiso   1.00
C298   C     0.86540   0.64805   0.20258   0.00000  Uiso   1.00
C299   C     0.80365   0.64268   0.13174   0.00000  Uiso   1.00
C300   C     0.86302   0.35732   0.20160   0.00000  Uiso   1.00
C301   C     0.83523   0.62389   0.16746   0.00000  Uiso   1.00
C302   C     0.83144   0.37611   0.16587   0.00000  Uiso   1.00
C303   C     0.79889   0.47552   0.02099   0.00000  Uiso   1.00
C304   C     0.86777   0.52449   0.31234   0.00000  Uiso   1.00
C305   C     0.79902   0.47487   0.30508   0.00000  Uiso   1.00
C306   C     0.86763   0.52514   0.02825   0.00000  Uiso   1.00
Cu307  Cu    0.83333   0.50001   0.21355   0.00000  Uiso   1.00
Cu308  Cu    0.83333   0.49999   0.11978   0.00000  Uiso   1.00
H309   H     0.77981   0.62406   0.10507   0.00000  Uiso   1.00
H310   H     0.88687   0.37594   0.22826   0.00000  Uiso   1.00
H311   H     0.77100   0.45643   0.03653   0.00000  Uiso   1.00
H312   H     0.89564   0.54359   0.29680   0.00000  Uiso   1.00
N313   N     0.83335   0.50001   0.28403   0.00000  Uiso   1.00
N314   N     0.83332   0.49999   0.04931   0.00000  Uiso   1.00
O315   O     0.83333   0.43989   0.20625   0.00000  Uiso   1.00
O316   O     0.83334   0.56011   0.12709   0.00000  Uiso   1.00
O317   O     0.83333   0.43988   0.12706   0.00000  Uiso   1.00
O318   O     0.83334   0.56012   0.20628   0.00000  Uiso   1.00
O319   O     0.75828   0.50000   0.19712   0.00000  Uiso   1.00
O320   O     0.90839   0.50000   0.13621   0.00000  Uiso   1.00
O321   O     0.75828   0.49999   0.11793   0.00000  Uiso   1.00
O322   O     0.90839   0.50001   0.21540   0.00000  Uiso   1.00
C323   C     0.98972   0.46061   0.11400   0.00000  Uiso   1.00
C324   C     0.98837   0.46885   0.06585   0.00000  Uiso   1.00
C325   C     0.96346   0.44070   0.03223   0.00000  Uiso   1.00
C326   C     0.94011   0.40403   0.04637   0.00000  Uiso   1.00
C327   C     0.94204   0.39521   0.09415   0.00000  Uiso   1.00
C328   C     0.96691   0.42325   0.12788   0.00000  Uiso   1.00
H329   H     0.67227   0.49738   0.05439   0.00000  Uiso   1.00
H330   H     0.96197   0.44740   0.32855   0.00000  Uiso   1.00
H331   H     0.92071   0.38236   0.02030   0.00000  Uiso   1.00
H332   H     0.92411   0.36672   0.10507   0.00000  Uiso   1.00
H333   H     0.96775   0.41619   0.16481   0.00000  Uiso   1.00
C334   C     0.67693   0.53941   0.21931   0.00000  Uiso   1.00
C335   C     0.69978   0.57674   0.20537   0.00000  Uiso   1.00
C336   C     0.72470   0.60478   0.23908   0.00000  Uiso   1.00
C337   C     0.72662   0.59600   0.28688   0.00000  Uiso   1.00
C338   C     0.70323   0.55935   0.30107   0.00000  Uiso   1.00
C339   C     0.67827   0.53121   0.26747   0.00000  Uiso   1.00
H340   H     0.69897   0.58375   0.16843   0.00000  Uiso   1.00
H341   H     0.74267   0.63323   0.22812   0.00000  Uiso   1.00
H342   H     0.74605   0.61766   0.31294   0.00000  Uiso   1.00
H343   H     0.70473   0.55267   0.00477   0.00000  Uiso   1.00
H344   H     0.99435   0.50269   0.27896   0.00000  Uiso   1.00
I345   I     0.74803   0.37572   0.07732   0.00000  Uiso   1.00
I346   I     0.91871   0.62426   0.25592   0.00000  Uiso   1.00
I347   I     0.74511   0.43134   0.26835   0.00000  Uiso   1.00
I348   I     0.92150   0.56870   0.06498   0.00000  Uiso   1.00
C349   C     0.16488   0.75407   0.16620   0.00000  Uiso   1.00
C350   C     0.16846   0.91260   0.16714   0.00000  Uiso   1.00
C351   C     0.06814   0.83170   0.15491   0.00000  Uiso   1.00
C352   C     0.26520   0.83495   0.17842   0.00000  Uiso   1.00
C353   C     0.01314   0.82515   0.15009   0.00000  Uiso   1.00
C354   C     0.32019   0.84150   0.18324   0.00000  Uiso   1.00
C355   C     0.13462   0.68528   0.13074   0.00000  Uiso   1.00
C356   C     0.19873   0.98139   0.20258   0.00000  Uiso   1.00
C357   C     0.13699   0.97601   0.13174   0.00000  Uiso   1.00
C358   C     0.19636   0.69065   0.20160   0.00000  Uiso   1.00
C359   C     0.16856   0.95722   0.16746   0.00000  Uiso   1.00
C360   C     0.16478   0.70944   0.16587   0.00000  Uiso   1.00
C361   C     0.13222   0.80885   0.02099   0.00000  Uiso   1.00
C362   C     0.20110   0.85782   0.31234   0.00000  Uiso   1.00
C363   C     0.13236   0.80821   0.30508   0.00000  Uiso   1.00
C364   C     0.20097   0.85847   0.02825   0.00000  Uiso   1.00
Cu365  Cu    0.16667   0.83334   0.21355   0.00000  Uiso   1.00
Cu366  Cu    0.16667   0.83333   0.11978   0.00000  Uiso   1.00
H367   H     0.11314   0.95739   0.10507   0.00000  Uiso   1.00
H368   H     0.22020   0.70927   0.22826   0.00000  Uiso   1.00
H369   H     0.10434   0.78977   0.03653   0.00000  Uiso   1.00
H370   H     0.22897   0.87693   0.29680   0.00000  Uiso   1.00
N371   N     0.16668   0.83334   0.28403   0.00000  Uiso   1.00
N372   N     0.16665   0.83332   0.04931   0.00000  Uiso   1.00
O373   O     0.16666   0.77322   0.20625   0.00000  Uiso   1.00
O374   O     0.16667   0.89345   0.12709   0.00000  Uiso   1.00
O375   O     0.16666   0.77321   0.12706   0.00000  Uiso   1.00
O376   O     0.16667   0.89346   0.20628   0.00000  Uiso   1.00
O377   O     0.09161   0.83334   0.19712   0.00000  Uiso   1.00
O378   O     0.24172   0.83333   0.13621   0.00000  Uiso   1.00
O379   O     0.09161   0.83333   0.11793   0.00000  Uiso   1.00
O380   O     0.24172   0.83334   0.21540   0.00000  Uiso   1.00
C381   C     0.32305   0.79394   0.11400   0.00000  Uiso   1.00
C382   C     0.32171   0.80218   0.06585   0.00000  Uiso   1.00
C383   C     0.29679   0.77404   0.03223   0.00000  Uiso   1.00
C384   C     0.27344   0.73736   0.04637   0.00000  Uiso   1.00
C385   C     0.27537   0.72854   0.09415   0.00000  Uiso   1.00
C386   C     0.30025   0.75658   0.12788   0.00000  Uiso   1.00
H387   H     0.00561   0.83072   0.05439   0.00000  Uiso   1.00
H388   H     0.29531   0.78074   0.32855   0.00000  Uiso   1.00
H389   H     0.25404   0.71569   0.02030   0.00000  Uiso   1.00
H390   H     0.25745   0.70005   0.10507   0.00000  Uiso   1.00
H391   H     0.30108   0.74953   0.16481   0.00000  Uiso   1.00
C392   C     0.01026   0.87275   0.21931   0.00000  Uiso   1.00
C393   C     0.03311   0.91008   0.20537   0.00000  Uiso   1.00
C394   C     0.05803   0.93811   0.23908   0.00000  Uiso   1.00
C395   C     0.05995   0.92933   0.28688   0.00000  Uiso   1.00
C396   C     0.03656   0.89269   0.30107   0.00000  Uiso   1.00
C397   C     0.01161   0.86454   0.26747   0.00000  Uiso   1.00
H398   H     0.03230   0.91709   0.16843   0.00000  Uiso   1.00
H399   H     0.07601   0.96656   0.22812   0.00000  Uiso   1.00
H400   H     0.07939   0.95099   0.31294   0.00000  Uiso   1.00
H401   H     0.03807   0.88601   0.00477   0.00000  Uiso   1.00
H402   H     0.32768   0.83603   0.27896   0.00000  Uiso   1.00
I403   I     0.08136   0.70905   0.07732   0.00000  Uiso   1.00
I404   I     0.25205   0.95760   0.25592   0.00000  Uiso   1.00
I405   I     0.07844   0.76468   0.26835   0.00000  Uiso   1.00
I406   I     0.25484   0.90203   0.06498   0.00000  Uiso   1.00
C407   C     0.49821   0.75407   0.16620   0.00000  Uiso   1.00
C408   C     0.50179   0.91260   0.16714   0.00000  Uiso   1.00
C409   C     0.40147   0.83170   0.15491   0.00000  Uiso   1.00
C410   C     0.59853   0.83495   0.17842   0.00000  Uiso   1.00
C411   C     0.34647   0.82515   0.15009   0.00000  Uiso   1.00
C412   C     0.65352   0.84150   0.18324   0.00000  Uiso   1.00
C413   C     0.46795   0.68528   0.13074   0.00000  Uiso   1.00
C414   C     0.53206   0.98139   0.20258   0.00000  Uiso   1.00
C415   C     0.47032   0.97601   0.13174   0.00000  Uiso   1.00
C416   C     0.52969   0.69065   0.20160   0.00000  Uiso   1.00
C417   C     0.50190   0.95722   0.16746   0.00000  Uiso   1.00
C418   C     0.49811   0.70944   0.16587   0.00000  Uiso   1.00
C419   C     0.46556   0.80885   0.02099   0.00000  Uiso   1.00
C420   C     0.53443   0.85782   0.31234   0.00000  Uiso   1.00
C421   C     0.46569   0.80821   0.30508   0.00000  Uiso   1.00
C422   C     0.53430   0.85847   0.02825   0.00000  Uiso   1.00
Cu423  Cu    0.50000   0.83334   0.21355   0.00000  Uiso   1.00
Cu424  Cu    0.50000   0.83333   0.11978   0.00000  Uiso   1.00
H425   H     0.44648   0.95739   0.10507   0.00000  Uiso   1.00
H426   H     0.55354   0.70927   0.22826   0.00000  Uiso   1.00
H427   H     0.43767   0.78977   0.03653   0.00000  Uiso   1.00
H428   H     0.56230   0.87693   0.29680   0.00000  Uiso   1.00
N429   N     0.50001   0.83334   0.28403   0.00000  Uiso   1.00
N430   N     0.49999   0.83332   0.04931   0.00000  Uiso   1.00
O431   O     0.50000   0.77322   0.20625   0.00000  Uiso   1.00
O432   O     0.50000   0.89345   0.12709   0.00000  Uiso   1.00
O433   O     0.50000   0.77321   0.12706   0.00000  Uiso   1.00
O434   O     0.50000   0.89346   0.20628   0.00000  Uiso   1.00
O435   O     0.42495   0.83334   0.19712   0.00000  Uiso   1.00
O436   O     0.57505   0.83333   0.13621   0.00000  Uiso   1.00
O437   O     0.42494   0.83333   0.11793   0.00000  Uiso   1.00
O438   O     0.57506   0.83334   0.21540   0.00000  Uiso   1.00
C439   C     0.65639   0.79394   0.11400   0.00000  Uiso   1.00
C440   C     0.65504   0.80218   0.06585   0.00000  Uiso   1.00
C441   C     0.63012   0.77404   0.03223   0.00000  Uiso   1.00
C442   C     0.60677   0.73736   0.04637   0.00000  Uiso   1.00
C443   C     0.60870   0.72854   0.09415   0.00000  Uiso   1.00
C444   C     0.63358   0.75658   0.12788   0.00000  Uiso   1.00
H445   H     0.33894   0.83072   0.05439   0.00000  Uiso   1.00
H446   H     0.62864   0.78074   0.32855   0.00000  Uiso   1.00
H447   H     0.58737   0.71569   0.02030   0.00000  Uiso   1.00
H448   H     0.59078   0.70005   0.10507   0.00000  Uiso   1.00
H449   H     0.63441   0.74953   0.16481   0.00000  Uiso   1.00
C450   C     0.34360   0.87275   0.21931   0.00000  Uiso   1.00
C451   C     0.36644   0.91008   0.20537   0.00000  Uiso   1.00
C452   C     0.39137   0.93811   0.23908   0.00000  Uiso   1.00
C453   C     0.39329   0.92933   0.28688   0.00000  Uiso   1.00
C454   C     0.36990   0.89269   0.30107   0.00000  Uiso   1.00
C455   C     0.34494   0.86454   0.26747   0.00000  Uiso   1.00
H456   H     0.36564   0.91709   0.16843   0.00000  Uiso   1.00
H457   H     0.40934   0.96656   0.22812   0.00000  Uiso   1.00
H458   H     0.41272   0.95099   0.31294   0.00000  Uiso   1.00
H459   H     0.37140   0.88601   0.00477   0.00000  Uiso   1.00
H460   H     0.66102   0.83603   0.27896   0.00000  Uiso   1.00
I461   I     0.41469   0.70905   0.07732   0.00000  Uiso   1.00
I462   I     0.58538   0.95760   0.25592   0.00000  Uiso   1.00
I463   I     0.41178   0.76468   0.26835   0.00000  Uiso   1.00
I464   I     0.58817   0.90203   0.06498   0.00000  Uiso   1.00
C465   C     0.83155   0.75407   0.16620   0.00000  Uiso   1.00
C466   C     0.83513   0.91260   0.16714   0.00000  Uiso   1.00
C467   C     0.73480   0.83170   0.15491   0.00000  Uiso   1.00
C468   C     0.93186   0.83495   0.17842   0.00000  Uiso   1.00
C469   C     0.67981   0.82515   0.15009   0.00000  Uiso   1.00
C470   C     0.98686   0.84150   0.18324   0.00000  Uiso   1.00
C471   C     0.80129   0.68528   0.13074   0.00000  Uiso   1.00
C472   C     0.86540   0.98139   0.20258   0.00000  Uiso   1.00
C473   C     0.80365   0.97601   0.13174   0.00000  Uiso   1.00
C474   C     0.86302   0.69065   0.20160   0.00000  Uiso   1.00
C475   C     0.83523   0.95722   0.16746   0.00000  Uiso   1.00
C476   C     0.83144   0.70944   0.16587   0.00000  Uiso   1.00
C477   C     0.79889   0.80885   0.02099   0.00000  Uiso   1.00
C478   C     0.86777   0.85782   0.31234   0.00000  Uiso   1.00
C479   C     0.79902   0.80821   0.30508   0.00000  Uiso   1.00
C480   C     0.86763   0.85847   0.02825   0.00000  Uiso   1.00
Cu481  Cu    0.83333   0.83334   0.21355   0.00000  Uiso   1.00
Cu482  Cu    0.83333   0.83333   0.11978   0.00000  Uiso   1.00
H483   H     0.77981   0.95739   0.10507   0.00000  Uiso   1.00
H484   H     0.88687   0.70927   0.22826   0.00000  Uiso   1.00
H485   H     0.77100   0.78977   0.03653   0.00000  Uiso   1.00
H486   H     0.89564   0.87693   0.29680   0.00000  Uiso   1.00
N487   N     0.83335   0.83334   0.28403   0.00000  Uiso   1.00
N488   N     0.83332   0.83332   0.04931   0.00000  Uiso   1.00
O489   O     0.83333   0.77322   0.20625   0.00000  Uiso   1.00
O490   O     0.83334   0.89345   0.12709   0.00000  Uiso   1.00
O491   O     0.83333   0.77321   0.12706   0.00000  Uiso   1.00
O492   O     0.83334   0.89346   0.20628   0.00000  Uiso   1.00
O493   O     0.75828   0.83334   0.19712   0.00000  Uiso   1.00
O494   O     0.90839   0.83333   0.13621   0.00000  Uiso   1.00
O495   O     0.75828   0.83333   0.11793   0.00000  Uiso   1.00
O496   O     0.90839   0.83334   0.21540   0.00000  Uiso   1.00
C497   C     0.98972   0.79394   0.11400   0.00000  Uiso   1.00
C498   C     0.98837   0.80218   0.06585   0.00000  Uiso   1.00
C499   C     0.96346   0.77404   0.03223   0.00000  Uiso   1.00
C500   C     0.94011   0.73736   0.04637   0.00000  Uiso   1.00
C501   C     0.94204   0.72854   0.09415   0.00000  Uiso   1.00
C502   C     0.96691   0.75658   0.12788   0.00000  Uiso   1.00
H503   H     0.67227   0.83072   0.05439   0.00000  Uiso   1.00
H504   H     0.96197   0.78074   0.32855   0.00000  Uiso   1.00
H505   H     0.92071   0.71569   0.02030   0.00000  Uiso   1.00
H506   H     0.92411   0.70005   0.10507   0.00000  Uiso   1.00
H507   H     0.96775   0.74953   0.16481   0.00000  Uiso   1.00
C508   C     0.67693   0.87275   0.21931   0.00000  Uiso   1.00
C509   C     0.69978   0.91008   0.20537   0.00000  Uiso   1.00
C510   C     0.72470   0.93811   0.23908   0.00000  Uiso   1.00
C511   C     0.72662   0.92933   0.28688   0.00000  Uiso   1.00
C512   C     0.70323   0.89269   0.30107   0.00000  Uiso   1.00
C513   C     0.67827   0.86454   0.26747   0.00000  Uiso   1.00
H514   H     0.69897   0.91709   0.16843   0.00000  Uiso   1.00
H515   H     0.74267   0.96656   0.22812   0.00000  Uiso   1.00
H516   H     0.74605   0.95099   0.31294   0.00000  Uiso   1.00
H517   H     0.70473   0.88601   0.00477   0.00000  Uiso   1.00
H518   H     0.99435   0.83603   0.27896   0.00000  Uiso   1.00
I519   I     0.74803   0.70905   0.07732   0.00000  Uiso   1.00
I520   I     0.91871   0.95760   0.25592   0.00000  Uiso   1.00
I521   I     0.74511   0.76468   0.26835   0.00000  Uiso   1.00
I522   I     0.92150   0.90203   0.06498   0.00000  Uiso   1.00
C523   C     0.16488   0.08740   0.49953   0.00000  Uiso   1.00
C524   C     0.16846   0.24593   0.50047   0.00000  Uiso   1.00
C525   C     0.06814   0.16503   0.48824   0.00000  Uiso   1.00
C526   C     0.26520   0.16829   0.51176   0.00000  Uiso   1.00
C527   C     0.01314   0.15849   0.48343   0.00000  Uiso   1.00
C528   C     0.32019   0.17483   0.51657   0.00000  Uiso   1.00
C529   C     0.13462   0.01861   0.46407   0.00000  Uiso   1.00
C530   C     0.19873   0.31472   0.53592   0.00000  Uiso   1.00
C531   C     0.13699   0.30935   0.46507   0.00000  Uiso   1.00
C532   C     0.19636   0.02398   0.53493   0.00000  Uiso   1.00
C533   C     0.16856   0.29056   0.50079   0.00000  Uiso   1.00
C534   C     0.16478   0.04278   0.49921   0.00000  Uiso   1.00
C535   C     0.13222   0.14219   0.35432   0.00000  Uiso   1.00
C536   C     0.20110   0.19116   0.64568   0.00000  Uiso   1.00
C537   C     0.13236   0.14154   0.63842   0.00000  Uiso   1.00
C538   C     0.20097   0.19180   0.36158   0.00000  Uiso   1.00
Cu539  Cu    0.16667   0.16667   0.54689   0.00000  Uiso   1.00
Cu540  Cu    0.16667   0.16666   0.45311   0.00000  Uiso   1.00
H541   H     0.11314   0.29072   0.43840   0.00000  Uiso   1.00
H542   H     0.22020   0.04261   0.56160   0.00000  Uiso   1.00
H543   H     0.10434   0.12310   0.36987   0.00000  Uiso   1.00
H544   H     0.22897   0.21026   0.63013   0.00000  Uiso   1.00
N545   N     0.16668   0.16668   0.61736   0.00000  Uiso   1.00
N546   N     0.16665   0.16666   0.38264   0.00000  Uiso   1.00
O547   O     0.16666   0.10655   0.53958   0.00000  Uiso   1.00
O548   O     0.16667   0.22678   0.46042   0.00000  Uiso   1.00
O549   O     0.16666   0.10654   0.46039   0.00000  Uiso   1.00
O550   O     0.16667   0.22679   0.53961   0.00000  Uiso   1.00
O551   O     0.09161   0.16667   0.53046   0.00000  Uiso   1.00
O552   O     0.24172   0.16666   0.46954   0.00000  Uiso   1.00
O553   O     0.09161   0.16666   0.45127   0.00000  Uiso   1.00
O554   O     0.24172   0.16667   0.54873   0.00000  Uiso   1.00
C555   C     0.32305   0.12727   0.44733   0.00000  Uiso   1.00
C556   C     0.32171   0.13551   0.39918   0.00000  Uiso   1.00
C557   C     0.29679   0.10737   0.36556   0.00000  Uiso   1.00
C558   C     0.27344   0.07069   0.37970   0.00000  Uiso   1.00
C559   C     0.27537   0.06188   0.42748   0.00000  Uiso   1.00
C560   C     0.30025   0.08991   0.46121   0.00000  Uiso   1.00
H561   H     0.00561   0.16405   0.38772   0.00000  Uiso   1.00
H562   H     0.29531   0.11407   0.66188   0.00000  Uiso   1.00
H563   H     0.25404   0.04903   0.35363   0.00000  Uiso   1.00
H564   H     0.25745   0.03339   0.43840   0.00000  Uiso   1.00
H565   H     0.30108   0.08286   0.49814   0.00000  Uiso   1.00
C566   C     0.01026   0.20608   0.55264   0.00000  Uiso   1.00
C567   C     0.03311   0.24341   0.53871   0.00000  Uiso   1.00
C568   C     0.05803   0.27144   0.57241   0.00000  Uiso   1.00
C569   C     0.05995   0.26266   0.62021   0.00000  Uiso   1.00
C570   C     0.03656   0.22602   0.63440   0.00000  Uiso   1.00
C571   C     0.01161   0.19788   0.60081   0.00000  Uiso   1.00
H572   H     0.03230   0.25042   0.50176   0.00000  Uiso   1.00
H573   H     0.07601   0.29989   0.56145   0.00000  Uiso   1.00
H574   H     0.07939   0.28433   0.64627   0.00000  Uiso   1.00
H575   H     0.03807   0.21934   0.33810   0.00000  Uiso   1.00
H576   H     0.32768   0.16936   0.61229   0.00000  Uiso   1.00
I577   I     0.08136   0.04238   0.41065   0.00000  Uiso   1.00
I578   I     0.25205   0.29093   0.58925   0.00000  Uiso   1.00
I579   I     0.07844   0.09801   0.60168   0.00000  Uiso   1.00
I580   I     0.25484   0.23536   0.39832   0.00000  Uiso   1.00
C581   C     0.49821   0.08740   0.49953   0.00000  Uiso   1.00
C582   C     0.50179   0.24593   0.50047   0.00000  Uiso   1.00
C583   C     0.40147   0.16503   0.48824   0.00000  Uiso   1.00
C584   C     0.59853   0.16829   0.51176   0.00000  Uiso   1.00
C585   C     0.34647   0.15849   0.48343   0.00000  Uiso   1.00
C586   C     0.65352   0.17483   0.51657   0.00000  Uiso   1.00
C587   C     0.46795   0.01861   0.46407   0.00000  Uiso   1.00
C588   C     0.53206   0.31472   0.53592   0.00000  Uiso   1.00
C589   C     0.47032   0.30935   0.46507   0.00000  Uiso   1.00
C590   C     0.52969   0.02398   0.53493   0.00000  Uiso   1.00
C591   C     0.50190   0.29056   0.50079   0.00000  Uiso   1.00
C592   C     0.49811   0.04278   0.49921   0.00000  Uiso   1.00
C593   C     0.46556   0.14219   0.35432   0.00000  Uiso   1.00
C594   C     0.53443   0.19116   0.64568   0.00000  Uiso   1.00
C595   C     0.46569   0.14154   0.63842   0.00000  Uiso   1.00
C596   C     0.53430   0.19180   0.36158   0.00000  Uiso   1.00
Cu597  Cu    0.50000   0.16667   0.54689   0.00000  Uiso   1.00
Cu598  Cu    0.50000   0.16666   0.45311   0.00000  Uiso   1.00
H599   H     0.44648   0.29072   0.43840   0.00000  Uiso   1.00
H600   H     0.55354   0.04261   0.56160   0.00000  Uiso   1.00
H601   H     0.43767   0.12310   0.36987   0.00000  Uiso   1.00
H602   H     0.56230   0.21026   0.63013   0.00000  Uiso   1.00
N603   N     0.50001   0.16668   0.61736   0.00000  Uiso   1.00
N604   N     0.49999   0.16666   0.38264   0.00000  Uiso   1.00
O605   O     0.50000   0.10655   0.53958   0.00000  Uiso   1.00
O606   O     0.50000   0.22678   0.46042   0.00000  Uiso   1.00
O607   O     0.50000   0.10654   0.46039   0.00000  Uiso   1.00
O608   O     0.50000   0.22679   0.53961   0.00000  Uiso   1.00
O609   O     0.42495   0.16667   0.53046   0.00000  Uiso   1.00
O610   O     0.57505   0.16666   0.46954   0.00000  Uiso   1.00
O611   O     0.42494   0.16666   0.45127   0.00000  Uiso   1.00
O612   O     0.57506   0.16667   0.54873   0.00000  Uiso   1.00
C613   C     0.65639   0.12727   0.44733   0.00000  Uiso   1.00
C614   C     0.65504   0.13551   0.39918   0.00000  Uiso   1.00
C615   C     0.63012   0.10737   0.36556   0.00000  Uiso   1.00
C616   C     0.60677   0.07069   0.37970   0.00000  Uiso   1.00
C617   C     0.60870   0.06188   0.42748   0.00000  Uiso   1.00
C618   C     0.63358   0.08991   0.46121   0.00000  Uiso   1.00
H619   H     0.33894   0.16405   0.38772   0.00000  Uiso   1.00
H620   H     0.62864   0.11407   0.66188   0.00000  Uiso   1.00
H621   H     0.58737   0.04903   0.35363   0.00000  Uiso   1.00
H622   H     0.59078   0.03339   0.43840   0.00000  Uiso   1.00
H623   H     0.63441   0.08286   0.49814   0.00000  Uiso   1.00
C624   C     0.34360   0.20608   0.55264   0.00000  Uiso   1.00
C625   C     0.36644   0.24341   0.53871   0.00000  Uiso   1.00
C626   C     0.39137   0.27144   0.57241   0.00000  Uiso   1.00
C627   C     0.39329   0.26266   0.62021   0.00000  Uiso   1.00
C628   C     0.36990   0.22602   0.63440   0.00000  Uiso   1.00
C629   C     0.34494   0.19788   0.60081   0.00000  Uiso   1.00
H630   H     0.36564   0.25042   0.50176   0.00000  Uiso   1.00
H631   H     0.40934   0.29989   0.56145   0.00000  Uiso   1.00
H632   H     0.41272   0.28433   0.64627   0.00000  Uiso   1.00
H633   H     0.37140   0.21934   0.33810   0.00000  Uiso   1.00
H634   H     0.66102   0.16936   0.61229   0.00000  Uiso   1.00
I635   I     0.41469   0.04238   0.41065   0.00000  Uiso   1.00
I636   I     0.58538   0.29093   0.58925   0.00000  Uiso   1.00
I637   I     0.41178   0.09801   0.60168   0.00000  Uiso   1.00
I638   I     0.58817   0.23536   0.39832   0.00000  Uiso   1.00
C639   C     0.83155   0.08740   0.49953   0.00000  Uiso   1.00
C640   C     0.83513   0.24593   0.50047   0.00000  Uiso   1.00
C641   C     0.73480   0.16503   0.48824   0.00000  Uiso   1.00
C642   C     0.93186   0.16829   0.51176   0.00000  Uiso   1.00
C643   C     0.67981   0.15849   0.48343   0.00000  Uiso   1.00
C644   C     0.98686   0.17483   0.51657   0.00000  Uiso   1.00
C645   C     0.80129   0.01861   0.46407   0.00000  Uiso   1.00
C646   C     0.86540   0.31472   0.53592   0.00000  Uiso   1.00
C647   C     0.80365   0.30935   0.46507   0.00000  Uiso   1.00
C648   C     0.86302   0.02398   0.53493   0.00000  Uiso   1.00
C649   C     0.83523   0.29056   0.50079   0.00000  Uiso   1.00
C650   C     0.83144   0.04278   0.49921   0.00000  Uiso   1.00
C651   C     0.79889   0.14219   0.35432   0.00000  Uiso   1.00
C652   C     0.86777   0.19116   0.64568   0.00000  Uiso   1.00
C653   C     0.79902   0.14154   0.63842   0.00000  Uiso   1.00
C654   C     0.86763   0.19180   0.36158   0.00000  Uiso   1.00
Cu655  Cu    0.83333   0.16667   0.54689   0.00000  Uiso   1.00
Cu656  Cu    0.83333   0.16666   0.45311   0.00000  Uiso   1.00
H657   H     0.77981   0.29072   0.43840   0.00000  Uiso   1.00
H658   H     0.88687   0.04261   0.56160   0.00000  Uiso   1.00
H659   H     0.77100   0.12310   0.36987   0.00000  Uiso   1.00
H660   H     0.89564   0.21026   0.63013   0.00000  Uiso   1.00
N661   N     0.83335   0.16668   0.61736   0.00000  Uiso   1.00
N662   N     0.83332   0.16666   0.38264   0.00000  Uiso   1.00
O663   O     0.83333   0.10655   0.53958   0.00000  Uiso   1.00
O664   O     0.83334   0.22678   0.46042   0.00000  Uiso   1.00
O665   O     0.83333   0.10654   0.46039   0.00000  Uiso   1.00
O666   O     0.83334   0.22679   0.53961   0.00000  Uiso   1.00
O667   O     0.75828   0.16667   0.53046   0.00000  Uiso   1.00
O668   O     0.90839   0.16666   0.46954   0.00000  Uiso   1.00
O669   O     0.75828   0.16666   0.45127   0.00000  Uiso   1.00
O670   O     0.90839   0.16667   0.54873   0.00000  Uiso   1.00
C671   C     0.98972   0.12727   0.44733   0.00000  Uiso   1.00
C672   C     0.98837   0.13551   0.39918   0.00000  Uiso   1.00
C673   C     0.96346   0.10737   0.36556   0.00000  Uiso   1.00
C674   C     0.94011   0.07069   0.37970   0.00000  Uiso   1.00
C675   C     0.94204   0.06188   0.42748   0.00000  Uiso   1.00
C676   C     0.96691   0.08991   0.46121   0.00000  Uiso   1.00
H677   H     0.67227   0.16405   0.38772   0.00000  Uiso   1.00
H678   H     0.96197   0.11407   0.66188   0.00000  Uiso   1.00
H679   H     0.92071   0.04903   0.35363   0.00000  Uiso   1.00
H680   H     0.92411   0.03339   0.43840   0.00000  Uiso   1.00
H681   H     0.96775   0.08286   0.49814   0.00000  Uiso   1.00
C682   C     0.67693   0.20608   0.55264   0.00000  Uiso   1.00
C683   C     0.69978   0.24341   0.53871   0.00000  Uiso   1.00
C684   C     0.72470   0.27144   0.57241   0.00000  Uiso   1.00
C685   C     0.72662   0.26266   0.62021   0.00000  Uiso   1.00
C686   C     0.70323   0.22602   0.63440   0.00000  Uiso   1.00
C687   C     0.67827   0.19788   0.60081   0.00000  Uiso   1.00
H688   H     0.69897   0.25042   0.50176   0.00000  Uiso   1.00
H689   H     0.74267   0.29989   0.56145   0.00000  Uiso   1.00
H690   H     0.74605   0.28433   0.64627   0.00000  Uiso   1.00
H691   H     0.70473   0.21934   0.33810   0.00000  Uiso   1.00
H692   H     0.99435   0.16936   0.61229   0.00000  Uiso   1.00
I693   I     0.74803   0.04238   0.41065   0.00000  Uiso   1.00
I694   I     0.91871   0.29093   0.58925   0.00000  Uiso   1.00
I695   I     0.74511   0.09801   0.60168   0.00000  Uiso   1.00
I696   I     0.92150   0.23536   0.39832   0.00000  Uiso   1.00
C697   C     0.16488   0.42073   0.49953   0.00000  Uiso   1.00
C698   C     0.16846   0.57926   0.50047   0.00000  Uiso   1.00
C699   C     0.06814   0.49837   0.48824   0.00000  Uiso   1.00
C700   C     0.26520   0.50162   0.51176   0.00000  Uiso   1.00
C701   C     0.01314   0.49182   0.48343   0.00000  Uiso   1.00
C702   C     0.32019   0.50817   0.51657   0.00000  Uiso   1.00
C703   C     0.13462   0.35194   0.46407   0.00000  Uiso   1.00
C704   C     0.19873   0.64805   0.53592   0.00000  Uiso   1.00
C705   C     0.13699   0.64268   0.46507   0.00000  Uiso   1.00
C706   C     0.19636   0.35732   0.53493   0.00000  Uiso   1.00
C707   C     0.16856   0.62389   0.50079   0.00000  Uiso   1.00
C708   C     0.16478   0.37611   0.49921   0.00000  Uiso   1.00
C709   C     0.13222   0.47552   0.35432   0.00000  Uiso   1.00
C710   C     0.20110   0.52449   0.64568   0.00000  Uiso   1.00
C711   C     0.13236   0.47487   0.63842   0.00000  Uiso   1.00
C712   C     0.20097   0.52514   0.36158   0.00000  Uiso   1.00
Cu713  Cu    0.16667   0.50001   0.54689   0.00000  Uiso   1.00
Cu714  Cu    0.16667   0.49999   0.45311   0.00000  Uiso   1.00
H715   H     0.11314   0.62406   0.43840   0.00000  Uiso   1.00
H716   H     0.22020   0.37594   0.56160   0.00000  Uiso   1.00
H717   H     0.10434   0.45643   0.36987   0.00000  Uiso   1.00
H718   H     0.22897   0.54359   0.63013   0.00000  Uiso   1.00
N719   N     0.16668   0.50001   0.61736   0.00000  Uiso   1.00
N720   N     0.16665   0.49999   0.38264   0.00000  Uiso   1.00
O721   O     0.16666   0.43989   0.53958   0.00000  Uiso   1.00
O722   O     0.16667   0.56011   0.46042   0.00000  Uiso   1.00
O723   O     0.16666   0.43988   0.46039   0.00000  Uiso   1.00
O724   O     0.16667   0.56012   0.53961   0.00000  Uiso   1.00
O725   O     0.09161   0.50000   0.53046   0.00000  Uiso   1.00
O726   O     0.24172   0.50000   0.46954   0.00000  Uiso   1.00
O727   O     0.09161   0.49999   0.45127   0.00000  Uiso   1.00
O728   O     0.24172   0.50001   0.54873   0.00000  Uiso   1.00
C729   C     0.32305   0.46061   0.44733   0.00000  Uiso   1.00
C730   C     0.32171   0.46885   0.39918   0.00000  Uiso   1.00
C731   C     0.29679   0.44070   0.36556   0.00000  Uiso   1.00
C732   C     0.27344   0.40403   0.37970   0.00000  Uiso   1.00
C733   C     0.27537   0.39521   0.42748   0.00000  Uiso   1.00
C734   C     0.30025   0.42325   0.46121   0.00000  Uiso   1.00
H735   H     0.00561   0.49738   0.38772   0.00000  Uiso   1.00
H736   H     0.29531   0.44740   0.66188   0.00000  Uiso   1.00
H737   H     0.25404   0.38236   0.35363   0.00000  Uiso   1.00
H738   H     0.25745   0.36672   0.43840   0.00000  Uiso   1.00
H739   H     0.30108   0.41619   0.49814   0.00000  Uiso   1.00
C740   C     0.01026   0.53941   0.55264   0.00000  Uiso   1.00
C741   C     0.03311   0.57674   0.53871   0.00000  Uiso   1.00
C742   C     0.05803   0.60478   0.57241   0.00000  Uiso   1.00
C743   C     0.05995   0.59600   0.62021   0.00000  Uiso   1.00
C744   C     0.03656   0.55935   0.63440   0.00000  Uiso   1.00
C745   C     0.01161   0.53121   0.60081   0.00000  Uiso   1.00
H746   H     0.03230   0.58375   0.50176   0.00000  Uiso   1.00
H747   H     0.07601   0.63323   0.56145   0.00000  Uiso   1.00
H748   H     0.07939   0.61766   0.64627   0.00000  Uiso   1.00
H749   H     0.03807   0.55267   0.33810   0.00000  Uiso   1.00
H750   H     0.32768   0.50269   0.61229   0.00000  Uiso   1.00
I751   I     0.08136   0.37572   0.41065   0.00000  Uiso   1.00
I752   I     0.25205   0.62426   0.58925   0.00000  Uiso   1.00
I753   I     0.07844   0.43134   0.60168   0.00000  Uiso   1.00
I754   I     0.25484   0.56870   0.39832   0.00000  Uiso   1.00
C755   C     0.49821   0.42073   0.49953   0.00000  Uiso   1.00
C756   C     0.50179   0.57926   0.50047   0.00000  Uiso   1.00
C757   C     0.40147   0.49837   0.48824   0.00000  Uiso   1.00
C758   C     0.59853   0.50162   0.51176   0.00000  Uiso   1.00
C759   C     0.34647   0.49182   0.48343   0.00000  Uiso   1.00
C760   C     0.65352   0.50817   0.51657   0.00000  Uiso   1.00
C761   C     0.46795   0.35194   0.46407   0.00000  Uiso   1.00
C762   C     0.53206   0.64805   0.53592   0.00000  Uiso   1.00
C763   C     0.47032   0.64268   0.46507   0.00000  Uiso   1.00
C764   C     0.52969   0.35732   0.53493   0.00000  Uiso   1.00
C765   C     0.50190   0.62389   0.50079   0.00000  Uiso   1.00
C766   C     0.49811   0.37611   0.49921   0.00000  Uiso   1.00
C767   C     0.46556   0.47552   0.35432   0.00000  Uiso   1.00
C768   C     0.53443   0.52449   0.64568   0.00000  Uiso   1.00
C769   C     0.46569   0.47487   0.63842   0.00000  Uiso   1.00
C770   C     0.53430   0.52514   0.36158   0.00000  Uiso   1.00
Cu771  Cu    0.50000   0.50001   0.54689   0.00000  Uiso   1.00
Cu772  Cu    0.50000   0.49999   0.45311   0.00000  Uiso   1.00
H773   H     0.44648   0.62406   0.43840   0.00000  Uiso   1.00
H774   H     0.55354   0.37594   0.56160   0.00000  Uiso   1.00
H775   H     0.43767   0.45643   0.36987   0.00000  Uiso   1.00
H776   H     0.56230   0.54359   0.63013   0.00000  Uiso   1.00
N777   N     0.50001   0.50001   0.61736   0.00000  Uiso   1.00
N778   N     0.49999   0.49999   0.38264   0.00000  Uiso   1.00
O779   O     0.50000   0.43989   0.53958   0.00000  Uiso   1.00
O780   O     0.50000   0.56011   0.46042   0.00000  Uiso   1.00
O781   O     0.50000   0.43988   0.46039   0.00000  Uiso   1.00
O782   O     0.50000   0.56012   0.53961   0.00000  Uiso   1.00
O783   O     0.42495   0.50000   0.53046   0.00000  Uiso   1.00
O784   O     0.57505   0.50000   0.46954   0.00000  Uiso   1.00
O785   O     0.42494   0.49999   0.45127   0.00000  Uiso   1.00
O786   O     0.57506   0.50001   0.54873   0.00000  Uiso   1.00
C787   C     0.65639   0.46061   0.44733   0.00000  Uiso   1.00
C788   C     0.65504   0.46885   0.39918   0.00000  Uiso   1.00
C789   C     0.63012   0.44070   0.36556   0.00000  Uiso   1.00
C790   C     0.60677   0.40403   0.37970   0.00000  Uiso   1.00
C791   C     0.60870   0.39521   0.42748   0.00000  Uiso   1.00
C792   C     0.63358   0.42325   0.46121   0.00000  Uiso   1.00
H793   H     0.33894   0.49738   0.38772   0.00000  Uiso   1.00
H794   H     0.62864   0.44740   0.66188   0.00000  Uiso   1.00
H795   H     0.58737   0.38236   0.35363   0.00000  Uiso   1.00
H796   H     0.59078   0.36672   0.43840   0.00000  Uiso   1.00
H797   H     0.63441   0.41619   0.49814   0.00000  Uiso   1.00
C798   C     0.34360   0.53941   0.55264   0.00000  Uiso   1.00
C799   C     0.36644   0.57674   0.53871   0.00000  Uiso   1.00
C800   C     0.39137   0.60478   0.57241   0.00000  Uiso   1.00
C801   C     0.39329   0.59600   0.62021   0.00000  Uiso   1.00
C802   C     0.36990   0.55935   0.63440   0.00000  Uiso   1.00
C803   C     0.34494   0.53121   0.60081   0.00000  Uiso   1.00
H804   H     0.36564   0.58375   0.50176   0.00000  Uiso   1.00
H805   H     0.40934   0.63323   0.56145   0.00000  Uiso   1.00
H806   H     0.41272   0.61766   0.64627   0.00000  Uiso   1.00
H807   H     0.37140   0.55267   0.33810   0.00000  Uiso   1.00
H808   H     0.66102   0.50269   0.61229   0.00000  Uiso   1.00
I809   I     0.41469   0.37572   0.41065   0.00000  Uiso   1.00
I810   I     0.58538   0.62426   0.58925   0.00000  Uiso   1.00
I811   I     0.41178   0.43134   0.60168   0.00000  Uiso   1.00
I812   I     0.58817   0.56870   0.39832   0.00000  Uiso   1.00
C813   C     0.83155   0.42073   0.49953   0.00000  Uiso   1.00
C814   C     0.83513   0.57926   0.50047   0.00000  Uiso   1.00
C815   C     0.73480   0.49837   0.48824   0.00000  Uiso   1.00
C816   C     0.93186   0.50162   0.51176   0.00000  Uiso   1.00
C817   C     0.67981   0.49182   0.48343   0.00000  Uiso   1.00
C818   C     0.98686   0.50817   0.51657   0.00000  Uiso   1.00
C819   C     0.80129   0.35194   0.46407   0.00000  Uiso   1.00
C820   C     0.86540   0.64805   0.53592   0.00000  Uiso   1.00
C821   C     0.80365   0.64268   0.46507   0.00000  Uiso   1.00
C822   C     0.86302   0.35732   0.53493   0.00000  Uiso   1.00
C823   C     0.83523   0.62389   0.50079   0.00000  Uiso   1.00
C824   C     0.83144   0.37611   0.49921   0.00000  Uiso   1.00
C825   C     0.79889   0.47552   0.35432   0.00000  Uiso   1.00
C826   C     0.86777   0.52449   0.64568   0.00000  Uiso   1.00
C827   C     0.79902   0.47487   0.63842   0.00000  Uiso   1.00
C828   C     0.86763   0.52514   0.36158   0.00000  Uiso   1.00
Cu829  Cu    0.83333   0.50001   0.54689   0.00000  Uiso   1.00
Cu830  Cu    0.83333   0.49999   0.45311   0.00000  Uiso   1.00
H831   H     0.77981   0.62406   0.43840   0.00000  Uiso   1.00
H832   H     0.88687   0.37594   0.56160   0.00000  Uiso   1.00
H833   H     0.77100   0.45643   0.36987   0.00000  Uiso   1.00
H834   H     0.89564   0.54359   0.63013   0.00000  Uiso   1.00
N835   N     0.83335   0.50001   0.61736   0.00000  Uiso   1.00
N836   N     0.83332   0.49999   0.38264   0.00000  Uiso   1.00
O837   O     0.83333   0.43989   0.53958   0.00000  Uiso   1.00
O838   O     0.83334   0.56011   0.46042   0.00000  Uiso   1.00
O839   O     0.83333   0.43988   0.46039   0.00000  Uiso   1.00
O840   O     0.83334   0.56012   0.53961   0.00000  Uiso   1.00
O841   O     0.75828   0.50000   0.53046   0.00000  Uiso   1.00
O842   O     0.90839   0.50000   0.46954   0.00000  Uiso   1.00
O843   O     0.75828   0.49999   0.45127   0.00000  Uiso   1.00
O844   O     0.90839   0.50001   0.54873   0.00000  Uiso   1.00
C845   C     0.98972   0.46061   0.44733   0.00000  Uiso   1.00
C846   C     0.98837   0.46885   0.39918   0.00000  Uiso   1.00
C847   C     0.96346   0.44070   0.36556   0.00000  Uiso   1.00
C848   C     0.94011   0.40403   0.37970   0.00000  Uiso   1.00
C849   C     0.94204   0.39521   0.42748   0.00000  Uiso   1.00
C850   C     0.96691   0.42325   0.46121   0.00000  Uiso   1.00
H851   H     0.67227   0.49738   0.38772   0.00000  Uiso   1.00
H852   H     0.96197   0.44740   0.66188   0.00000  Uiso   1.00
H853   H     0.92071   0.38236   0.35363   0.00000  Uiso   1.00
H854   H     0.92411   0.36672   0.43840   0.00000  Uiso   1.00
H855   H     0.96775   0.41619   0.49814   0.00000  Uiso   1.00
C856   C     0.67693   0.53941   0.55264   0.00000  Uiso   1.00
C857   C     0.69978   0.57674   0.53871   0.00000  Uiso   1.00
C858   C     0.72470   0.60478   0.57241   0.00000  Uiso   1.00
C859   C     0.72662   0.59600   0.62021   0.00000  Uiso   1.00
C860   C     0.70323   0.55935   0.63440   0.00000  Uiso   1.00
C861   C     0.67827   0.53121   0.60081   0.00000  Uiso   1.00
H862   H     0.69897   0.58375   0.50176   0.00000  Uiso   1.00
H863   H     0.74267   0.63323   0.56145   0.00000  Uiso   1.00
H864   H     0.74605   0.61766   0.64627   0.00000  Uiso   1.00
H865   H     0.70473   0.55267   0.33810   0.00000  Uiso   1.00
H866   H     0.99435   0.50269   0.61229   0.00000  Uiso   1.00
I867   I     0.74803   0.37572   0.41065   0.00000  Uiso   1.00
I868   I     0.91871   0.62426   0.58925   0.00000  Uiso   1.00
I869   I     0.74511   0.43134   0.60168   0.00000  Uiso   1.00
I870   I     0.92150   0.56870   0.39832   0.00000  Uiso   1.00
C871   C     0.16488   0.75407   0.49953   0.00000  Uiso   1.00
C872   C     0.16846   0.91260   0.50047   0.00000  Uiso   1.00
C873   C     0.06814   0.83170   0.48824   0.00000  Uiso   1.00
C874   C     0.26520   0.83495   0.51176   0.00000  Uiso   1.00
C875   C     0.01314   0.82515   0.48343   0.00000  Uiso   1.00
C876   C     0.32019   0.84150   0.51657   0.00000  Uiso   1.00
C877   C     0.13462   0.68528   0.46407   0.00000  Uiso   1.00
C878   C     0.19873   0.98139   0.53592   0.00000  Uiso   1.00
C879   C     0.13699   0.97601   0.46507   0.00000  Uiso   1.00
C880   C     0.19636   0.69065   0.53493   0.00000  Uiso   1.00
C881   C     0.16856   0.95722   0.50079   0.00000  Uiso   1.00
C882   C     0.16478   0.70944   0.49921   0.00000  Uiso   1.00
C883   C     0.13222   0.80885   0.35432   0.00000  Uiso   1.00
C884   C     0.20110   0.85782   0.64568   0.00000  Uiso   1.00
C885   C     0.13236   0.80821   0.63842   0.00000  Uiso   1.00
C886   C     0.20097   0.85847   0.36158   0.00000  Uiso   1.00
Cu887  Cu    0.16667   0.83334   0.54689   0.00000  Uiso   1.00
Cu888  Cu    0.16667   0.83333   0.45311   0.00000  Uiso   1.00
H889   H     0.11314   0.95739   0.43840   0.00000  Uiso   1.00
H890   H     0.22020   0.70927   0.56160   0.00000  Uiso   1.00
H891   H     0.10434   0.78977   0.36987   0.00000  Uiso   1.00
H892   H     0.22897   0.87693   0.63013   0.00000  Uiso   1.00
N893   N     0.16668   0.83334   0.61736   0.00000  Uiso   1.00
N894   N     0.16665   0.83332   0.38264   0.00000  Uiso   1.00
O895   O     0.16666   0.77322   0.53958   0.00000  Uiso   1.00
O896   O     0.16667   0.89345   0.46042   0.00000  Uiso   1.00
O897   O     0.16666   0.77321   0.46039   0.00000  Uiso   1.00
O898   O     0.16667   0.89346   0.53961   0.00000  Uiso   1.00
O899   O     0.09161   0.83334   0.53046   0.00000  Uiso   1.00
O900   O     0.24172   0.83333   0.46954   0.00000  Uiso   1.00
O901   O     0.09161   0.83333   0.45127   0.00000  Uiso   1.00
O902   O     0.24172   0.83334   0.54873   0.00000  Uiso   1.00
C903   C     0.32305   0.79394   0.44733   0.00000  Uiso   1.00
C904   C     0.32171   0.80218   0.39918   0.00000  Uiso   1.00
C905   C     0.29679   0.77404   0.36556   0.00000  Uiso   1.00
C906   C     0.27344   0.73736   0.37970   0.00000  Uiso   1.00
C907   C     0.27537   0.72854   0.42748   0.00000  Uiso   1.00
C908   C     0.30025   0.75658   0.46121   0.00000  Uiso   1.00
H909   H     0.00561   0.83072   0.38772   0.00000  Uiso   1.00
H910   H     0.29531   0.78074   0.66188   0.00000  Uiso   1.00
H911   H     0.25404   0.71569   0.35363   0.00000  Uiso   1.00
H912   H     0.25745   0.70005   0.43840   0.00000  Uiso   1.00
H913   H     0.30108   0.74953   0.49814   0.00000  Uiso   1.00
C914   C     0.01026   0.87275   0.55264   0.00000  Uiso   1.00
C915   C     0.03311   0.91008   0.53871   0.00000  Uiso   1.00
C916   C     0.05803   0.93811   0.57241   0.00000  Uiso   1.00
C917   C     0.05995   0.92933   0.62021   0.00000  Uiso   1.00
C918   C     0.03656   0.89269   0.63440   0.00000  Uiso   1.00
C919   C     0.01161   0.86454   0.60081   0.00000  Uiso   1.00
H920   H     0.03230   0.91709   0.50176   0.00000  Uiso   1.00
H921   H     0.07601   0.96656   0.56145   0.00000  Uiso   1.00
H922   H     0.07939   0.95099   0.64627   0.00000  Uiso   1.00
H923   H     0.03807   0.88601   0.33810   0.00000  Uiso   1.00
H924   H     0.32768   0.83603   0.61229   0.00000  Uiso   1.00
I925   I     0.08136   0.70905   0.41065   0.00000  Uiso   1.00
I926   I     0.25205   0.95760   0.58925   0.00000  Uiso   1.00
I927   I     0.07844   0.76468   0.60168   0.00000  Uiso   1.00
I928   I     0.25484   0.90203   0.39832   0.00000  Uiso   1.00
C929   C     0.49821   0.75407   0.49953   0.00000  Uiso   1.00
C930   C     0.50179   0.91260   0.50047   0.00000  Uiso   1.00
C931   C     0.40147   0.83170   0.48824   0.00000  Uiso   1.00
C932   C     0.59853   0.83495   0.51176   0.00000  Uiso   1.00
C933   C     0.34647   0.82515   0.48343   0.00000  Uiso   1.00
C934   C     0.65352   0.84150   0.51657   0.00000  Uiso   1.00
C935   C     0.46795   0.68528   0.46407   0.00000  Uiso   1.00
C936   C     0.53206   0.98139   0.53592   0.00000  Uiso   1.00
C937   C     0.47032   0.97601   0.46507   0.00000  Uiso   1.00
C938   C     0.52969   0.69065   0.53493   0.00000  Uiso   1.00
C939   C     0.50190   0.95722   0.50079   0.00000  Uiso   1.00
C940   C     0.49811   0.70944   0.49921   0.00000  Uiso   1.00
C941   C     0.46556   0.80885   0.35432   0.00000  Uiso   1.00
C942   C     0.53443   0.85782   0.64568   0.00000  Uiso   1.00
C943   C     0.46569   0.80821   0.63842   0.00000  Uiso   1.00
C944   C     0.53430   0.85847   0.36158   0.00000  Uiso   1.00
Cu945  Cu    0.50000   0.83334   0.54689   0.00000  Uiso   1.00
Cu946  Cu    0.50000   0.83333   0.45311   0.00000  Uiso   1.00
H947   H     0.44648   0.95739   0.43840   0.00000  Uiso   1.00
H948   H     0.55354   0.70927   0.56160   0.00000  Uiso   1.00
H949   H     0.43767   0.78977   0.36987   0.00000  Uiso   1.00
H950   H     0.56230   0.87693   0.63013   0.00000  Uiso   1.00
N951   N     0.50001   0.83334   0.61736   0.00000  Uiso   1.00
N952   N     0.49999   0.83332   0.38264   0.00000  Uiso   1.00
O953   O     0.50000   0.77322   0.53958   0.00000  Uiso   1.00
O954   O     0.50000   0.89345   0.46042   0.00000  Uiso   1.00
O955   O     0.50000   0.77321   0.46039   0.00000  Uiso   1.00
O956   O     0.50000   0.89346   0.53961   0.00000  Uiso   1.00
O957   O     0.42495   0.83334   0.53046   0.00000  Uiso   1.00
O958   O     0.57505   0.83333   0.46954   0.00000  Uiso   1.00
O959   O     0.42494   0.83333   0.45127   0.00000  Uiso   1.00
O960   O     0.57506   0.83334   0.54873   0.00000  Uiso   1.00
C961   C     0.65639   0.79394   0.44733   0.00000  Uiso   1.00
C962   C     0.65504   0.80218   0.39918   0.00000  Uiso   1.00
C963   C     0.63012   0.77404   0.36556   0.00000  Uiso   1.00
C964   C     0.60677   0.73736   0.37970   0.00000  Uiso   1.00
C965   C     0.60870   0.72854   0.42748   0.00000  Uiso   1.00
C966   C     0.63358   0.75658   0.46121   0.00000  Uiso   1.00
H967   H     0.33894   0.83072   0.38772   0.00000  Uiso   1.00
H968   H     0.62864   0.78074   0.66188   0.00000  Uiso   1.00
H969   H     0.58737   0.71569   0.35363   0.00000  Uiso   1.00
H970   H     0.59078   0.70005   0.43840   0.00000  Uiso   1.00
H971   H     0.63441   0.74953   0.49814   0.00000  Uiso   1.00
C972   C     0.34360   0.87275   0.55264   0.00000  Uiso   1.00
C973   C     0.36644   0.91008   0.53871   0.00000  Uiso   1.00
C974   C     0.39137   0.93811   0.57241   0.00000  Uiso   1.00
C975   C     0.39329   0.92933   0.62021   0.00000  Uiso   1.00
C976   C     0.36990   0.89269   0.63440   0.00000  Uiso   1.00
C977   C     0.34494   0.86454   0.60081   0.00000  Uiso   1.00
H978   H     0.36564   0.91709   0.50176   0.00000  Uiso   1.00
H979   H     0.40934   0.96656   0.56145   0.00000  Uiso   1.00
H980   H     0.41272   0.95099   0.64627   0.00000  Uiso   1.00
H981   H     0.37140   0.88601   0.33810   0.00000  Uiso   1.00
H982   H     0.66102   0.83603   0.61229   0.00000  Uiso   1.00
I983   I     0.41469   0.70905   0.41065   0.00000  Uiso   1.00
I984   I     0.58538   0.95760   0.58925   0.00000  Uiso   1.00
I985   I     0.41178   0.76468   0.60168   0.00000  Uiso   1.00
I986   I     0.58817   0.90203   0.39832   0.00000  Uiso   1.00
C987   C     0.83155   0.75407   0.49953   0.00000  Uiso   1.00
C988   C     0.83513   0.91260   0.50047   0.00000  Uiso   1.00
C989   C     0.73480   0.83170   0.48824   0.00000  Uiso   1.00
C990   C     0.93186   0.83495   0.51176   0.00000  Uiso   1.00
C991   C     0.67981   0.82515   0.48343   0.00000  Uiso   1.00
C992   C     0.98686   0.84150   0.51657   0.00000  Uiso   1.00
C993   C     0.80129   0.68528   0.46407   0.00000  Uiso   1.00
C994   C     0.86540   0.98139   0.53592   0.00000  Uiso   1.00
C995   C     0.80365   0.97601   0.46507   0.00000  Uiso   1.00
C996   C     0.86302   0.69065   0.53493   0.00000  Uiso   1.00
C997   C     0.83523   0.95722   0.50079   0.00000  Uiso   1.00
C998   C     0.83144   0.70944   0.49921   0.00000  Uiso   1.00
C999   C     0.79889   0.80885   0.35432   0.00000  Uiso   1.00
C1000  C     0.86777   0.85782   0.64568   0.00000  Uiso   1.00
C1001  C     0.79902   0.80821   0.63842   0.00000  Uiso   1.00
C1002  C     0.86763   0.85847   0.36158   0.00000  Uiso   1.00
Cu1003 Cu    0.83333   0.83334   0.54689   0.00000  Uiso   1.00
Cu1004 Cu    0.83333   0.83333   0.45311   0.00000  Uiso   1.00
H1005  H     0.77981   0.95739   0.43840   0.00000  Uiso   1.00
H1006  H     0.88687   0.70927   0.56160   0.00000  Uiso   1.00
H1007  H     0.77100   0.78977   0.36987   0.00000  Uiso   1.00
H1008  H     0.89564   0.87693   0.63013   0.00000  Uiso   1.00
N1009  N     0.83335   0.83334   0.61736   0.00000  Uiso   1.00
N1010  N     0.83332   0.83332   0.38264   0.00000  Uiso   1.00
O1011  O     0.83333   0.77322   0.53958   0.00000  Uiso   1.00
O1012  O     0.83334   0.89345   0.46042   0.00000  Uiso   1.00
O1013  O     0.83333   0.77321   0.46039   0.00000  Uiso   1.00
O1014  O     0.83334   0.89346   0.53961   0.00000  Uiso   1.00
O1015  O     0.75828   0.83334   0.53046   0.00000  Uiso   1.00
O1016  O     0.90839   0.83333   0.46954   0.00000  Uiso   1.00
O1017  O     0.75828   0.83333   0.45127   0.00000  Uiso   1.00
O1018  O     0.90839   0.83334   0.54873   0.00000  Uiso   1.00
C1019  C     0.98972   0.79394   0.44733   0.00000  Uiso   1.00
C1020  C     0.98837   0.80218   0.39918   0.00000  Uiso   1.00
C1021  C     0.96346   0.77404   0.36556   0.00000  Uiso   1.00
C1022  C     0.94011   0.73736   0.37970   0.00000  Uiso   1.00
C1023  C     0.94204   0.72854   0.42748   0.00000  Uiso   1.00
C1024  C     0.96691   0.75658   0.46121   0.00000  Uiso   1.00
H1025  H     0.67227   0.83072   0.38772   0.00000  Uiso   1.00
H1026  H     0.96197   0.78074   0.66188   0.00000  Uiso   1.00
H1027  H     0.92071   0.71569   0.35363   0.00000  Uiso   1.00
H1028  H     0.92411   0.70005   0.43840   0.00000  Uiso   1.00
H1029  H     0.96775   0.74953   0.49814   0.00000  Uiso   1.00
C1030  C     0.67693   0.87275   0.55264   0.00000  Uiso   1.00
C1031  C     0.69978   0.91008   0.53871   0.00000  Uiso   1.00
C1032  C     0.72470   0.93811   0.57241   0.00000  Uiso   1.00
C1033  C     0.72662   0.92933   0.62021   0.00000  Uiso   1.00
C1034  C     0.70323   0.89269   0.63440   0.00000  Uiso   1.00
C1035  C     0.67827   0.86454   0.60081   0.00000  Uiso   1.00
H1036  H     0.69897   0.91709   0.50176   0.00000  Uiso   1.00
H1037  H     0.74267   0.96656   0.56145   0.00000  Uiso   1.00
H1038  H     0.74605   0.95099   0.64627   0.00000  Uiso   1.00
H1039  H     0.70473   0.88601   0.33810   0.00000  Uiso   1.00
H1040  H     0.99435   0.83603   0.61229   0.00000  Uiso   1.00
I1041  I     0.74803   0.70905   0.41065   0.00000  Uiso   1.00
I1042  I     0.91871   0.95760   0.58925   0.00000  Uiso   1.00
I1043  I     0.74511   0.76468   0.60168   0.00000  Uiso   1.00
I1044  I     0.92150   0.90203   0.39832   0.00000  Uiso   1.00
C1045  C     0.16488   0.08740   0.83286   0.00000  Uiso   1.00
C1046  C     0.16846   0.24593   0.83380   0.00000  Uiso   1.00
C1047  C     0.06814   0.16503   0.82157   0.00000  Uiso   1.00
C1048  C     0.26520   0.16829   0.84509   0.00000  Uiso   1.00
C1049  C     0.01314   0.15849   0.81676   0.00000  Uiso   1.00
C1050  C     0.32019   0.17483   0.84991   0.00000  Uiso   1.00
C1051  C     0.13462   0.01861   0.79741   0.00000  Uiso   1.00
C1052  C     0.19873   0.31472   0.86925   0.00000  Uiso   1.00
C1053  C     0.13699   0.30935   0.79841   0.00000  Uiso   1.00
C1054  C     0.19636   0.02398   0.86826   0.00000  Uiso   1.00
C1055  C     0.16856   0.29056   0.83413   0.00000  Uiso   1.00
C1056  C     0.16478   0.04278   0.83254   0.00000  Uiso   1.00
C1057  C     0.13222   0.14219   0.68766   0.00000  Uiso   1.00
C1058  C     0.20110   0.19116   0.97901   0.00000  Uiso   1.00
C1059  C     0.13236   0.14154   0.97175   0.00000  Uiso   1.00
C1060  C     0.20097   0.19180   0.69492   0.00000  Uiso   1.00
Cu1061 Cu    0.16667   0.16667   0.88022   0.00000  Uiso   1.00
Cu1062 Cu    0.16667   0.16666   0.78645   0.00000  Uiso   1.00
H1063  H     0.11314   0.29072   0.77173   0.00000  Uiso   1.00
H1064  H     0.22020   0.04261   0.89493   0.00000  Uiso   1.00
H1065  H     0.10434   0.12310   0.70320   0.00000  Uiso   1.00
H1066  H     0.22897   0.21026   0.96346   0.00000  Uiso   1.00
N1067  N     0.16668   0.16668   0.95069   0.00000  Uiso   1.00
N1068  N     0.16665   0.16666   0.71597   0.00000  Uiso   1.00
O1069  O     0.16666   0.10655   0.87291   0.00000  Uiso   1.00
O1070  O     0.16667   0.22678   0.79375   0.00000  Uiso   1.00
O1071  O     0.16666   0.10654   0.79372   0.00000  Uiso   1.00
O1072  O     0.16667   0.22679   0.87294   0.00000  Uiso   1.00
O1073  O     0.09161   0.16667   0.86379   0.00000  Uiso   1.00
O1074  O     0.24172   0.16666   0.80288   0.00000  Uiso   1.00
O1075  O     0.09161   0.16666   0.78460   0.00000  Uiso   1.00
O1076  O     0.24172   0.16667   0.88207   0.00000  Uiso   1.00
C1077  C     0.32305   0.12727   0.78066   0.00000  Uiso   1.00
C1078  C     0.32171   0.13551   0.73251   0.00000  Uiso   1.00
C1079  C     0.29679   0.10737   0.69890   0.00000  Uiso   1.00
C1080  C     0.27344   0.07069   0.71304   0.00000  Uiso   1.00
C1081  C     0.27537   0.06188   0.76082   0.00000  Uiso   1.00
C1082  C     0.30025   0.08991   0.79455   0.00000  Uiso   1.00
H1083  H     0.00561   0.16405   0.72106   0.00000  Uiso   1.00
H1084  H     0.29531   0.11407   0.99521   0.00000  Uiso   1.00
H1085  H     0.25404   0.04903   0.68696   0.00000  Uiso   1.00
H1086  H     0.25745   0.03339   0.77173   0.00000  Uiso   1.00
H1087  H     0.30108   0.08286   0.83147   0.00000  Uiso   1.00
C1088  C     0.01026   0.20608   0.88597   0.00000  Uiso   1.00
C1089  C     0.03311   0.24341   0.87204   0.00000  Uiso   1.00
C1090  C     0.05803   0.27144   0.90574   0.00000  Uiso   1.00
C1091  C     0.05995   0.26266   0.95355   0.00000  Uiso   1.00
C1092  C     0.03656   0.22602   0.96773   0.00000  Uiso   1.00
C1093  C     0.01161   0.19788   0.93414   0.00000  Uiso   1.00
H1094  H     0.03230   0.25042   0.83509   0.00000  Uiso   1.00
H1095  H     0.07601   0.29989   0.89478   0.00000  Uiso   1.00
H1096  H     0.07939   0.28433   0.97960   0.00000  Uiso   1.00
H1097  H     0.03807   0.21934   0.67143   0.00000  Uiso   1.00
H1098  H     0.32768   0.16936   0.94563   0.00000  Uiso   1.00
I1099  I     0.08136   0.04238   0.74399   0.00000  Uiso   1.00
I1100  I     0.25205   0.29093   0.92258   0.00000  Uiso   1.00
I1101  I     0.07844   0.09801   0.93501   0.00000  Uiso   1.00
I1102  I     0.25484   0.23536   0.73165   0.00000  Uiso   1.00
C1103  C     0.49821   0.08740   0.83286   0.00000  Uiso   1.00
C1104  C     0.50179   0.24593   0.83380   0.00000  Uiso   1.00
C1105  C     0.40147   0.16503   0.82157   0.00000  Uiso   1.00
C1106  C     0.59853   0.16829   0.84509   0.00000  Uiso   1.00
C1107  C     0.34647   0.15849   0.81676   0.00000  Uiso   1.00
C1108  C     0.65352   0.17483   0.84991   0.00000  Uiso   1.00
C1109  C     0.46795   0.01861   0.79741   0.00000  Uiso   1.00
C1110  C     0.53206   0.31472   0.86925   0.00000  Uiso   1.00
C1111  C     0.47032   0.30935   0.79841   0.00000  Uiso   1.00
C1112  C     0.52969   0.02398   0.86826   0.00000  Uiso   1.00
C1113  C     0.50190   0.29056   0.83413   0.00000  Uiso   1.00
C1114  C     0.49811   0.04278   0.83254   0.00000  Uiso   1.00
C1115  C     0.46556   0.14219   0.68766   0.00000  Uiso   1.00
C1116  C     0.53443   0.19116   0.97901   0.00000  Uiso   1.00
C1117  C     0.46569   0.14154   0.97175   0.00000  Uiso   1.00
C1118  C     0.53430   0.19180   0.69492   0.00000  Uiso   1.00
Cu1119 Cu    0.50000   0.16667   0.88022   0.00000  Uiso   1.00
Cu1120 Cu    0.50000   0.16666   0.78645   0.00000  Uiso   1.00
H1121  H     0.44648   0.29072   0.77173   0.00000  Uiso   1.00
H1122  H     0.55354   0.04261   0.89493   0.00000  Uiso   1.00
H1123  H     0.43767   0.12310   0.70320   0.00000  Uiso   1.00
H1124  H     0.56230   0.21026   0.96346   0.00000  Uiso   1.00
N1125  N     0.50001   0.16668   0.95069   0.00000  Uiso   1.00
N1126  N     0.49999   0.16666   0.71597   0.00000  Uiso   1.00
O1127  O     0.50000   0.10655   0.87291   0.00000  Uiso   1.00
O1128  O     0.50000   0.22678   0.79375   0.00000  Uiso   1.00
O1129  O     0.50000   0.10654   0.79372   0.00000  Uiso   1.00
O1130  O     0.50000   0.22679   0.87294   0.00000  Uiso   1.00
O1131  O     0.42495   0.16667   0.86379   0.00000  Uiso   1.00
O1132  O     0.57505   0.16666   0.80288   0.00000  Uiso   1.00
O1133  O     0.42494   0.16666   0.78460   0.00000  Uiso   1.00
O1134  O     0.57506   0.16667   0.88207   0.00000  Uiso   1.00
C1135  C     0.65639   0.12727   0.78066   0.00000  Uiso   1.00
C1136  C     0.65504   0.13551   0.73251   0.00000  Uiso   1.00
C1137  C     0.63012   0.10737   0.69890   0.00000  Uiso   1.00
C1138  C     0.60677   0.07069   0.71304   0.00000  Uiso   1.00
C1139  C     0.60870   0.06188   0.76082   0.00000  Uiso   1.00
C1140  C     0.63358   0.08991   0.79455   0.00000  Uiso   1.00
H1141  H     0.33894   0.16405   0.72106   0.00000  Uiso   1.00
H1142  H     0.62864   0.11407   0.99521   0.00000  Uiso   1.00
H1143  H     0.58737   0.04903   0.68696   0.00000  Uiso   1.00
H1144  H     0.59078   0.03339   0.77173   0.00000  Uiso   1.00
H1145  H     0.63441   0.08286   0.83147   0.00000  Uiso   1.00
C1146  C     0.34360   0.20608   0.88597   0.00000  Uiso   1.00
C1147  C     0.36644   0.24341   0.87204   0.00000  Uiso   1.00
C1148  C     0.39137   0.27144   0.90574   0.00000  Uiso   1.00
C1149  C     0.39329   0.26266   0.95355   0.00000  Uiso   1.00
C1150  C     0.36990   0.22602   0.96773   0.00000  Uiso   1.00
C1151  C     0.34494   0.19788   0.93414   0.00000  Uiso   1.00
H1152  H     0.36564   0.25042   0.83509   0.00000  Uiso   1.00
H1153  H     0.40934   0.29989   0.89478   0.00000  Uiso   1.00
H1154  H     0.41272   0.28433   0.97960   0.00000  Uiso   1.00
H1155  H     0.37140   0.21934   0.67143   0.00000  Uiso   1.00
H1156  H     0.66102   0.16936   0.94563   0.00000  Uiso   1.00
I1157  I     0.41469   0.04238   0.74399   0.00000  Uiso   1.00
I1158  I     0.58538   0.29093   0.92258   0.00000  Uiso   1.00
I1159  I     0.41178   0.09801   0.93501   0.00000  Uiso   1.00
I1160  I     0.58817   0.23536   0.73165   0.00000  Uiso   1.00
C1161  C     0.83155   0.08740   0.83286   0.00000  Uiso   1.00
C1162  C     0.83513   0.24593   0.83380   0.00000  Uiso   1.00
C1163  C     0.73480   0.16503   0.82157   0.00000  Uiso   1.00
C1164  C     0.93186   0.16829   0.84509   0.00000  Uiso   1.00
C1165  C     0.67981   0.15849   0.81676   0.00000  Uiso   1.00
C1166  C     0.98686   0.17483   0.84991   0.00000  Uiso   1.00
C1167  C     0.80129   0.01861   0.79741   0.00000  Uiso   1.00
C1168  C     0.86540   0.31472   0.86925   0.00000  Uiso   1.00
C1169  C     0.80365   0.30935   0.79841   0.00000  Uiso   1.00
C1170  C     0.86302   0.02398   0.86826   0.00000  Uiso   1.00
C1171  C     0.83523   0.29056   0.83413   0.00000  Uiso   1.00
C1172  C     0.83144   0.04278   0.83254   0.00000  Uiso   1.00
C1173  C     0.79889   0.14219   0.68766   0.00000  Uiso   1.00
C1174  C     0.86777   0.19116   0.97901   0.00000  Uiso   1.00
C1175  C     0.79902   0.14154   0.97175   0.00000  Uiso   1.00
C1176  C     0.86763   0.19180   0.69492   0.00000  Uiso   1.00
Cu1177 Cu    0.83333   0.16667   0.88022   0.00000  Uiso   1.00
Cu1178 Cu    0.83333   0.16666   0.78645   0.00000  Uiso   1.00
H1179  H     0.77981   0.29072   0.77173   0.00000  Uiso   1.00
H1180  H     0.88687   0.04261   0.89493   0.00000  Uiso   1.00
H1181  H     0.77100   0.12310   0.70320   0.00000  Uiso   1.00
H1182  H     0.89564   0.21026   0.96346   0.00000  Uiso   1.00
N1183  N     0.83335   0.16668   0.95069   0.00000  Uiso   1.00
N1184  N     0.83332   0.16666   0.71597   0.00000  Uiso   1.00
O1185  O     0.83333   0.10655   0.87291   0.00000  Uiso   1.00
O1186  O     0.83334   0.22678   0.79375   0.00000  Uiso   1.00
O1187  O     0.83333   0.10654   0.79372   0.00000  Uiso   1.00
O1188  O     0.83334   0.22679   0.87294   0.00000  Uiso   1.00
O1189  O     0.75828   0.16667   0.86379   0.00000  Uiso   1.00
O1190  O     0.90839   0.16666   0.80288   0.00000  Uiso   1.00
O1191  O     0.75828   0.16666   0.78460   0.00000  Uiso   1.00
O1192  O     0.90839   0.16667   0.88207   0.00000  Uiso   1.00
C1193  C     0.98972   0.12727   0.78066   0.00000  Uiso   1.00
C1194  C     0.98837   0.13551   0.73251   0.00000  Uiso   1.00
C1195  C     0.96346   0.10737   0.69890   0.00000  Uiso   1.00
C1196  C     0.94011   0.07069   0.71304   0.00000  Uiso   1.00
C1197  C     0.94204   0.06188   0.76082   0.00000  Uiso   1.00
C1198  C     0.96691   0.08991   0.79455   0.00000  Uiso   1.00
H1199  H     0.67227   0.16405   0.72106   0.00000  Uiso   1.00
H1200  H     0.96197   0.11407   0.99521   0.00000  Uiso   1.00
H1201  H     0.92071   0.04903   0.68696   0.00000  Uiso   1.00
H1202  H     0.92411   0.03339   0.77173   0.00000  Uiso   1.00
H1203  H     0.96775   0.08286   0.83147   0.00000  Uiso   1.00
C1204  C     0.67693   0.20608   0.88597   0.00000  Uiso   1.00
C1205  C     0.69978   0.24341   0.87204   0.00000  Uiso   1.00
C1206  C     0.72470   0.27144   0.90574   0.00000  Uiso   1.00
C1207  C     0.72662   0.26266   0.95355   0.00000  Uiso   1.00
C1208  C     0.70323   0.22602   0.96773   0.00000  Uiso   1.00
C1209  C     0.67827   0.19788   0.93414   0.00000  Uiso   1.00
H1210  H     0.69897   0.25042   0.83509   0.00000  Uiso   1.00
H1211  H     0.74267   0.29989   0.89478   0.00000  Uiso   1.00
H1212  H     0.74605   0.28433   0.97960   0.00000  Uiso   1.00
H1213  H     0.70473   0.21934   0.67143   0.00000  Uiso   1.00
H1214  H     0.99435   0.16936   0.94563   0.00000  Uiso   1.00
I1215  I     0.74803   0.04238   0.74399   0.00000  Uiso   1.00
I1216  I     0.91871   0.29093   0.92258   0.00000  Uiso   1.00
I1217  I     0.74511   0.09801   0.93501   0.00000  Uiso   1.00
I1218  I     0.92150   0.23536   0.73165   0.00000  Uiso   1.00
C1219  C     0.16488   0.42073   0.83286   0.00000  Uiso   1.00
C1220  C     0.16846   0.57926   0.83380   0.00000  Uiso   1.00
C1221  C     0.06814   0.49837   0.82157   0.00000  Uiso   1.00
C1222  C     0.26520   0.50162   0.84509   0.00000  Uiso   1.00
C1223  C     0.01314   0.49182   0.81676   0.00000  Uiso   1.00
C1224  C     0.32019   0.50817   0.84991   0.00000  Uiso   1.00
C1225  C     0.13462   0.35194   0.79741   0.00000  Uiso   1.00
C1226  C     0.19873   0.64805   0.86925   0.00000  Uiso   1.00
C1227  C     0.13699   0.64268   0.79841   0.00000  Uiso   1.00
C1228  C     0.19636   0.35732   0.86826   0.00000  Uiso   1.00
C1229  C     0.16856   0.62389   0.83413   0.00000  Uiso   1.00
C1230  C     0.16478   0.37611   0.83254   0.00000  Uiso   1.00
C1231  C     0.13222   0.47552   0.68766   0.00000  Uiso   1.00
C1232  C     0.20110   0.52449   0.97901   0.00000  Uiso   1.00
C1233  C     0.13236   0.47487   0.97175   0.00000  Uiso   1.00
C1234  C     0.20097   0.52514   0.69492   0.00000  Uiso   1.00
Cu1235 Cu    0.16667   0.50001   0.88022   0.00000  Uiso   1.00
Cu1236 Cu    0.16667   0.49999   0.78645   0.00000  Uiso   1.00
H1237  H     0.11314   0.62406   0.77173   0.00000  Uiso   1.00
H1238  H     0.22020   0.37594   0.89493   0.00000  Uiso   1.00
H1239  H     0.10434   0.45643   0.70320   0.00000  Uiso   1.00
H1240  H     0.22897   0.54359   0.96346   0.00000  Uiso   1.00
N1241  N     0.16668   0.50001   0.95069   0.00000  Uiso   1.00
N1242  N     0.16665   0.49999   0.71597   0.00000  Uiso   1.00
O1243  O     0.16666   0.43989   0.87291   0.00000  Uiso   1.00
O1244  O     0.16667   0.56011   0.79375   0.00000  Uiso   1.00
O1245  O     0.16666   0.43988   0.79372   0.00000  Uiso   1.00
O1246  O     0.16667   0.56012   0.87294   0.00000  Uiso   1.00
O1247  O     0.09161   0.50000   0.86379   0.00000  Uiso   1.00
O1248  O     0.24172   0.50000   0.80288   0.00000  Uiso   1.00
O1249  O     0.09161   0.49999   0.78460   0.00000  Uiso   1.00
O1250  O     0.24172   0.50001   0.88207   0.00000  Uiso   1.00
C1251  C     0.32305   0.46061   0.78066   0.00000  Uiso   1.00
C1252  C     0.32171   0.46885   0.73251   0.00000  Uiso   1.00
C1253  C     0.29679   0.44070   0.69890   0.00000  Uiso   1.00
C1254  C     0.27344   0.40403   0.71304   0.00000  Uiso   1.00
C1255  C     0.27537   0.39521   0.76082   0.00000  Uiso   1.00
C1256  C     0.30025   0.42325   0.79455   0.00000  Uiso   1.00
H1257  H     0.00561   0.49738   0.72106   0.00000  Uiso   1.00
H1258  H     0.29531   0.44740   0.99521   0.00000  Uiso   1.00
H1259  H     0.25404   0.38236   0.68696   0.00000  Uiso   1.00
H1260  H     0.25745   0.36672   0.77173   0.00000  Uiso   1.00
H1261  H     0.30108   0.41619   0.83147   0.00000  Uiso   1.00
C1262  C     0.01026   0.53941   0.88597   0.00000  Uiso   1.00
C1263  C     0.03311   0.57674   0.87204   0.00000  Uiso   1.00
C1264  C     0.05803   0.60478   0.90574   0.00000  Uiso   1.00
C1265  C     0.05995   0.59600   0.95355   0.00000  Uiso   1.00
C1266  C     0.03656   0.55935   0.96773   0.00000  Uiso   1.00
C1267  C     0.01161   0.53121   0.93414   0.00000  Uiso   1.00
H1268  H     0.03230   0.58375   0.83509   0.00000  Uiso   1.00
H1269  H     0.07601   0.63323   0.89478   0.00000  Uiso   1.00
H1270  H     0.07939   0.61766   0.97960   0.00000  Uiso   1.00
H1271  H     0.03807   0.55267   0.67143   0.00000  Uiso   1.00
H1272  H     0.32768   0.50269   0.94563   0.00000  Uiso   1.00
I1273  I     0.08136   0.37572   0.74399   0.00000  Uiso   1.00
I1274  I     0.25205   0.62426   0.92258   0.00000  Uiso   1.00
I1275  I     0.07844   0.43134   0.93501   0.00000  Uiso   1.00
I1276  I     0.25484   0.56870   0.73165   0.00000  Uiso   1.00
C1277  C     0.49821   0.42073   0.83286   0.00000  Uiso   1.00
C1278  C     0.50179   0.57926   0.83380   0.00000  Uiso   1.00
C1279  C     0.40147   0.49837   0.82157   0.00000  Uiso   1.00
C1280  C     0.59853   0.50162   0.84509   0.00000  Uiso   1.00
C1281  C     0.34647   0.49182   0.81676   0.00000  Uiso   1.00
C1282  C     0.65352   0.50817   0.84991   0.00000  Uiso   1.00
C1283  C     0.46795   0.35194   0.79741   0.00000  Uiso   1.00
C1284  C     0.53206   0.64805   0.86925   0.00000  Uiso   1.00
C1285  C     0.47032   0.64268   0.79841   0.00000  Uiso   1.00
C1286  C     0.52969   0.35732   0.86826   0.00000  Uiso   1.00
C1287  C     0.50190   0.62389   0.83413   0.00000  Uiso   1.00
C1288  C     0.49811   0.37611   0.83254   0.00000  Uiso   1.00
C1289  C     0.46556   0.47552   0.68766   0.00000  Uiso   1.00
C1290  C     0.53443   0.52449   0.97901   0.00000  Uiso   1.00
C1291  C     0.46569   0.47487   0.97175   0.00000  Uiso   1.00
C1292  C     0.53430   0.52514   0.69492   0.00000  Uiso   1.00
Cu1293 Cu    0.50000   0.50001   0.88022   0.00000  Uiso   1.00
Cu1294 Cu    0.50000   0.49999   0.78645   0.00000  Uiso   1.00
H1295  H     0.44648   0.62406   0.77173   0.00000  Uiso   1.00
H1296  H     0.55354   0.37594   0.89493   0.00000  Uiso   1.00
H1297  H     0.43767   0.45643   0.70320   0.00000  Uiso   1.00
H1298  H     0.56230   0.54359   0.96346   0.00000  Uiso   1.00
N1299  N     0.50001   0.50001   0.95069   0.00000  Uiso   1.00
N1300  N     0.49999   0.49999   0.71597   0.00000  Uiso   1.00
O1301  O     0.50000   0.43989   0.87291   0.00000  Uiso   1.00
O1302  O     0.50000   0.56011   0.79375   0.00000  Uiso   1.00
O1303  O     0.50000   0.43988   0.79372   0.00000  Uiso   1.00
O1304  O     0.50000   0.56012   0.87294   0.00000  Uiso   1.00
O1305  O     0.42495   0.50000   0.86379   0.00000  Uiso   1.00
O1306  O     0.57505   0.50000   0.80288   0.00000  Uiso   1.00
O1307  O     0.42494   0.49999   0.78460   0.00000  Uiso   1.00
O1308  O     0.57506   0.50001   0.88207   0.00000  Uiso   1.00
C1309  C     0.65639   0.46061   0.78066   0.00000  Uiso   1.00
C1310  C     0.65504   0.46885   0.73251   0.00000  Uiso   1.00
C1311  C     0.63012   0.44070   0.69890   0.00000  Uiso   1.00
C1312  C     0.60677   0.40403   0.71304   0.00000  Uiso   1.00
C1313  C     0.60870   0.39521   0.76082   0.00000  Uiso   1.00
C1314  C     0.63358   0.42325   0.79455   0.00000  Uiso   1.00
H1315  H     0.33894   0.49738   0.72106   0.00000  Uiso   1.00
H1316  H     0.62864   0.44740   0.99521   0.00000  Uiso   1.00
H1317  H     0.58737   0.38236   0.68696   0.00000  Uiso   1.00
H1318  H     0.59078   0.36672   0.77173   0.00000  Uiso   1.00
H1319  H     0.63441   0.41619   0.83147   0.00000  Uiso   1.00
C1320  C     0.34360   0.53941   0.88597   0.00000  Uiso   1.00
C1321  C     0.36644   0.57674   0.87204   0.00000  Uiso   1.00
C1322  C     0.39137   0.60478   0.90574   0.00000  Uiso   1.00
C1323  C     0.39329   0.59600   0.95355   0.00000  Uiso   1.00
C1324  C     0.36990   0.55935   0.96773   0.00000  Uiso   1.00
C1325  C     0.34494   0.53121   0.93414   0.00000  Uiso   1.00
H1326  H     0.36564   0.58375   0.83509   0.00000  Uiso   1.00
H1327  H     0.40934   0.63323   0.89478   0.00000  Uiso   1.00
H1328  H     0.41272   0.61766   0.97960   0.00000  Uiso   1.00
H1329  H     0.37140   0.55267   0.67143   0.00000  Uiso   1.00
H1330  H     0.66102   0.50269   0.94563   0.00000  Uiso   1.00
I1331  I     0.41469   0.37572   0.74399   0.00000  Uiso   1.00
I1332  I     0.58538   0.62426   0.92258   0.00000  Uiso   1.00
I1333  I     0.41178   0.43134   0.93501   0.00000  Uiso   1.00
I1334  I     0.58817   0.56870   0.73165   0.00000  Uiso   1.00
C1335  C     0.83155   0.42073   0.83286   0.00000  Uiso   1.00
C1336  C     0.83513   0.57926   0.83380   0.00000  Uiso   1.00
C1337  C     0.73480   0.49837   0.82157   0.00000  Uiso   1.00
C1338  C     0.93186   0.50162   0.84509   0.00000  Uiso   1.00
C1339  C     0.67981   0.49182   0.81676   0.00000  Uiso   1.00
C1340  C     0.98686   0.50817   0.84991   0.00000  Uiso   1.00
C1341  C     0.80129   0.35194   0.79741   0.00000  Uiso   1.00
C1342  C     0.86540   0.64805   0.86925   0.00000  Uiso   1.00
C1343  C     0.80365   0.64268   0.79841   0.00000  Uiso   1.00
C1344  C     0.86302   0.35732   0.86826   0.00000  Uiso   1.00
C1345  C     0.83523   0.62389   0.83413   0.00000  Uiso   1.00
C1346  C     0.83144   0.37611   0.83254   0.00000  Uiso   1.00
C1347  C     0.79889   0.47552   0.68766   0.00000  Uiso   1.00
C1348  C     0.86777   0.52449   0.97901   0.00000  Uiso   1.00
C1349  C     0.79902   0.47487   0.97175   0.00000  Uiso   1.00
C1350  C     0.86763   0.52514   0.69492   0.00000  Uiso   1.00
Cu1351 Cu    0.83333   0.50001   0.88022   0.00000  Uiso   1.00
Cu1352 Cu    0.83333   0.49999   0.78645   0.00000  Uiso   1.00
H1353  H     0.77981   0.62406   0.77173   0.00000  Uiso   1.00
H1354  H     0.88687   0.37594   0.89493   0.00000  Uiso   1.00
H1355  H     0.77100   0.45643   0.70320   0.00000  Uiso   1.00
H1356  H     0.89564   0.54359   0.96346   0.00000  Uiso   1.00
N1357  N     0.83335   0.50001   0.95069   0.00000  Uiso   1.00
N1358  N     0.83332   0.49999   0.71597   0.00000  Uiso   1.00
O1359  O     0.83333   0.43989   0.87291   0.00000  Uiso   1.00
O1360  O     0.83334   0.56011   0.79375   0.00000  Uiso   1.00
O1361  O     0.83333   0.43988   0.79372   0.00000  Uiso   1.00
O1362  O     0.83334   0.56012   0.87294   0.00000  Uiso   1.00
O1363  O     0.75828   0.50000   0.86379   0.00000  Uiso   1.00
O1364  O     0.90839   0.50000   0.80288   0.00000  Uiso   1.00
O1365  O     0.75828   0.49999   0.78460   0.00000  Uiso   1.00
O1366  O     0.90839   0.50001   0.88207   0.00000  Uiso   1.00
C1367  C     0.98972   0.46061   0.78066   0.00000  Uiso   1.00
C1368  C     0.98837   0.46885   0.73251   0.00000  Uiso   1.00
C1369  C     0.96346   0.44070   0.69890   0.00000  Uiso   1.00
C1370  C     0.94011   0.40403   0.71304   0.00000  Uiso   1.00
C1371  C     0.94204   0.39521   0.76082   0.00000  Uiso   1.00
C1372  C     0.96691   0.42325   0.79455   0.00000  Uiso   1.00
H1373  H     0.67227   0.49738   0.72106   0.00000  Uiso   1.00
H1374  H     0.96197   0.44740   0.99521   0.00000  Uiso   1.00
H1375  H     0.92071   0.38236   0.68696   0.00000  Uiso   1.00
H1376  H     0.92411   0.36672   0.77173   0.00000  Uiso   1.00
H1377  H     0.96775   0.41619   0.83147   0.00000  Uiso   1.00
C1378  C     0.67693   0.53941   0.88597   0.00000  Uiso   1.00
C1379  C     0.69978   0.57674   0.87204   0.00000  Uiso   1.00
C1380  C     0.72470   0.60478   0.90574   0.00000  Uiso   1.00
C1381  C     0.72662   0.59600   0.95355   0.00000  Uiso   1.00
C1382  C     0.70323   0.55935   0.96773   0.00000  Uiso   1.00
C1383  C     0.67827   0.53121   0.93414   0.00000  Uiso   1.00
H1384  H     0.69897   0.58375   0.83509   0.00000  Uiso   1.00
H1385  H     0.74267   0.63323   0.89478   0.00000  Uiso   1.00
H1386  H     0.74605   0.61766   0.97960   0.00000  Uiso   1.00
H1387  H     0.70473   0.55267   0.67143   0.00000  Uiso   1.00
H1388  H     0.99435   0.50269   0.94563   0.00000  Uiso   1.00
I1389  I     0.74803   0.37572   0.74399   0.00000  Uiso   1.00
I1390  I     0.91871   0.62426   0.92258   0.00000  Uiso   1.00
I1391  I     0.74511   0.43134   0.93501   0.00000  Uiso   1.00
I1392  I     0.92150   0.56870   0.73165   0.00000  Uiso   1.00
C1393  C     0.16488   0.75407   0.83286   0.00000  Uiso   1.00
C1394  C     0.16846   0.91260   0.83380   0.00000  Uiso   1.00
C1395  C     0.06814   0.83170   0.82157   0.00000  Uiso   1.00
C1396  C     0.26520   0.83495   0.84509   0.00000  Uiso   1.00
C1397  C     0.01314   0.82515   0.81676   0.00000  Uiso   1.00
C1398  C     0.32019   0.84150   0.84991   0.00000  Uiso   1.00
C1399  C     0.13462   0.68528   0.79741   0.00000  Uiso   1.00
C1400  C     0.19873   0.98139   0.86925   0.00000  Uiso   1.00
C1401  C     0.13699   0.97601   0.79841   0.00000  Uiso   1.00
C1402  C     0.19636   0.69065   0.86826   0.00000  Uiso   1.00
C1403  C     0.16856   0.95722   0.83413   0.00000  Uiso   1.00
C1404  C     0.16478   0.70944   0.83254   0.00000  Uiso   1.00
C1405  C     0.13222   0.80885   0.68766   0.00000  Uiso   1.00
C1406  C     0.20110   0.85782   0.97901   0.00000  Uiso   1.00
C1407  C     0.13236   0.80821   0.97175   0.00000  Uiso   1.00
C1408  C     0.20097   0.85847   0.69492   0.00000  Uiso   1.00
Cu1409 Cu    0.16667   0.83334   0.88022   0.00000  Uiso   1.00
Cu1410 Cu    0.16667   0.83333   0.78645   0.00000  Uiso   1.00
H1411  H     0.11314   0.95739   0.77173   0.00000  Uiso   1.00
H1412  H     0.22020   0.70927   0.89493   0.00000  Uiso   1.00
H1413  H     0.10434   0.78977   0.70320   0.00000  Uiso   1.00
H1414  H     0.22897   0.87693   0.96346   0.00000  Uiso   1.00
N1415  N     0.16668   0.83334   0.95069   0.00000  Uiso   1.00
N1416  N     0.16665   0.83332   0.71597   0.00000  Uiso   1.00
O1417  O     0.16666   0.77322   0.87291   0.00000  Uiso   1.00
O1418  O     0.16667   0.89345   0.79375   0.00000  Uiso   1.00
O1419  O     0.16666   0.77321   0.79372   0.00000  Uiso   1.00
O1420  O     0.16667   0.89346   0.87294   0.00000  Uiso   1.00
O1421  O     0.09161   0.83334   0.86379   0.00000  Uiso   1.00
O1422  O     0.24172   0.83333   0.80288   0.00000  Uiso   1.00
O1423  O     0.09161   0.83333   0.78460   0.00000  Uiso   1.00
O1424  O     0.24172   0.83334   0.88207   0.00000  Uiso   1.00
C1425  C     0.32305   0.79394   0.78066   0.00000  Uiso   1.00
C1426  C     0.32171   0.80218   0.73251   0.00000  Uiso   1.00
C1427  C     0.29679   0.77404   0.69890   0.00000  Uiso   1.00
C1428  C     0.27344   0.73736   0.71304   0.00000  Uiso   1.00
C1429  C     0.27537   0.72854   0.76082   0.00000  Uiso   1.00
C1430  C     0.30025   0.75658   0.79455   0.00000  Uiso   1.00
H1431  H     0.00561   0.83072   0.72106   0.00000  Uiso   1.00
H1432  H     0.29531   0.78074   0.99521   0.00000  Uiso   1.00
H1433  H     0.25404   0.71569   0.68696   0.00000  Uiso   1.00
H1434  H     0.25745   0.70005   0.77173   0.00000  Uiso   1.00
H1435  H     0.30108   0.74953   0.83147   0.00000  Uiso   1.00
C1436  C     0.01026   0.87275   0.88597   0.00000  Uiso   1.00
C1437  C     0.03311   0.91008   0.87204   0.00000  Uiso   1.00
C1438  C     0.05803   0.93811   0.90574   0.00000  Uiso   1.00
C1439  C     0.05995   0.92933   0.95355   0.00000  Uiso   1.00
C1440  C     0.03656   0.89269   0.96773   0.00000  Uiso   1.00
C1441  C     0.01161   0.86454   0.93414   0.00000  Uiso   1.00
H1442  H     0.03230   0.91709   0.83509   0.00000  Uiso   1.00
H1443  H     0.07601   0.96656   0.89478   0.00000  Uiso   1.00
H1444  H     0.07939   0.95099   0.97960   0.00000  Uiso   1.00
H1445  H     0.03807   0.88601   0.67143   0.00000  Uiso   1.00
H1446  H     0.32768   0.83603   0.94563   0.00000  Uiso   1.00
I1447  I     0.08136   0.70905   0.74399   0.00000  Uiso   1.00
I1448  I     0.25205   0.95760   0.92258   0.00000  Uiso   1.00
I1449  I     0.07844   0.76468   0.93501   0.00000  Uiso   1.00
I1450  I     0.25484   0.90203   0.73165   0.00000  Uiso   1.00
C1451  C     0.49821   0.75407   0.83286   0.00000  Uiso   1.00
C1452  C     0.50179   0.91260   0.83380   0.00000  Uiso   1.00
C1453  C     0.40147   0.83170   0.82157   0.00000  Uiso   1.00
C1454  C     0.59853   0.83495   0.84509   0.00000  Uiso   1.00
C1455  C     0.34647   0.82515   0.81676   0.00000  Uiso   1.00
C1456  C     0.65352   0.84150   0.84991   0.00000  Uiso   1.00
C1457  C     0.46795   0.68528   0.79741   0.00000  Uiso   1.00
C1458  C     0.53206   0.98139   0.86925   0.00000  Uiso   1.00
C1459  C     0.47032   0.97601   0.79841   0.00000  Uiso   1.00
C1460  C     0.52969   0.69065   0.86826   0.00000  Uiso   1.00
C1461  C     0.50190   0.95722   0.83413   0.00000  Uiso   1.00
C1462  C     0.49811   0.70944   0.83254   0.00000  Uiso   1.00
C1463  C     0.46556   0.80885   0.68766   0.00000  Uiso   1.00
C1464  C     0.53443   0.85782   0.97901   0.00000  Uiso   1.00
C1465  C     0.46569   0.80821   0.97175   0.00000  Uiso   1.00
C1466  C     0.53430   0.85847   0.69492   0.00000  Uiso   1.00
Cu1467 Cu    0.50000   0.83334   0.88022   0.00000  Uiso   1.00
Cu1468 Cu    0.50000   0.83333   0.78645   0.00000  Uiso   1.00
H1469  H     0.44648   0.95739   0.77173   0.00000  Uiso   1.00
H1470  H     0.55354   0.70927   0.89493   0.00000  Uiso   1.00
H1471  H     0.43767   0.78977   0.70320   0.00000  Uiso   1.00
H1472  H     0.56230   0.87693   0.96346   0.00000  Uiso   1.00
N1473  N     0.50001   0.83334   0.95069   0.00000  Uiso   1.00
N1474  N     0.49999   0.83332   0.71597   0.00000  Uiso   1.00
O1475  O     0.50000   0.77322   0.87291   0.00000  Uiso   1.00
O1476  O     0.50000   0.89345   0.79375   0.00000  Uiso   1.00
O1477  O     0.50000   0.77321   0.79372   0.00000  Uiso   1.00
O1478  O     0.50000   0.89346   0.87294   0.00000  Uiso   1.00
O1479  O     0.42495   0.83334   0.86379   0.00000  Uiso   1.00
O1480  O     0.57505   0.83333   0.80288   0.00000  Uiso   1.00
O1481  O     0.42494   0.83333   0.78460   0.00000  Uiso   1.00
O1482  O     0.57506   0.83334   0.88207   0.00000  Uiso   1.00
C1483  C     0.65639   0.79394   0.78066   0.00000  Uiso   1.00
C1484  C     0.65504   0.80218   0.73251   0.00000  Uiso   1.00
C1485  C     0.63012   0.77404   0.69890   0.00000  Uiso   1.00
C1486  C     0.60677   0.73736   0.71304   0.00000  Uiso   1.00
C1487  C     0.60870   0.72854   0.76082   0.00000  Uiso   1.00
C1488  C     0.63358   0.75658   0.79455   0.00000  Uiso   1.00
H1489  H     0.33894   0.83072   0.72106   0.00000  Uiso   1.00
H1490  H     0.62864   0.78074   0.99521   0.00000  Uiso   1.00
H1491  H     0.58737   0.71569   0.68696   0.00000  Uiso   1.00
H1492  H     0.59078   0.70005   0.77173   0.00000  Uiso   1.00
H1493  H     0.63441   0.74953   0.83147   0.00000  Uiso   1.00
C1494  C     0.34360   0.87275   0.88597   0.00000  Uiso   1.00
C1495  C     0.36644   0.91008   0.87204   0.00000  Uiso   1.00
C1496  C     0.39137   0.93811   0.90574   0.00000  Uiso   1.00
C1497  C     0.39329   0.92933   0.95355   0.00000  Uiso   1.00
C1498  C     0.36990   0.89269   0.96773   0.00000  Uiso   1.00
C1499  C     0.34494   0.86454   0.93414   0.00000  Uiso   1.00
H1500  H     0.36564   0.91709   0.83509   0.00000  Uiso   1.00
H1501  H     0.40934   0.96656   0.89478   0.00000  Uiso   1.00
H1502  H     0.41272   0.95099   0.97960   0.00000  Uiso   1.00
H1503  H     0.37140   0.88601   0.67143   0.00000  Uiso   1.00
H1504  H     0.66102   0.83603   0.94563   0.00000  Uiso   1.00
I1505  I     0.41469   0.70905   0.74399   0.00000  Uiso   1.00
I1506  I     0.58538   0.95760   0.92258   0.00000  Uiso   1.00
I1507  I     0.41178   0.76468   0.93501   0.00000  Uiso   1.00
I1508  I     0.58817   0.90203   0.73165   0.00000  Uiso   1.00
C1509  C     0.83155   0.75407   0.83286   0.00000  Uiso   1.00
C1510  C     0.83513   0.91260   0.83380   0.00000  Uiso   1.00
C1511  C     0.73480   0.83170   0.82157   0.00000  Uiso   1.00
C1512  C     0.93186   0.83495   0.84509   0.00000  Uiso   1.00
C1513  C     0.67981   0.82515   0.81676   0.00000  Uiso   1.00
C1514  C     0.98686   0.84150   0.84991   0.00000  Uiso   1.00
C1515  C     0.80129   0.68528   0.79741   0.00000  Uiso   1.00
C1516  C     0.86540   0.98139   0.86925   0.00000  Uiso   1.00
C1517  C     0.80365   0.97601   0.79841   0.00000  Uiso   1.00
C1518  C     0.86302   0.69065   0.86826   0.00000  Uiso   1.00
C1519  C     0.83523   0.95722   0.83413   0.00000  Uiso   1.00
C1520  C     0.83144   0.70944   0.83254   0.00000  Uiso   1.00
C1521  C     0.79889   0.80885   0.68766   0.00000  Uiso   1.00
C1522  C     0.86777   0.85782   0.97901   0.00000  Uiso   1.00
C1523  C     0.79902   0.80821   0.97175   0.00000  Uiso   1.00
C1524  C     0.86763   0.85847   0.69492   0.00000  Uiso   1.00
Cu1525 Cu    0.83333   0.83334   0.88022   0.00000  Uiso   1.00
Cu1526 Cu    0.83333   0.83333   0.78645   0.00000  Uiso   1.00
H1527  H     0.77981   0.95739   0.77173   0.00000  Uiso   1.00
H1528  H     0.88687   0.70927   0.89493   0.00000  Uiso   1.00
H1529  H     0.77100   0.78977   0.70320   0.00000  Uiso   1.00
H1530  H     0.89564   0.87693   0.96346   0.00000  Uiso   1.00
N1531  N     0.83335   0.83334   0.95069   0.00000  Uiso   1.00
N1532  N     0.83332   0.83332   0.71597   0.00000  Uiso   1.00
O1533  O     0.83333   0.77322   0.87291   0.00000  Uiso   1.00
O1534  O     0.83334   0.89345   0.79375   0.00000  Uiso   1.00
O1535  O     0.83333   0.77321   0.79372   0.00000  Uiso   1.00
O1536  O     0.83334   0.89346   0.87294   0.00000  Uiso   1.00
O1537  O     0.75828   0.83334   0.86379   0.00000  Uiso   1.00
O1538  O     0.90839   0.83333   0.80288   0.00000  Uiso   1.00
O1539  O     0.75828   0.83333   0.78460   0.00000  Uiso   1.00
O1540  O     0.90839   0.83334   0.88207   0.00000  Uiso   1.00
C1541  C     0.98972   0.79394   0.78066   0.00000  Uiso   1.00
C1542  C     0.98837   0.80218   0.73251   0.00000  Uiso   1.00
C1543  C     0.96346   0.77404   0.69890   0.00000  Uiso   1.00
C1544  C     0.94011   0.73736   0.71304   0.00000  Uiso   1.00
C1545  C     0.94204   0.72854   0.76082   0.00000  Uiso   1.00
C1546  C     0.96691   0.75658   0.79455   0.00000  Uiso   1.00
H1547  H     0.67227   0.83072   0.72106   0.00000  Uiso   1.00
H1548  H     0.96197   0.78074   0.99521   0.00000  Uiso   1.00
H1549  H     0.92071   0.71569   0.68696   0.00000  Uiso   1.00
H1550  H     0.92411   0.70005   0.77173   0.00000  Uiso   1.00
H1551  H     0.96775   0.74953   0.83147   0.00000  Uiso   1.00
C1552  C     0.67693   0.87275   0.88597   0.00000  Uiso   1.00
C1553  C     0.69978   0.91008   0.87204   0.00000  Uiso   1.00
C1554  C     0.72470   0.93811   0.90574   0.00000  Uiso   1.00
C1555  C     0.72662   0.92933   0.95355   0.00000  Uiso   1.00
C1556  C     0.70323   0.89269   0.96773   0.00000  Uiso   1.00
C1557  C     0.67827   0.86454   0.93414   0.00000  Uiso   1.00
H1558  H     0.69897   0.91709   0.83509   0.00000  Uiso   1.00
H1559  H     0.74267   0.96656   0.89478   0.00000  Uiso   1.00
H1560  H     0.74605   0.95099   0.97960   0.00000  Uiso   1.00
H1561  H     0.70473   0.88601   0.67143   0.00000  Uiso   1.00
H1562  H     0.99435   0.83603   0.94563   0.00000  Uiso   1.00
I1563  I     0.74803   0.70905   0.74399   0.00000  Uiso   1.00
I1564  I     0.91871   0.95760   0.92258   0.00000  Uiso   1.00
I1565  I     0.74511   0.76468   0.93501   0.00000  Uiso   1.00
I1566  I     0.92150   0.90203   0.73165   0.00000  Uiso   1.00
loop_
_geom_bond_atom_site_label_1
_geom_bond_atom_site_label_2
_geom_bond_distance
_geom_bond_site_symmetry_2
_ccdc_geom_bond_type
C1     O25     1.295   .     A
C1     C12     1.445   .     S
C1     O27     1.292   .     A
C2     O28     1.292   .     A
C2     C11     1.445   .     S
C2     O26     1.295   .     A
C3     O31     1.292   .     A
C3     O29     1.287   .     A
C3     C5      1.437   .     S
C4     O32     1.292   .     A
C4     C6      1.437   .     S
C4     O30     1.287   .     A
C5     C122    1.361   1_455 S
C5     C149    1.495   1_455 S
C6     C63     1.361   .     S
C6     C102    1.495   .     S
C7     I55     2.115   .     S
C7     C12     1.407   .     A
C7     C357    1.384   1_545 S
C8     I56     2.115   .     S
C8     C11     1.407   .     A
C8     C184    1.385   .     S
C9     C11     1.397   .     A
C9     H19     1.084   .     S
C9     C181    1.384   .     S
C10    C12     1.397   .     A
C10    H20     1.084   .     S
C10    C356    1.385   1_545 S
C13    H21     1.077   .     S
C13    N24     1.356   .     A
C13    C1059   1.413   1_554 S
C14    N23     1.356   .     A
C14    H22     1.077   .     S
C14    C538    1.413   .     S
C15    N23     1.384   .     A
C15    I57     2.123   .     S
C15    C535    1.413   .     S
C16    N24     1.384   .     A
C16    I58     2.123   .     S
C16    C1058   1.413   1_554 S
Cu17   O29     1.966   .     S
Cu17   O25     1.957   .     S
Cu17   N23     2.021   .     S
Cu17   Cu18    2.690   .     S
Cu17   O32     1.963   .     S
Cu17   O28     1.960   .     S
Cu18   O30     1.966   .     S
Cu18   O26     1.957   .     S
Cu18   N24     2.021   .     S
Cu18   O31     1.963   .     S
Cu18   O27     1.960   .     S
C33    C34     1.405   .     A
C33    C38     1.408   .     A
C33    C63     1.495   .     S
C34    C35     1.399   .     A
C34    H97     1.082   .     S
C35    C36     1.398   .     A
C35    H1084   1.082   1_554 S
C36    H41     1.083   .     S
C36    C37     1.397   .     A
C37    C38     1.399   .     A
C37    H42     1.083   .     S
C38    H43     1.083   .     S
H39    C150    1.082   1_455 S
H40    C557    1.082   .     S
C44    C49     1.406   .     A
C44    C45     1.408   .     A
C44    C122    1.495   1_455 S
C45    C46     1.399   .     A
C45    H50     1.084   .     S
C46    C47     1.398   .     A
C46    H51     1.083   .     S
C47    H52     1.083   .     S
C47    C48     1.398   .     A
C48    C49     1.399   .     A
C48    H575    1.082   .     S
C49    H170    1.082   1_455 S
H53    C1092   1.082   1_554 S
H54    C107    1.082   .     S
C59    O83     1.295   .     A
C59    C70     1.445   .     S
C59    O85     1.292   .     A
C60    O86     1.292   .     A
C60    C69     1.445   .     S
C60    O84     1.295   .     A
C61    O89     1.292   .     A
C61    O87     1.287   .     A
C61    C63     1.437   .     S
C62    O90     1.292   .     A
C62    C64     1.437   .     S
C62    O88     1.287   .     A
C64    C121    1.361   .     S
C64    C160    1.495   .     S
C65    I113    2.115   .     S
C65    C70     1.407   .     A
C65    C415    1.384   1_545 S
C66    I114    2.115   .     S
C66    C69     1.407   .     A
C66    C242    1.385   .     S
C67    C69     1.397   .     A
C67    H77     1.084   .     S
C67    C239    1.384   .     S
C68    C70     1.397   .     A
C68    H78     1.084   .     S
C68    C414    1.385   1_545 S
C71    H79     1.077   .     S
C71    N82     1.356   .     A
C71    C1117   1.413   1_554 S
C72    N81     1.356   .     A
C72    H80     1.077   .     S
C72    C596    1.413   .     S
C73    N81     1.384   .     A
C73    I115    2.123   .     S
C73    C593    1.413   .     S
C74    N82     1.384   .     A
C74    I116    2.123   .     S
C74    C1116   1.413   1_554 S
Cu75   O87     1.966   .     S
Cu75   O83     1.957   .     S
Cu75   N81     2.021   .     S
Cu75   Cu76    2.690   .     S
Cu75   O90     1.963   .     S
Cu75   O86     1.960   .     S
Cu76   O88     1.966   .     S
Cu76   O84     1.957   .     S
Cu76   N82     2.021   .     S
Cu76   O89     1.963   .     S
Cu76   O85     1.960   .     S
C91    C92     1.405   .     A
C91    C96     1.408   .     A
C91    C121    1.495   .     S
C92    C93     1.399   .     A
C92    H155    1.082   .     S
C93    C94     1.398   .     A
C93    H1142   1.082   1_554 S
C94    H99     1.083   .     S
C94    C95     1.397   .     A
C95    C96     1.399   .     A
C95    H100    1.083   .     S
C96    H101    1.083   .     S
H98    C615    1.082   .     S
C102   C107    1.406   .     A
C102   C103    1.408   .     A
C103   C104    1.399   .     A
C103   H108    1.084   .     S
C104   C105    1.398   .     A
C104   H109    1.083   .     S
C105   H110    1.083   .     S
C105   C106    1.398   .     A
C106   C107    1.399   .     A
C106   H633    1.082   .     S
H111   C1150   1.082   1_554 S
H112   C165    1.082   .     S
C117   O141    1.295   .     A
C117   C128    1.445   .     S
C117   O143    1.292   .     A
C118   O144    1.292   .     A
C118   C127    1.445   .     S
C118   O142    1.295   .     A
C119   O147    1.292   .     A
C119   O145    1.287   .     A
C119   C121    1.437   .     S
C120   O148    1.292   .     A
C120   C122    1.437   .     S
C120   O146    1.287   .     A
C122   C5      1.361   1_655 S
C122   C44     1.495   1_655 S
C123   I171    2.115   .     S
C123   C128    1.407   .     A
C123   C473    1.384   1_545 S
C124   I172    2.115   .     S
C124   C127    1.407   .     A
C124   C300    1.385   .     S
C125   C127    1.397   .     A
C125   H135    1.084   .     S
C125   C297    1.384   .     S
C126   C128    1.397   .     A
C126   H136    1.084   .     S
C126   C472    1.385   1_545 S
C129   H137    1.077   .     S
C129   N140    1.356   .     A
C129   C1175   1.413   1_554 S
C130   N139    1.356   .     A
C130   H138    1.077   .     S
C130   C654    1.413   .     S
C131   N139    1.384   .     A
C131   I173    2.123   .     S
C131   C651    1.413   .     S
C132   N140    1.384   .     A
C132   I174    2.123   .     S
C132   C1174   1.413   1_554 S
Cu133  O145    1.966   .     S
Cu133  O141    1.957   .     S
Cu133  N139    2.021   .     S
Cu133  Cu134   2.690   .     S
Cu133  O148    1.963   .     S
Cu133  O144    1.960   .     S
Cu134  O146    1.966   .     S
Cu134  O142    1.957   .     S
Cu134  N140    2.021   .     S
Cu134  O147    1.963   .     S
Cu134  O143    1.960   .     S
C149   C150    1.405   .     A
C149   C154    1.408   .     A
C149   C5      1.495   1_655 S
C150   C151    1.399   .     A
C150   H39     1.082   1_655 S
C151   C152    1.398   .     A
C151   H1200   1.082   1_554 S
C152   H157    1.083   .     S
C152   C153    1.397   .     A
C153   C154    1.399   .     A
C153   H158    1.083   .     S
C154   H159    1.083   .     S
H156   C673    1.082   .     S
C160   C165    1.406   .     A
C160   C161    1.408   .     A
C161   C162    1.399   .     A
C161   H166    1.084   .     S
C162   C163    1.398   .     A
C162   H167    1.083   .     S
C163   H168    1.083   .     S
C163   C164    1.398   .     A
C164   C165    1.399   .     A
C164   H691    1.082   .     S
H169   C1208   1.082   1_554 S
H170   C49     1.082   1_655 S
C175   O199    1.295   .     A
C175   C186    1.445   .     S
C175   O201    1.292   .     A
C176   O202    1.292   .     A
C176   C185    1.445   .     S
C176   O200    1.295   .     A
C177   O205    1.292   .     A
C177   O203    1.287   .     A
C177   C179    1.437   .     S
C178   O206    1.292   .     A
C178   C180    1.437   .     S
C178   O204    1.287   .     A
C179   C296    1.361   1_455 S
C179   C323    1.495   1_455 S
C180   C237    1.361   .     S
C180   C276    1.495   .     S
C181   I229    2.115   .     S
C181   C186    1.407   .     A
C182   I230    2.115   .     S
C182   C185    1.407   .     A
C182   C358    1.385   .     S
C183   C185    1.397   .     A
C183   H193    1.084   .     S
C183   C355    1.384   .     S
C184   C186    1.397   .     A
C184   H194    1.084   .     S
C187   H195    1.077   .     S
C187   N198    1.356   .     A
C187   C1233   1.413   1_554 S
C188   N197    1.356   .     A
C188   H196    1.077   .     S
C188   C712    1.413   .     S
C189   N197    1.384   .     A
C189   I231    2.123   .     S
C189   C709    1.413   .     S
C190   N198    1.384   .     A
C190   I232    2.123   .     S
C190   C1232   1.413   1_554 S
Cu191  O203    1.966   .     S
Cu191  O199    1.957   .     S
Cu191  N197    2.021   .     S
Cu191  Cu192   2.690   .     S
Cu191  O206    1.963   .     S
Cu191  O202    1.960   .     S
Cu192  O204    1.966   .     S
Cu192  O200    1.957   .     S
Cu192  N198    2.021   .     S
Cu192  O205    1.963   .     S
Cu192  O201    1.960   .     S
C207   C208    1.405   .     A
C207   C212    1.408   .     A
C207   C237    1.495   .     S
C208   C209    1.399   .     A
C208   H271    1.082   .     S
C209   C210    1.398   .     A
C209   H1258   1.082   1_554 S
C210   H215    1.083   .     S
C210   C211    1.397   .     A
C211   C212    1.399   .     A
C211   H216    1.083   .     S
C212   H217    1.083   .     S
H213   C324    1.082   1_455 S
H214   C731    1.082   .     S
C218   C223    1.406   .     A
C218   C219    1.408   .     A
C218   C296    1.495   1_455 S
C219   C220    1.399   .     A
C219   H224    1.084   .     S
C220   C221    1.398   .     A
C220   H225    1.083   .     S
C221   H226    1.083   .     S
C221   C222    1.398   .     A
C222   C223    1.399   .     A
C222   H749    1.082   .     S
C223   H344    1.082   1_455 S
H227   C1266   1.082   1_554 S
H228   C281    1.082   .     S
C233   O257    1.295   .     A
C233   C244    1.445   .     S
C233   O259    1.292   .     A
C234   O260    1.292   .     A
C234   C243    1.445   .     S
C234   O258    1.295   .     A
C235   O263    1.292   .     A
C235   O261    1.287   .     A
C235   C237    1.437   .     S
C236   O264    1.292   .     A
C236   C238    1.437   .     S
C236   O262    1.287   .     A
C238   C295    1.361   .     S
C238   C334    1.495   .     S
C239   I287    2.115   .     S
C239   C244    1.407   .     A
C240   I288    2.115   .     S
C240   C243    1.407   .     A
C240   C416    1.385   .     S
C241   C243    1.397   .     A
C241   H251    1.084   .     S
C241   C413    1.384   .     S
C242   C244    1.397   .     A
C242   H252    1.084   .     S
C245   H253    1.077   .     S
C245   N256    1.356   .     A
C245   C1291   1.413   1_554 S
C246   N255    1.356   .     A
C246   H254    1.077   .     S
C246   C770    1.413   .     S
C247   N255    1.384   .     A
C247   I289    2.123   .     S
C247   C767    1.413   .     S
C248   N256    1.384   .     A
C248   I290    2.123   .     S
C248   C1290   1.413   1_554 S
Cu249  O261    1.966   .     S
Cu249  O257    1.957   .     S
Cu249  N255    2.021   .     S
Cu249  Cu250   2.690   .     S
Cu249  O264    1.963   .     S
Cu249  O260    1.960   .     S
Cu250  O262    1.966   .     S
Cu250  O258    1.957   .     S
Cu250  N256    2.021   .     S
Cu250  O263    1.963   .     S
Cu250  O259    1.960   .     S
C265   C266    1.405   .     A
C265   C270    1.408   .     A
C265   C295    1.495   .     S
C266   C267    1.399   .     A
C266   H329    1.082   .     S
C267   C268    1.398   .     A
C267   H1316   1.082   1_554 S
C268   H273    1.083   .     S
C268   C269    1.397   .     A
C269   C270    1.399   .     A
C269   H274    1.083   .     S
C270   H275    1.083   .     S
H272   C789    1.082   .     S
C276   C281    1.406   .     A
C276   C277    1.408   .     A
C277   C278    1.399   .     A
C277   H282    1.084   .     S
C278   C279    1.398   .     A
C278   H283    1.083   .     S
C279   H284    1.083   .     S
C279   C280    1.398   .     A
C280   C281    1.399   .     A
C280   H807    1.082   .     S
H285   C1324   1.082   1_554 S
H286   C339    1.082   .     S
C291   O315    1.295   .     A
C291   C302    1.445   .     S
C291   O317    1.292   .     A
C292   O318    1.292   .     A
C292   C301    1.445   .     S
C292   O316    1.295   .     A
C293   O321    1.292   .     A
C293   O319    1.287   .     A
C293   C295    1.437   .     S
C294   O322    1.292   .     A
C294   C296    1.437   .     S
C294   O320    1.287   .     A
C296   C179    1.361   1_655 S
C296   C218    1.495   1_655 S
C297   I345    2.115   .     S
C297   C302    1.407   .     A
C298   I346    2.115   .     S
C298   C301    1.407   .     A
C298   C474    1.385   .     S
C299   C301    1.397   .     A
C299   H309    1.084   .     S
C299   C471    1.384   .     S
C300   C302    1.397   .     A
C300   H310    1.084   .     S
C303   H311    1.077   .     S
C303   N314    1.356   .     A
C303   C1349   1.413   1_554 S
C304   N313    1.356   .     A
C304   H312    1.077   .     S
C304   C828    1.413   .     S
C305   N313    1.384   .     A
C305   I347    2.123   .     S
C305   C825    1.413   .     S
C306   N314    1.384   .     A
C306   I348    2.123   .     S
C306   C1348   1.413   1_554 S
Cu307  O319    1.966   .     S
Cu307  O315    1.957   .     S
Cu307  N313    2.021   .     S
Cu307  Cu308   2.690   .     S
Cu307  O322    1.963   .     S
Cu307  O318    1.960   .     S
Cu308  O320    1.966   .     S
Cu308  O316    1.957   .     S
Cu308  N314    2.021   .     S
Cu308  O321    1.963   .     S
Cu308  O317    1.960   .     S
C323   C324    1.405   .     A
C323   C328    1.408   .     A
C323   C179    1.495   1_655 S
C324   C325    1.399   .     A
C324   H213    1.082   1_655 S
C325   C326    1.398   .     A
C325   H1374   1.082   1_554 S
C326   H331    1.083   .     S
C326   C327    1.397   .     A
C327   C328    1.399   .     A
C327   H332    1.083   .     S
C328   H333    1.083   .     S
H330   C847    1.082   .     S
C334   C339    1.406   .     A
C334   C335    1.408   .     A
C335   C336    1.399   .     A
C335   H340    1.084   .     S
C336   C337    1.398   .     A
C336   H341    1.083   .     S
C337   H342    1.083   .     S
C337   C338    1.398   .     A
C338   C339    1.399   .     A
C338   H865    1.082   .     S
H343   C1382   1.082   1_554 S
H344   C223    1.082   1_655 S
C349   O373    1.295   .     A
C349   C360    1.445   .     S
C349   O375    1.292   .     A
C350   O376    1.292   .     A
C350   C359    1.445   .     S
C350   O374    1.295   .     A
C351   O379    1.292   .     A
C351   O377    1.287   .     A
C351   C353    1.437   .     S
C352   O380    1.292   .     A
C352   C354    1.437   .     S
C352   O378    1.287   .     A
C353   C470    1.361   1_455 S
C353   C497    1.495   1_455 S
C354   C411    1.361   .     S
C354   C450    1.495   .     S
C355   I403    2.115   .     S
C355   C360    1.407   .     A
C356   I404    2.115   .     S
C356   C359    1.407   .     A
C356   C10     1.385   1_565 S
C357   C359    1.397   .     A
C357   H367    1.084   .     S
C357   C7      1.384   1_565 S
C358   C360    1.397   .     A
C358   H368    1.084   .     S
C361   H369    1.077   .     S
C361   N372    1.356   .     A
C361   C1407   1.413   1_554 S
C362   N371    1.356   .     A
C362   H370    1.077   .     S
C362   C886    1.413   .     S
C363   N371    1.384   .     A
C363   I405    2.123   .     S
C363   C883    1.413   .     S
C364   N372    1.384   .     A
C364   I406    2.123   .     S
C364   C1406   1.413   1_554 S
Cu365  O377    1.966   .     S
Cu365  O373    1.957   .     S
Cu365  N371    2.021   .     S
Cu365  Cu366   2.690   .     S
Cu365  O380    1.963   .     S
Cu365  O376    1.960   .     S
Cu366  O378    1.966   .     S
Cu366  O374    1.957   .     S
Cu366  N372    2.021   .     S
Cu366  O379    1.963   .     S
Cu366  O375    1.960   .     S
C381   C382    1.405   .     A
C381   C386    1.408   .     A
C381   C411    1.495   .     S
C382   C383    1.399   .     A
C382   H445    1.082   .     S
C383   C384    1.398   .     A
C383   H1432   1.082   1_554 S
C384   H389    1.083   .     S
C384   C385    1.397   .     A
C385   C386    1.399   .     A
C385   H390    1.083   .     S
C386   H391    1.083   .     S
H387   C498    1.082   1_455 S
H388   C905    1.082   .     S
C392   C397    1.406   .     A
C392   C393    1.408   .     A
C392   C470    1.495   1_455 S
C393   C394    1.399   .     A
C393   H398    1.084   .     S
C394   C395    1.398   .     A
C394   H399    1.083   .     S
C395   H400    1.083   .     S
C395   C396    1.398   .     A
C396   C397    1.399   .     A
C396   H923    1.082   .     S
C397   H518    1.082   1_455 S
H401   C1440   1.082   1_554 S
H402   C455    1.082   .     S
C407   O431    1.295   .     A
C407   C418    1.445   .     S
C407   O433    1.292   .     A
C408   O434    1.292   .     A
C408   C417    1.445   .     S
C408   O432    1.295   .     A
C409   O437    1.292   .     A
C409   O435    1.287   .     A
C409   C411    1.437   .     S
C410   O438    1.292   .     A
C410   C412    1.437   .     S
C410   O436    1.287   .     A
C412   C469    1.361   .     S
C412   C508    1.495   .     S
C413   I461    2.115   .     S
C413   C418    1.407   .     A
C414   I462    2.115   .     S
C414   C417    1.407   .     A
C414   C68     1.385   1_565 S
C415   C417    1.397   .     A
C415   H425    1.084   .     S
C415   C65     1.384   1_565 S
C416   C418    1.397   .     A
C416   H426    1.084   .     S
C419   H427    1.077   .     S
C419   N430    1.356   .     A
C419   C1465   1.413   1_554 S
C420   N429    1.356   .     A
C420   H428    1.077   .     S
C420   C944    1.413   .     S
C421   N429    1.384   .     A
C421   I463    2.123   .     S
C421   C941    1.413   .     S
C422   N430    1.384   .     A
C422   I464    2.123   .     S
C422   C1464   1.413   1_554 S
Cu423  O435    1.966   .     S
Cu423  O431    1.957   .     S
Cu423  N429    2.021   .     S
Cu423  Cu424   2.690   .     S
Cu423  O438    1.963   .     S
Cu423  O434    1.960   .     S
Cu424  O436    1.966   .     S
Cu424  O432    1.957   .     S
Cu424  N430    2.021   .     S
Cu424  O437    1.963   .     S
Cu424  O433    1.960   .     S
C439   C440    1.405   .     A
C439   C444    1.408   .     A
C439   C469    1.495   .     S
C440   C441    1.399   .     A
C440   H503    1.082   .     S
C441   C442    1.398   .     A
C441   H1490   1.082   1_554 S
C442   H447    1.083   .     S
C442   C443    1.397   .     A
C443   C444    1.399   .     A
C443   H448    1.083   .     S
C444   H449    1.083   .     S
H446   C963    1.082   .     S
C450   C455    1.406   .     A
C450   C451    1.408   .     A
C451   C452    1.399   .     A
C451   H456    1.084   .     S
C452   C453    1.398   .     A
C452   H457    1.083   .     S
C453   H458    1.083   .     S
C453   C454    1.398   .     A
C454   C455    1.399   .     A
C454   H981    1.082   .     S
H459   C1498   1.082   1_554 S
H460   C513    1.082   .     S
C465   O489    1.295   .     A
C465   C476    1.445   .     S
C465   O491    1.292   .     A
C466   O492    1.292   .     A
C466   C475    1.445   .     S
C466   O490    1.295   .     A
C467   O495    1.292   .     A
C467   O493    1.287   .     A
C467   C469    1.437   .     S
C468   O496    1.292   .     A
C468   C470    1.437   .     S
C468   O494    1.287   .     A
C470   C353    1.361   1_655 S
C470   C392    1.495   1_655 S
C471   I519    2.115   .     S
C471   C476    1.407   .     A
C472   I520    2.115   .     S
C472   C475    1.407   .     A
C472   C126    1.385   1_565 S
C473   C475    1.397   .     A
C473   H483    1.084   .     S
C473   C123    1.384   1_565 S
C474   C476    1.397   .     A
C474   H484    1.084   .     S
C477   H485    1.077   .     S
C477   N488    1.356   .     A
C477   C1523   1.413   1_554 S
C478   N487    1.356   .     A
C478   H486    1.077   .     S
C478   C1002   1.413   .     S
C479   N487    1.384   .     A
C479   I521    2.123   .     S
C479   C999    1.413   .     S
C480   N488    1.384   .     A
C480   I522    2.123   .     S
C480   C1522   1.413   1_554 S
Cu481  O493    1.966   .     S
Cu481  O489    1.957   .     S
Cu481  N487    2.021   .     S
Cu481  Cu482   2.690   .     S
Cu481  O496    1.963   .     S
Cu481  O492    1.960   .     S
Cu482  O494    1.966   .     S
Cu482  O490    1.957   .     S
Cu482  N488    2.021   .     S
Cu482  O495    1.963   .     S
Cu482  O491    1.960   .     S
C497   C498    1.405   .     A
C497   C502    1.408   .     A
C497   C353    1.495   1_655 S
C498   C499    1.399   .     A
C498   H387    1.082   1_655 S
C499   C500    1.398   .     A
C499   H1548   1.082   1_554 S
C500   H505    1.083   .     S
C500   C501    1.397   .     A
C501   C502    1.399   .     A
C501   H506    1.083   .     S
C502   H507    1.083   .     S
H504   C1021   1.082   .     S
C508   C513    1.406   .     A
C508   C509    1.408   .     A
C509   C510    1.399   .     A
C509   H514    1.084   .     S
C510   C511    1.398   .     A
C510   H515    1.083   .     S
C511   H516    1.083   .     S
C511   C512    1.398   .     A
C512   C513    1.399   .     A
C512   H1039   1.082   .     S
H517   C1556   1.082   1_554 S
H518   C397    1.082   1_655 S
C523   O547    1.295   .     A
C523   C534    1.445   .     S
C523   O549    1.292   .     A
C524   O550    1.292   .     A
C524   C533    1.445   .     S
C524   O548    1.295   .     A
C525   O553    1.292   .     A
C525   O551    1.287   .     A
C525   C527    1.437   .     S
C526   O554    1.292   .     A
C526   C528    1.437   .     S
C526   O552    1.287   .     A
C527   C644    1.361   1_455 S
C527   C671    1.495   1_455 S
C528   C585    1.361   .     S
C528   C624    1.495   .     S
C529   I577    2.115   .     S
C529   C534    1.407   .     A
C529   C879    1.384   1_545 S
C530   I578    2.115   .     S
C530   C533    1.407   .     A
C530   C706    1.385   .     S
C531   C533    1.397   .     A
C531   H541    1.084   .     S
C531   C703    1.384   .     S
C532   C534    1.397   .     A
C532   H542    1.084   .     S
C532   C878    1.385   1_545 S
C535   H543    1.077   .     S
C535   N546    1.356   .     A
C536   N545    1.356   .     A
C536   H544    1.077   .     S
C536   C1060   1.413   .     S
C537   N545    1.384   .     A
C537   I579    2.123   .     S
C537   C1057   1.413   .     S
C538   N546    1.384   .     A
C538   I580    2.123   .     S
Cu539  O551    1.966   .     S
Cu539  O547    1.957   .     S
Cu539  N545    2.021   .     S
Cu539  Cu540   2.690   .     S
Cu539  O554    1.963   .     S
Cu539  O550    1.960   .     S
Cu540  O552    1.966   .     S
Cu540  O548    1.957   .     S
Cu540  N546    2.021   .     S
Cu540  O553    1.963   .     S
Cu540  O549    1.960   .     S
C555   C556    1.405   .     A
C555   C560    1.408   .     A
C555   C585    1.495   .     S
C556   C557    1.399   .     A
C556   H619    1.082   .     S
C557   C558    1.398   .     A
C558   H563    1.083   .     S
C558   C559    1.397   .     A
C559   C560    1.399   .     A
C559   H564    1.083   .     S
C560   H565    1.083   .     S
H561   C672    1.082   1_455 S
H562   C1079   1.082   .     S
C566   C571    1.406   .     A
C566   C567    1.408   .     A
C566   C644    1.495   1_455 S
C567   C568    1.399   .     A
C567   H572    1.084   .     S
C568   C569    1.398   .     A
C568   H573    1.083   .     S
C569   H574    1.083   .     S
C569   C570    1.398   .     A
C570   C571    1.399   .     A
C570   H1097   1.082   .     S
C571   H692    1.082   1_455 S
H576   C629    1.082   .     S
C581   O605    1.295   .     A
C581   C592    1.445   .     S
C581   O607    1.292   .     A
C582   O608    1.292   .     A
C582   C591    1.445   .     S
C582   O606    1.295   .     A
C583   O611    1.292   .     A
C583   O609    1.287   .     A
C583   C585    1.437   .     S
C584   O612    1.292   .     A
C584   C586    1.437   .     S
C584   O610    1.287   .     A
C586   C643    1.361   .     S
C586   C682    1.495   .     S
C587   I635    2.115   .     S
C587   C592    1.407   .     A
C587   C937    1.384   1_545 S
C588   I636    2.115   .     S
C588   C591    1.407   .     A
C588   C764    1.385   .     S
C589   C591    1.397   .     A
C589   H599    1.084   .     S
C589   C761    1.384   .     S
C590   C592    1.397   .     A
C590   H600    1.084   .     S
C590   C936    1.385   1_545 S
C593   H601    1.077   .     S
C593   N604    1.356   .     A
C594   N603    1.356   .     A
C594   H602    1.077   .     S
C594   C1118   1.413   .     S
C595   N603    1.384   .     A
C595   I637    2.123   .     S
C595   C1115   1.413   .     S
C596   N604    1.384   .     A
C596   I638    2.123   .     S
Cu597  O609    1.966   .     S
Cu597  O605    1.957   .     S
Cu597  N603    2.021   .     S
Cu597  Cu598   2.690   .     S
Cu597  O612    1.963   .     S
Cu597  O608    1.960   .     S
Cu598  O610    1.966   .     S
Cu598  O606    1.957   .     S
Cu598  N604    2.021   .     S
Cu598  O611    1.963   .     S
Cu598  O607    1.960   .     S
C613   C614    1.405   .     A
C613   C618    1.408   .     A
C613   C643    1.495   .     S
C614   C615    1.399   .     A
C614   H677    1.082   .     S
C615   C616    1.398   .     A
C616   H621    1.083   .     S
C616   C617    1.397   .     A
C617   C618    1.399   .     A
C617   H622    1.083   .     S
C618   H623    1.083   .     S
H620   C1137   1.082   .     S
C624   C629    1.406   .     A
C624   C625    1.408   .     A
C625   C626    1.399   .     A
C625   H630    1.084   .     S
C626   C627    1.398   .     A
C626   H631    1.083   .     S
C627   H632    1.083   .     S
C627   C628    1.398   .     A
C628   C629    1.399   .     A
C628   H1155   1.082   .     S
H634   C687    1.082   .     S
C639   O663    1.295   .     A
C639   C650    1.445   .     S
C639   O665    1.292   .     A
C640   O666    1.292   .     A
C640   C649    1.445   .     S
C640   O664    1.295   .     A
C641   O669    1.292   .     A
C641   O667    1.287   .     A
C641   C643    1.437   .     S
C642   O670    1.292   .     A
C642   C644    1.437   .     S
C642   O668    1.287   .     A
C644   C527    1.361   1_655 S
C644   C566    1.495   1_655 S
C645   I693    2.115   .     S
C645   C650    1.407   .     A
C645   C995    1.384   1_545 S
C646   I694    2.115   .     S
C646   C649    1.407   .     A
C646   C822    1.385   .     S
C647   C649    1.397   .     A
C647   H657    1.084   .     S
C647   C819    1.384   .     S
C648   C650    1.397   .     A
C648   H658    1.084   .     S
C648   C994    1.385   1_545 S
C651   H659    1.077   .     S
C651   N662    1.356   .     A
C652   N661    1.356   .     A
C652   H660    1.077   .     S
C652   C1176   1.413   .     S
C653   N661    1.384   .     A
C653   I695    2.123   .     S
C653   C1173   1.413   .     S
C654   N662    1.384   .     A
C654   I696    2.123   .     S
Cu655  O667    1.966   .     S
Cu655  O663    1.957   .     S
Cu655  N661    2.021   .     S
Cu655  Cu656   2.690   .     S
Cu655  O670    1.963   .     S
Cu655  O666    1.960   .     S
Cu656  O668    1.966   .     S
Cu656  O664    1.957   .     S
Cu656  N662    2.021   .     S
Cu656  O669    1.963   .     S
Cu656  O665    1.960   .     S
C671   C672    1.405   .     A
C671   C676    1.408   .     A
C671   C527    1.495   1_655 S
C672   C673    1.399   .     A
C672   H561    1.082   1_655 S
C673   C674    1.398   .     A
C674   H679    1.083   .     S
C674   C675    1.397   .     A
C675   C676    1.399   .     A
C675   H680    1.083   .     S
C676   H681    1.083   .     S
H678   C1195   1.082   .     S
C682   C687    1.406   .     A
C682   C683    1.408   .     A
C683   C684    1.399   .     A
C683   H688    1.084   .     S
C684   C685    1.398   .     A
C684   H689    1.083   .     S
C685   H690    1.083   .     S
C685   C686    1.398   .     A
C686   C687    1.399   .     A
C686   H1213   1.082   .     S
H692   C571    1.082   1_655 S
C697   O721    1.295   .     A
C697   C708    1.445   .     S
C697   O723    1.292   .     A
C698   O724    1.292   .     A
C698   C707    1.445   .     S
C698   O722    1.295   .     A
C699   O727    1.292   .     A
C699   O725    1.287   .     A
C699   C701    1.437   .     S
C700   O728    1.292   .     A
C700   C702    1.437   .     S
C700   O726    1.287   .     A
C701   C818    1.361   1_455 S
C701   C845    1.495   1_455 S
C702   C759    1.361   .     S
C702   C798    1.495   .     S
C703   I751    2.115   .     S
C703   C708    1.407   .     A
C704   I752    2.115   .     S
C704   C707    1.407   .     A
C704   C880    1.385   .     S
C705   C707    1.397   .     A
C705   H715    1.084   .     S
C705   C877    1.384   .     S
C706   C708    1.397   .     A
C706   H716    1.084   .     S
C709   H717    1.077   .     S
C709   N720    1.356   .     A
C710   N719    1.356   .     A
C710   H718    1.077   .     S
C710   C1234   1.413   .     S
C711   N719    1.384   .     A
C711   I753    2.123   .     S
C711   C1231   1.413   .     S
C712   N720    1.384   .     A
C712   I754    2.123   .     S
Cu713  O725    1.966   .     S
Cu713  O721    1.957   .     S
Cu713  N719    2.021   .     S
Cu713  Cu714   2.690   .     S
Cu713  O728    1.963   .     S
Cu713  O724    1.960   .     S
Cu714  O726    1.966   .     S
Cu714  O722    1.957   .     S
Cu714  N720    2.021   .     S
Cu714  O727    1.963   .     S
Cu714  O723    1.960   .     S
C729   C730    1.405   .     A
C729   C734    1.408   .     A
C729   C759    1.495   .     S
C730   C731    1.399   .     A
C730   H793    1.082   .     S
C731   C732    1.398   .     A
C732   H737    1.083   .     S
C732   C733    1.397   .     A
C733   C734    1.399   .     A
C733   H738    1.083   .     S
C734   H739    1.083   .     S
H735   C846    1.082   1_455 S
H736   C1253   1.082   .     S
C740   C745    1.406   .     A
C740   C741    1.408   .     A
C740   C818    1.495   1_455 S
C741   C742    1.399   .     A
C741   H746    1.084   .     S
C742   C743    1.398   .     A
C742   H747    1.083   .     S
C743   H748    1.083   .     S
C743   C744    1.398   .     A
C744   C745    1.399   .     A
C744   H1271   1.082   .     S
C745   H866    1.082   1_455 S
H750   C803    1.082   .     S
C755   O779    1.295   .     A
C755   C766    1.445   .     S
C755   O781    1.292   .     A
C756   O782    1.292   .     A
C756   C765    1.445   .     S
C756   O780    1.295   .     A
C757   O785    1.292   .     A
C757   O783    1.287   .     A
C757   C759    1.437   .     S
C758   O786    1.292   .     A
C758   C760    1.437   .     S
C758   O784    1.287   .     A
C760   C817    1.361   .     S
C760   C856    1.495   .     S
C761   I809    2.115   .     S
C761   C766    1.407   .     A
C762   I810    2.115   .     S
C762   C765    1.407   .     A
C762   C938    1.385   .     S
C763   C765    1.397   .     A
C763   H773    1.084   .     S
C763   C935    1.384   .     S
C764   C766    1.397   .     A
C764   H774    1.084   .     S
C767   H775    1.077   .     S
C767   N778    1.356   .     A
C768   N777    1.356   .     A
C768   H776    1.077   .     S
C768   C1292   1.413   .     S
C769   N777    1.384   .     A
C769   I811    2.123   .     S
C769   C1289   1.413   .     S
C770   N778    1.384   .     A
C770   I812    2.123   .     S
Cu771  O783    1.966   .     S
Cu771  O779    1.957   .     S
Cu771  N777    2.021   .     S
Cu771  Cu772   2.690   .     S
Cu771  O786    1.963   .     S
Cu771  O782    1.960   .     S
Cu772  O784    1.966   .     S
Cu772  O780    1.957   .     S
Cu772  N778    2.021   .     S
Cu772  O785    1.963   .     S
Cu772  O781    1.960   .     S
C787   C788    1.405   .     A
C787   C792    1.408   .     A
C787   C817    1.495   .     S
C788   C789    1.399   .     A
C788   H851    1.082   .     S
C789   C790    1.398   .     A
C790   H795    1.083   .     S
C790   C791    1.397   .     A
C791   C792    1.399   .     A
C791   H796    1.083   .     S
C792   H797    1.083   .     S
H794   C1311   1.082   .     S
C798   C803    1.406   .     A
C798   C799    1.408   .     A
C799   C800    1.399   .     A
C799   H804    1.084   .     S
C800   C801    1.398   .     A
C800   H805    1.083   .     S
C801   H806    1.083   .     S
C801   C802    1.398   .     A
C802   C803    1.399   .     A
C802   H1329   1.082   .     S
H808   C861    1.082   .     S
C813   O837    1.295   .     A
C813   C824    1.445   .     S
C813   O839    1.292   .     A
C814   O840    1.292   .     A
C814   C823    1.445   .     S
C814   O838    1.295   .     A
C815   O843    1.292   .     A
C815   O841    1.287   .     A
C815   C817    1.437   .     S
C816   O844    1.292   .     A
C816   C818    1.437   .     S
C816   O842    1.287   .     A
C818   C701    1.361   1_655 S
C818   C740    1.495   1_655 S
C819   I867    2.115   .     S
C819   C824    1.407   .     A
C820   I868    2.115   .     S
C820   C823    1.407   .     A
C820   C996    1.385   .     S
C821   C823    1.397   .     A
C821   H831    1.084   .     S
C821   C993    1.384   .     S
C822   C824    1.397   .     A
C822   H832    1.084   .     S
C825   H833    1.077   .     S
C825   N836    1.356   .     A
C826   N835    1.356   .     A
C826   H834    1.077   .     S
C826   C1350   1.413   .     S
C827   N835    1.384   .     A
C827   I869    2.123   .     S
C827   C1347   1.413   .     S
C828   N836    1.384   .     A
C828   I870    2.123   .     S
Cu829  O841    1.966   .     S
Cu829  O837    1.957   .     S
Cu829  N835    2.021   .     S
Cu829  Cu830   2.690   .     S
Cu829  O844    1.963   .     S
Cu829  O840    1.960   .     S
Cu830  O842    1.966   .     S
Cu830  O838    1.957   .     S
Cu830  N836    2.021   .     S
Cu830  O843    1.963   .     S
Cu830  O839    1.960   .     S
C845   C846    1.405   .     A
C845   C850    1.408   .     A
C845   C701    1.495   1_655 S
C846   C847    1.399   .     A
C846   H735    1.082   1_655 S
C847   C848    1.398   .     A
C848   H853    1.083   .     S
C848   C849    1.397   .     A
C849   C850    1.399   .     A
C849   H854    1.083   .     S
C850   H855    1.083   .     S
H852   C1369   1.082   .     S
C856   C861    1.406   .     A
C856   C857    1.408   .     A
C857   C858    1.399   .     A
C857   H862    1.084   .     S
C858   C859    1.398   .     A
C858   H863    1.083   .     S
C859   H864    1.083   .     S
C859   C860    1.398   .     A
C860   C861    1.399   .     A
C860   H1387   1.082   .     S
H866   C745    1.082   1_655 S
C871   O895    1.295   .     A
C871   C882    1.445   .     S
C871   O897    1.292   .     A
C872   O898    1.292   .     A
C872   C881    1.445   .     S
C872   O896    1.295   .     A
C873   O901    1.292   .     A
C873   O899    1.287   .     A
C873   C875    1.437   .     S
C874   O902    1.292   .     A
C874   C876    1.437   .     S
C874   O900    1.287   .     A
C875   C992    1.361   1_455 S
C875   C1019   1.495   1_455 S
C876   C933    1.361   .     S
C876   C972    1.495   .     S
C877   I925    2.115   .     S
C877   C882    1.407   .     A
C878   I926    2.115   .     S
C878   C881    1.407   .     A
C878   C532    1.385   1_565 S
C879   C881    1.397   .     A
C879   H889    1.084   .     S
C879   C529    1.384   1_565 S
C880   C882    1.397   .     A
C880   H890    1.084   .     S
C883   H891    1.077   .     S
C883   N894    1.356   .     A
C884   N893    1.356   .     A
C884   H892    1.077   .     S
C884   C1408   1.413   .     S
C885   N893    1.384   .     A
C885   I927    2.123   .     S
C885   C1405   1.413   .     S
C886   N894    1.384   .     A
C886   I928    2.123   .     S
Cu887  O899    1.966   .     S
Cu887  O895    1.957   .     S
Cu887  N893    2.021   .     S
Cu887  Cu888   2.690   .     S
Cu887  O902    1.963   .     S
Cu887  O898    1.960   .     S
Cu888  O900    1.966   .     S
Cu888  O896    1.957   .     S
Cu888  N894    2.021   .     S
Cu888  O901    1.963   .     S
Cu888  O897    1.960   .     S
C903   C904    1.405   .     A
C903   C908    1.408   .     A
C903   C933    1.495   .     S
C904   C905    1.399   .     A
C904   H967    1.082   .     S
C905   C906    1.398   .     A
C906   H911    1.083   .     S
C906   C907    1.397   .     A
C907   C908    1.399   .     A
C907   H912    1.083   .     S
C908   H913    1.083   .     S
H909   C1020   1.082   1_455 S
H910   C1427   1.082   .     S
C914   C919    1.406   .     A
C914   C915    1.408   .     A
C914   C992    1.495   1_455 S
C915   C916    1.399   .     A
C915   H920    1.084   .     S
C916   C917    1.398   .     A
C916   H921    1.083   .     S
C917   H922    1.083   .     S
C917   C918    1.398   .     A
C918   C919    1.399   .     A
C918   H1445   1.082   .     S
C919   H1040   1.082   1_455 S
H924   C977    1.082   .     S
C929   O953    1.295   .     A
C929   C940    1.445   .     S
C929   O955    1.292   .     A
C930   O956    1.292   .     A
C930   C939    1.445   .     S
C930   O954    1.295   .     A
C931   O959    1.292   .     A
C931   O957    1.287   .     A
C931   C933    1.437   .     S
C932   O960    1.292   .     A
C932   C934    1.437   .     S
C932   O958    1.287   .     A
C934   C991    1.361   .     S
C934   C1030   1.495   .     S
C935   I983    2.115   .     S
C935   C940    1.407   .     A
C936   I984    2.115   .     S
C936   C939    1.407   .     A
C936   C590    1.385   1_565 S
C937   C939    1.397   .     A
C937   H947    1.084   .     S
C937   C587    1.384   1_565 S
C938   C940    1.397   .     A
C938   H948    1.084   .     S
C941   H949    1.077   .     S
C941   N952    1.356   .     A
C942   N951    1.356   .     A
C942   H950    1.077   .     S
C942   C1466   1.413   .     S
C943   N951    1.384   .     A
C943   I985    2.123   .     S
C943   C1463   1.413   .     S
C944   N952    1.384   .     A
C944   I986    2.123   .     S
Cu945  O957    1.966   .     S
Cu945  O953    1.957   .     S
Cu945  N951    2.021   .     S
Cu945  Cu946   2.690   .     S
Cu945  O960    1.963   .     S
Cu945  O956    1.960   .     S
Cu946  O958    1.966   .     S
Cu946  O954    1.957   .     S
Cu946  N952    2.021   .     S
Cu946  O959    1.963   .     S
Cu946  O955    1.960   .     S
C961   C962    1.405   .     A
C961   C966    1.408   .     A
C961   C991    1.495   .     S
C962   C963    1.399   .     A
C962   H1025   1.082   .     S
C963   C964    1.398   .     A
C964   H969    1.083   .     S
C964   C965    1.397   .     A
C965   C966    1.399   .     A
C965   H970    1.083   .     S
C966   H971    1.083   .     S
H968   C1485   1.082   .     S
C972   C977    1.406   .     A
C972   C973    1.408   .     A
C973   C974    1.399   .     A
C973   H978    1.084   .     S
C974   C975    1.398   .     A
C974   H979    1.083   .     S
C975   H980    1.083   .     S
C975   C976    1.398   .     A
C976   C977    1.399   .     A
C976   H1503   1.082   .     S
H982   C1035   1.082   .     S
C987   O1011   1.295   .     A
C987   C998    1.445   .     S
C987   O1013   1.292   .     A
C988   O1014   1.292   .     A
C988   C997    1.445   .     S
C988   O1012   1.295   .     A
C989   O1017   1.292   .     A
C989   O1015   1.287   .     A
C989   C991    1.437   .     S
C990   O1018   1.292   .     A
C990   C992    1.437   .     S
C990   O1016   1.287   .     A
C992   C875    1.361   1_655 S
C992   C914    1.495   1_655 S
C993   I1041   2.115   .     S
C993   C998    1.407   .     A
C994   I1042   2.115   .     S
C994   C997    1.407   .     A
C994   C648    1.385   1_565 S
C995   C997    1.397   .     A
C995   H1005   1.084   .     S
C995   C645    1.384   1_565 S
C996   C998    1.397   .     A
C996   H1006   1.084   .     S
C999   H1007   1.077   .     S
C999   N1010   1.356   .     A
C1000  N1009   1.356   .     A
C1000  H1008   1.077   .     S
C1000  C1524   1.413   .     S
C1001  N1009   1.384   .     A
C1001  I1043   2.123   .     S
C1001  C1521   1.413   .     S
C1002  N1010   1.384   .     A
C1002  I1044   2.123   .     S
Cu1003 O1015   1.966   .     S
Cu1003 O1011   1.957   .     S
Cu1003 N1009   2.021   .     S
Cu1003 Cu1004  2.690   .     S
Cu1003 O1018   1.963   .     S
Cu1003 O1014   1.960   .     S
Cu1004 O1016   1.966   .     S
Cu1004 O1012   1.957   .     S
Cu1004 N1010   2.021   .     S
Cu1004 O1017   1.963   .     S
Cu1004 O1013   1.960   .     S
C1019  C1020   1.405   .     A
C1019  C1024   1.408   .     A
C1019  C875    1.495   1_655 S
C1020  C1021   1.399   .     A
C1020  H909    1.082   1_655 S
C1021  C1022   1.398   .     A
C1022  H1027   1.083   .     S
C1022  C1023   1.397   .     A
C1023  C1024   1.399   .     A
C1023  H1028   1.083   .     S
C1024  H1029   1.083   .     S
H1026  C1543   1.082   .     S
C1030  C1035   1.406   .     A
C1030  C1031   1.408   .     A
C1031  C1032   1.399   .     A
C1031  H1036   1.084   .     S
C1032  C1033   1.398   .     A
C1032  H1037   1.083   .     S
C1033  H1038   1.083   .     S
C1033  C1034   1.398   .     A
C1034  C1035   1.399   .     A
C1034  H1561   1.082   .     S
H1040  C919    1.082   1_655 S
C1045  O1069   1.295   .     A
C1045  C1056   1.445   .     S
C1045  O1071   1.292   .     A
C1046  O1072   1.292   .     A
C1046  C1055   1.445   .     S
C1046  O1070   1.295   .     A
C1047  O1075   1.292   .     A
C1047  O1073   1.287   .     A
C1047  C1049   1.437   .     S
C1048  O1076   1.292   .     A
C1048  C1050   1.437   .     S
C1048  O1074   1.287   .     A
C1049  C1166   1.361   1_455 S
C1049  C1193   1.495   1_455 S
C1050  C1107   1.361   .     S
C1050  C1146   1.495   .     S
C1051  I1099   2.115   .     S
C1051  C1056   1.407   .     A
C1051  C1401   1.384   1_545 S
C1052  I1100   2.115   .     S
C1052  C1055   1.407   .     A
C1052  C1228   1.385   .     S
C1053  C1055   1.397   .     A
C1053  H1063   1.084   .     S
C1053  C1225   1.384   .     S
C1054  C1056   1.397   .     A
C1054  H1064   1.084   .     S
C1054  C1400   1.385   1_545 S
C1057  H1065   1.077   .     S
C1057  N1068   1.356   .     A
C1058  N1067   1.356   .     A
C1058  H1066   1.077   .     S
C1058  C16     1.413   1_556 S
C1059  N1067   1.384   .     A
C1059  I1101   2.123   .     S
C1059  C13     1.413   1_556 S
C1060  N1068   1.384   .     A
C1060  I1102   2.123   .     S
Cu1061 O1073   1.966   .     S
Cu1061 O1069   1.957   .     S
Cu1061 N1067   2.021   .     S
Cu1061 Cu1062  2.690   .     S
Cu1061 O1076   1.963   .     S
Cu1061 O1072   1.960   .     S
Cu1062 O1074   1.966   .     S
Cu1062 O1070   1.957   .     S
Cu1062 N1068   2.021   .     S
Cu1062 O1075   1.963   .     S
Cu1062 O1071   1.960   .     S
C1077  C1078   1.405   .     A
C1077  C1082   1.408   .     A
C1077  C1107   1.495   .     S
C1078  C1079   1.399   .     A
C1078  H1141   1.082   .     S
C1079  C1080   1.398   .     A
C1080  H1085   1.083   .     S
C1080  C1081   1.397   .     A
C1081  C1082   1.399   .     A
C1081  H1086   1.083   .     S
C1082  H1087   1.083   .     S
H1083  C1194   1.082   1_455 S
H1084  C35     1.082   1_556 S
C1088  C1093   1.406   .     A
C1088  C1089   1.408   .     A
C1088  C1166   1.495   1_455 S
C1089  C1090   1.399   .     A
C1089  H1094   1.084   .     S
C1090  C1091   1.398   .     A
C1090  H1095   1.083   .     S
C1091  H1096   1.083   .     S
C1091  C1092   1.398   .     A
C1092  C1093   1.399   .     A
C1092  H53     1.082   1_556 S
C1093  H1214   1.082   1_455 S
H1098  C1151   1.082   .     S
C1103  O1127   1.295   .     A
C1103  C1114   1.445   .     S
C1103  O1129   1.292   .     A
C1104  O1130   1.292   .     A
C1104  C1113   1.445   .     S
C1104  O1128   1.295   .     A
C1105  O1133   1.292   .     A
C1105  O1131   1.287   .     A
C1105  C1107   1.437   .     S
C1106  O1134   1.292   .     A
C1106  C1108   1.437   .     S
C1106  O1132   1.287   .     A
C1108  C1165   1.361   .     S
C1108  C1204   1.495   .     S
C1109  I1157   2.115   .     S
C1109  C1114   1.407   .     A
C1109  C1459   1.384   1_545 S
C1110  I1158   2.115   .     S
C1110  C1113   1.407   .     A
C1110  C1286   1.385   .     S
C1111  C1113   1.397   .     A
C1111  H1121   1.084   .     S
C1111  C1283   1.384   .     S
C1112  C1114   1.397   .     A
C1112  H1122   1.084   .     S
C1112  C1458   1.385   1_545 S
C1115  H1123   1.077   .     S
C1115  N1126   1.356   .     A
C1116  N1125   1.356   .     A
C1116  H1124   1.077   .     S
C1116  C74     1.413   1_556 S
C1117  N1125   1.384   .     A
C1117  I1159   2.123   .     S
C1117  C71     1.413   1_556 S
C1118  N1126   1.384   .     A
C1118  I1160   2.123   .     S
Cu1119 O1131   1.966   .     S
Cu1119 O1127   1.957   .     S
Cu1119 N1125   2.021   .     S
Cu1119 Cu1120  2.690   .     S
Cu1119 O1134   1.963   .     S
Cu1119 O1130   1.960   .     S
Cu1120 O1132   1.966   .     S
Cu1120 O1128   1.957   .     S
Cu1120 N1126   2.021   .     S
Cu1120 O1133   1.963   .     S
Cu1120 O1129   1.960   .     S
C1135  C1136   1.405   .     A
C1135  C1140   1.408   .     A
C1135  C1165   1.495   .     S
C1136  C1137   1.399   .     A
C1136  H1199   1.082   .     S
C1137  C1138   1.398   .     A
C1138  H1143   1.083   .     S
C1138  C1139   1.397   .     A
C1139  C1140   1.399   .     A
C1139  H1144   1.083   .     S
C1140  H1145   1.083   .     S
H1142  C93     1.082   1_556 S
C1146  C1151   1.406   .     A
C1146  C1147   1.408   .     A
C1147  C1148   1.399   .     A
C1147  H1152   1.084   .     S
C1148  C1149   1.398   .     A
C1148  H1153   1.083   .     S
C1149  H1154   1.083   .     S
C1149  C1150   1.398   .     A
C1150  C1151   1.399   .     A
C1150  H111    1.082   1_556 S
H1156  C1209   1.082   .     S
C1161  O1185   1.295   .     A
C1161  C1172   1.445   .     S
C1161  O1187   1.292   .     A
C1162  O1188   1.292   .     A
C1162  C1171   1.445   .     S
C1162  O1186   1.295   .     A
C1163  O1191   1.292   .     A
C1163  O1189   1.287   .     A
C1163  C1165   1.437   .     S
C1164  O1192   1.292   .     A
C1164  C1166   1.437   .     S
C1164  O1190   1.287   .     A
C1166  C1049   1.361   1_655 S
C1166  C1088   1.495   1_655 S
C1167  I1215   2.115   .     S
C1167  C1172   1.407   .     A
C1167  C1517   1.384   1_545 S
C1168  I1216   2.115   .     S
C1168  C1171   1.407   .     A
C1168  C1344   1.385   .     S
C1169  C1171   1.397   .     A
C1169  H1179   1.084   .     S
C1169  C1341   1.384   .     S
C1170  C1172   1.397   .     A
C1170  H1180   1.084   .     S
C1170  C1516   1.385   1_545 S
C1173  H1181   1.077   .     S
C1173  N1184   1.356   .     A
C1174  N1183   1.356   .     A
C1174  H1182   1.077   .     S
C1174  C132    1.413   1_556 S
C1175  N1183   1.384   .     A
C1175  I1217   2.123   .     S
C1175  C129    1.413   1_556 S
C1176  N1184   1.384   .     A
C1176  I1218   2.123   .     S
Cu1177 O1189   1.966   .     S
Cu1177 O1185   1.957   .     S
Cu1177 N1183   2.021   .     S
Cu1177 Cu1178  2.690   .     S
Cu1177 O1192   1.963   .     S
Cu1177 O1188   1.960   .     S
Cu1178 O1190   1.966   .     S
Cu1178 O1186   1.957   .     S
Cu1178 N1184   2.021   .     S
Cu1178 O1191   1.963   .     S
Cu1178 O1187   1.960   .     S
C1193  C1194   1.405   .     A
C1193  C1198   1.408   .     A
C1193  C1049   1.495   1_655 S
C1194  C1195   1.399   .     A
C1194  H1083   1.082   1_655 S
C1195  C1196   1.398   .     A
C1196  H1201   1.083   .     S
C1196  C1197   1.397   .     A
C1197  C1198   1.399   .     A
C1197  H1202   1.083   .     S
C1198  H1203   1.083   .     S
H1200  C151    1.082   1_556 S
C1204  C1209   1.406   .     A
C1204  C1205   1.408   .     A
C1205  C1206   1.399   .     A
C1205  H1210   1.084   .     S
C1206  C1207   1.398   .     A
C1206  H1211   1.083   .     S
C1207  H1212   1.083   .     S
C1207  C1208   1.398   .     A
C1208  C1209   1.399   .     A
C1208  H169    1.082   1_556 S
H1214  C1093   1.082   1_655 S
C1219  O1243   1.295   .     A
C1219  C1230   1.445   .     S
C1219  O1245   1.292   .     A
C1220  O1246   1.292   .     A
C1220  C1229   1.445   .     S
C1220  O1244   1.295   .     A
C1221  O1249   1.292   .     A
C1221  O1247   1.287   .     A
C1221  C1223   1.437   .     S
C1222  O1250   1.292   .     A
C1222  C1224   1.437   .     S
C1222  O1248   1.287   .     A
C1223  C1340   1.361   1_455 S
C1223  C1367   1.495   1_455 S
C1224  C1281   1.361   .     S
C1224  C1320   1.495   .     S
C1225  I1273   2.115   .     S
C1225  C1230   1.407   .     A
C1226  I1274   2.115   .     S
C1226  C1229   1.407   .     A
C1226  C1402   1.385   .     S
C1227  C1229   1.397   .     A
C1227  H1237   1.084   .     S
C1227  C1399   1.384   .     S
C1228  C1230   1.397   .     A
C1228  H1238   1.084   .     S
C1231  H1239   1.077   .     S
C1231  N1242   1.356   .     A
C1232  N1241   1.356   .     A
C1232  H1240   1.077   .     S
C1232  C190    1.413   1_556 S
C1233  N1241   1.384   .     A
C1233  I1275   2.123   .     S
C1233  C187    1.413   1_556 S
C1234  N1242   1.384   .     A
C1234  I1276   2.123   .     S
Cu1235 O1247   1.966   .     S
Cu1235 O1243   1.957   .     S
Cu1235 N1241   2.021   .     S
Cu1235 Cu1236  2.690   .     S
Cu1235 O1250   1.963   .     S
Cu1235 O1246   1.960   .     S
Cu1236 O1248   1.966   .     S
Cu1236 O1244   1.957   .     S
Cu1236 N1242   2.021   .     S
Cu1236 O1249   1.963   .     S
Cu1236 O1245   1.960   .     S
C1251  C1252   1.405   .     A
C1251  C1256   1.408   .     A
C1251  C1281   1.495   .     S
C1252  C1253   1.399   .     A
C1252  H1315   1.082   .     S
C1253  C1254   1.398   .     A
C1254  H1259   1.083   .     S
C1254  C1255   1.397   .     A
C1255  C1256   1.399   .     A
C1255  H1260   1.083   .     S
C1256  H1261   1.083   .     S
H1257  C1368   1.082   1_455 S
H1258  C209    1.082   1_556 S
C1262  C1267   1.406   .     A
C1262  C1263   1.408   .     A
C1262  C1340   1.495   1_455 S
C1263  C1264   1.399   .     A
C1263  H1268   1.084   .     S
C1264  C1265   1.398   .     A
C1264  H1269   1.083   .     S
C1265  H1270   1.083   .     S
C1265  C1266   1.398   .     A
C1266  C1267   1.399   .     A
C1266  H227    1.082   1_556 S
C1267  H1388   1.082   1_455 S
H1272  C1325   1.082   .     S
C1277  O1301   1.295   .     A
C1277  C1288   1.445   .     S
C1277  O1303   1.292   .     A
C1278  O1304   1.292   .     A
C1278  C1287   1.445   .     S
C1278  O1302   1.295   .     A
C1279  O1307   1.292   .     A
C1279  O1305   1.287   .     A
C1279  C1281   1.437   .     S
C1280  O1308   1.292   .     A
C1280  C1282   1.437   .     S
C1280  O1306   1.287   .     A
C1282  C1339   1.361   .     S
C1282  C1378   1.495   .     S
C1283  I1331   2.115   .     S
C1283  C1288   1.407   .     A
C1284  I1332   2.115   .     S
C1284  C1287   1.407   .     A
C1284  C1460   1.385   .     S
C1285  C1287   1.397   .     A
C1285  H1295   1.084   .     S
C1285  C1457   1.384   .     S
C1286  C1288   1.397   .     A
C1286  H1296   1.084   .     S
C1289  H1297   1.077   .     S
C1289  N1300   1.356   .     A
C1290  N1299   1.356   .     A
C1290  H1298   1.077   .     S
C1290  C248    1.413   1_556 S
C1291  N1299   1.384   .     A
C1291  I1333   2.123   .     S
C1291  C245    1.413   1_556 S
C1292  N1300   1.384   .     A
C1292  I1334   2.123   .     S
Cu1293 O1305   1.966   .     S
Cu1293 O1301   1.957   .     S
Cu1293 N1299   2.021   .     S
Cu1293 Cu1294  2.690   .     S
Cu1293 O1308   1.963   .     S
Cu1293 O1304   1.960   .     S
Cu1294 O1306   1.966   .     S
Cu1294 O1302   1.957   .     S
Cu1294 N1300   2.021   .     S
Cu1294 O1307   1.963   .     S
Cu1294 O1303   1.960   .     S
C1309  C1310   1.405   .     A
C1309  C1314   1.408   .     A
C1309  C1339   1.495   .     S
C1310  C1311   1.399   .     A
C1310  H1373   1.082   .     S
C1311  C1312   1.398   .     A
C1312  H1317   1.083   .     S
C1312  C1313   1.397   .     A
C1313  C1314   1.399   .     A
C1313  H1318   1.083   .     S
C1314  H1319   1.083   .     S
H1316  C267    1.082   1_556 S
C1320  C1325   1.406   .     A
C1320  C1321   1.408   .     A
C1321  C1322   1.399   .     A
C1321  H1326   1.084   .     S
C1322  C1323   1.398   .     A
C1322  H1327   1.083   .     S
C1323  H1328   1.083   .     S
C1323  C1324   1.398   .     A
C1324  C1325   1.399   .     A
C1324  H285    1.082   1_556 S
H1330  C1383   1.082   .     S
C1335  O1359   1.295   .     A
C1335  C1346   1.445   .     S
C1335  O1361   1.292   .     A
C1336  O1362   1.292   .     A
C1336  C1345   1.445   .     S
C1336  O1360   1.295   .     A
C1337  O1365   1.292   .     A
C1337  O1363   1.287   .     A
C1337  C1339   1.437   .     S
C1338  O1366   1.292   .     A
C1338  C1340   1.437   .     S
C1338  O1364   1.287   .     A
C1340  C1223   1.361   1_655 S
C1340  C1262   1.495   1_655 S
C1341  I1389   2.115   .     S
C1341  C1346   1.407   .     A
C1342  I1390   2.115   .     S
C1342  C1345   1.407   .     A
C1342  C1518   1.385   .     S
C1343  C1345   1.397   .     A
C1343  H1353   1.084   .     S
C1343  C1515   1.384   .     S
C1344  C1346   1.397   .     A
C1344  H1354   1.084   .     S
C1347  H1355   1.077   .     S
C1347  N1358   1.356   .     A
C1348  N1357   1.356   .     A
C1348  H1356   1.077   .     S
C1348  C306    1.413   1_556 S
C1349  N1357   1.384   .     A
C1349  I1391   2.123   .     S
C1349  C303    1.413   1_556 S
C1350  N1358   1.384   .     A
C1350  I1392   2.123   .     S
Cu1351 O1363   1.966   .     S
Cu1351 O1359   1.957   .     S
Cu1351 N1357   2.021   .     S
Cu1351 Cu1352  2.690   .     S
Cu1351 O1366   1.963   .     S
Cu1351 O1362   1.960   .     S
Cu1352 O1364   1.966   .     S
Cu1352 O1360   1.957   .     S
Cu1352 N1358   2.021   .     S
Cu1352 O1365   1.963   .     S
Cu1352 O1361   1.960   .     S
C1367  C1368   1.405   .     A
C1367  C1372   1.408   .     A
C1367  C1223   1.495   1_655 S
C1368  C1369   1.399   .     A
C1368  H1257   1.082   1_655 S
C1369  C1370   1.398   .     A
C1370  H1375   1.083   .     S
C1370  C1371   1.397   .     A
C1371  C1372   1.399   .     A
C1371  H1376   1.083   .     S
C1372  H1377   1.083   .     S
H1374  C325    1.082   1_556 S
C1378  C1383   1.406   .     A
C1378  C1379   1.408   .     A
C1379  C1380   1.399   .     A
C1379  H1384   1.084   .     S
C1380  C1381   1.398   .     A
C1380  H1385   1.083   .     S
C1381  H1386   1.083   .     S
C1381  C1382   1.398   .     A
C1382  C1383   1.399   .     A
C1382  H343    1.082   1_556 S
H1388  C1267   1.082   1_655 S
C1393  O1417   1.295   .     A
C1393  C1404   1.445   .     S
C1393  O1419   1.292   .     A
C1394  O1420   1.292   .     A
C1394  C1403   1.445   .     S
C1394  O1418   1.295   .     A
C1395  O1423   1.292   .     A
C1395  O1421   1.287   .     A
C1395  C1397   1.437   .     S
C1396  O1424   1.292   .     A
C1396  C1398   1.437   .     S
C1396  O1422   1.287   .     A
C1397  C1514   1.361   1_455 S
C1397  C1541   1.495   1_455 S
C1398  C1455   1.361   .     S
C1398  C1494   1.495   .     S
C1399  I1447   2.115   .     S
C1399  C1404   1.407   .     A
C1400  I1448   2.115   .     S
C1400  C1403   1.407   .     A
C1400  C1054   1.385   1_565 S
C1401  C1403   1.397   .     A
C1401  H1411   1.084   .     S
C1401  C1051   1.384   1_565 S
C1402  C1404   1.397   .     A
C1402  H1412   1.084   .     S
C1405  H1413   1.077   .     S
C1405  N1416   1.356   .     A
C1406  N1415   1.356   .     A
C1406  H1414   1.077   .     S
C1406  C364    1.413   1_556 S
C1407  N1415   1.384   .     A
C1407  I1449   2.123   .     S
C1407  C361    1.413   1_556 S
C1408  N1416   1.384   .     A
C1408  I1450   2.123   .     S
Cu1409 O1421   1.966   .     S
Cu1409 O1417   1.957   .     S
Cu1409 N1415   2.021   .     S
Cu1409 Cu1410  2.690   .     S
Cu1409 O1424   1.963   .     S
Cu1409 O1420   1.960   .     S
Cu1410 O1422   1.966   .     S
Cu1410 O1418   1.957   .     S
Cu1410 N1416   2.021   .     S
Cu1410 O1423   1.963   .     S
Cu1410 O1419   1.960   .     S
C1425  C1426   1.405   .     A
C1425  C1430   1.408   .     A
C1425  C1455   1.495   .     S
C1426  C1427   1.399   .     A
C1426  H1489   1.082   .     S
C1427  C1428   1.398   .     A
C1428  H1433   1.083   .     S
C1428  C1429   1.397   .     A
C1429  C1430   1.399   .     A
C1429  H1434   1.083   .     S
C1430  H1435   1.083   .     S
H1431  C1542   1.082   1_455 S
H1432  C383    1.082   1_556 S
C1436  C1441   1.406   .     A
C1436  C1437   1.408   .     A
C1436  C1514   1.495   1_455 S
C1437  C1438   1.399   .     A
C1437  H1442   1.084   .     S
C1438  C1439   1.398   .     A
C1438  H1443   1.083   .     S
C1439  H1444   1.083   .     S
C1439  C1440   1.398   .     A
C1440  C1441   1.399   .     A
C1440  H401    1.082   1_556 S
C1441  H1562   1.082   1_455 S
H1446  C1499   1.082   .     S
C1451  O1475   1.295   .     A
C1451  C1462   1.445   .     S
C1451  O1477   1.292   .     A
C1452  O1478   1.292   .     A
C1452  C1461   1.445   .     S
C1452  O1476   1.295   .     A
C1453  O1481   1.292   .     A
C1453  O1479   1.287   .     A
C1453  C1455   1.437   .     S
C1454  O1482   1.292   .     A
C1454  C1456   1.437   .     S
C1454  O1480   1.287   .     A
C1456  C1513   1.361   .     S
C1456  C1552   1.495   .     S
C1457  I1505   2.115   .     S
C1457  C1462   1.407   .     A
C1458  I1506   2.115   .     S
C1458  C1461   1.407   .     A
C1458  C1112   1.385   1_565 S
C1459  C1461   1.397   .     A
C1459  H1469   1.084   .     S
C1459  C1109   1.384   1_565 S
C1460  C1462   1.397   .     A
C1460  H1470   1.084   .     S
C1463  H1471   1.077   .     S
C1463  N1474   1.356   .     A
C1464  N1473   1.356   .     A
C1464  H1472   1.077   .     S
C1464  C422    1.413   1_556 S
C1465  N1473   1.384   .     A
C1465  I1507   2.123   .     S
C1465  C419    1.413   1_556 S
C1466  N1474   1.384   .     A
C1466  I1508   2.123   .     S
Cu1467 O1479   1.966   .     S
Cu1467 O1475   1.957   .     S
Cu1467 N1473   2.021   .     S
Cu1467 Cu1468  2.690   .     S
Cu1467 O1482   1.963   .     S
Cu1467 O1478   1.960   .     S
Cu1468 O1480   1.966   .     S
Cu1468 O1476   1.957   .     S
Cu1468 N1474   2.021   .     S
Cu1468 O1481   1.963   .     S
Cu1468 O1477   1.960   .     S
C1483  C1484   1.405   .     A
C1483  C1488   1.408   .     A
C1483  C1513   1.495   .     S
C1484  C1485   1.399   .     A
C1484  H1547   1.082   .     S
C1485  C1486   1.398   .     A
C1486  H1491   1.083   .     S
C1486  C1487   1.397   .     A
C1487  C1488   1.399   .     A
C1487  H1492   1.083   .     S
C1488  H1493   1.083   .     S
H1490  C441    1.082   1_556 S
C1494  C1499   1.406   .     A
C1494  C1495   1.408   .     A
C1495  C1496   1.399   .     A
C1495  H1500   1.084   .     S
C1496  C1497   1.398   .     A
C1496  H1501   1.083   .     S
C1497  H1502   1.083   .     S
C1497  C1498   1.398   .     A
C1498  C1499   1.399   .     A
C1498  H459    1.082   1_556 S
H1504  C1557   1.082   .     S
C1509  O1533   1.295   .     A
C1509  C1520   1.445   .     S
C1509  O1535   1.292   .     A
C1510  O1536   1.292   .     A
C1510  C1519   1.445   .     S
C1510  O1534   1.295   .     A
C1511  O1539   1.292   .     A
C1511  O1537   1.287   .     A
C1511  C1513   1.437   .     S
C1512  O1540   1.292   .     A
C1512  C1514   1.437   .     S
C1512  O1538   1.287   .     A
C1514  C1397   1.361   1_655 S
C1514  C1436   1.495   1_655 S
C1515  I1563   2.115   .     S
C1515  C1520   1.407   .     A
C1516  I1564   2.115   .     S
C1516  C1519   1.407   .     A
C1516  C1170   1.385   1_565 S
C1517  C1519   1.397   .     A
C1517  H1527   1.084   .     S
C1517  C1167   1.384   1_565 S
C1518  C1520   1.397   .     A
C1518  H1528   1.084   .     S
C1521  H1529   1.077   .     S
C1521  N1532   1.356   .     A
C1522  N1531   1.356   .     A
C1522  H1530   1.077   .     S
C1522  C480    1.413   1_556 S
C1523  N1531   1.384   .     A
C1523  I1565   2.123   .     S
C1523  C477    1.413   1_556 S
C1524  N1532   1.384   .     A
C1524  I1566   2.123   .     S
Cu1525 O1537   1.966   .     S
Cu1525 O1533   1.957   .     S
Cu1525 N1531   2.021   .     S
Cu1525 Cu1526  2.690   .     S
Cu1525 O1540   1.963   .     S
Cu1525 O1536   1.960   .     S
Cu1526 O1538   1.966   .     S
Cu1526 O1534   1.957   .     S
Cu1526 N1532   2.021   .     S
Cu1526 O1539   1.963   .     S
Cu1526 O1535   1.960   .     S
C1541  C1542   1.405   .     A
C1541  C1546   1.408   .     A
C1541  C1397   1.495   1_655 S
C1542  C1543   1.399   .     A
C1542  H1431   1.082   1_655 S
C1543  C1544   1.398   .     A
C1544  H1549   1.083   .     S
C1544  C1545   1.397   .     A
C1545  C1546   1.399   .     A
C1545  H1550   1.083   .     S
C1546  H1551   1.083   .     S
H1548  C499    1.082   1_556 S
C1552  C1557   1.406   .     A
C1552  C1553   1.408   .     A
C1553  C1554   1.399   .     A
C1553  H1558   1.084   .     S
C1554  C1555   1.398   .     A
C1554  H1559   1.083   .     S
C1555  H1560   1.083   .     S
C1555  C1556   1.398   .     A
C1556  C1557   1.399   .     A
C1556  H517    1.082   1_556 S
H1562  C1441   1.082   1_655 S
