data_str_m2_o1_o17_pcu_sym.67
_audit_creation_date              2020-01-03
_audit_creation_method            'Materials Studio'
_symmetry_space_group_name_H-M    'P1'
_symmetry_Int_Tables_number       1
_symmetry_cell_setting            triclinic
loop_
_symmetry_equiv_pos_as_xyz
  x,y,z
_cell_length_a                    32.4651
_cell_length_b                    28.5714
_cell_length_c                    30.0307
_cell_angle_alpha                 90.1574
_cell_angle_beta                  90.1166
_cell_angle_gamma                 90.0755
loop_
_atom_site_label
_atom_site_type_symbol
_atom_site_fract_x
_atom_site_fract_y
_atom_site_fract_z
_atom_site_U_iso_or_equiv
_atom_site_adp_type
_atom_site_occupancy
Br1    Br    0.07805   0.16234   0.37121   0.00000  Uiso   1.00
Br2    Br    0.25528   0.17099   0.12879   0.00000  Uiso   1.00
C3     C     0.08736   0.16665   0.24978   0.00000  Uiso   1.00
C4     C     0.04275   0.16665   0.24979   0.00000  Uiso   1.00
C5     C     0.14030   0.02468   0.22318   0.00000  Uiso   1.00
C6     C     0.19303   0.30865   0.27682   0.00000  Uiso   1.00
C7     C     0.19303   0.02491   0.27682   0.00000  Uiso   1.00
C8     C     0.14030   0.30842   0.22318   0.00000  Uiso   1.00
C9     C     0.16704   0.16659   0.16452   0.00000  Uiso   1.00
C10    C     0.16629   0.16674   0.33548   0.00000  Uiso   1.00
C11    C     0.20197   0.16220   0.40625   0.00000  Uiso   1.00
C12    C     0.13137   0.17114   0.09375   0.00000  Uiso   1.00
C13    C     0.16497   0.16709   0.38365   0.00000  Uiso   1.00
C14    C     0.24597   0.16668   0.25022   0.00000  Uiso   1.00
C15    C     0.16836   0.16624   0.11635   0.00000  Uiso   1.00
C16    C     0.12738   0.17131   0.40646   0.00000  Uiso   1.00
C17    C     0.20595   0.16202   0.09354   0.00000  Uiso   1.00
C18    C     0.12759   0.17474   0.45370   0.00000  Uiso   1.00
C19    C     0.20574   0.15859   0.04630   0.00000  Uiso   1.00
C20    C     0.16580   0.16720   0.47651   0.00000  Uiso   1.00
C21    C     0.16754   0.16614   0.02349   0.00000  Uiso   1.00
C22    C     0.20251   0.16070   0.45237   0.00000  Uiso   1.00
C23    C     0.13083   0.17263   0.04763   0.00000  Uiso   1.00
C24    C     0.09198   0.18500   0.47957   0.00000  Uiso   1.00
C25    C     0.09391   0.18206   0.02575   0.00000  Uiso   1.00
C26    C     0.24136   0.14833   0.02043   0.00000  Uiso   1.00
C27    C     0.23942   0.15127   0.47425   0.00000  Uiso   1.00
C28    C     0.02124   0.12412   0.24974   0.00000  Uiso   1.00
C29    C     0.31209   0.20922   0.25026   0.00000  Uiso   1.00
C30    C     0.31199   0.12414   0.24996   0.00000  Uiso   1.00
C31    C     0.02135   0.20920   0.25004   0.00000  Uiso   1.00
C32    C     0.29059   0.16669   0.25021   0.00000  Uiso   1.00
Cu33   Cu    0.16667   0.21355   0.25000   0.00000  Uiso   1.00
Cu34   Cu    0.16667   0.11978   0.25000   0.00000  Uiso   1.00
H35    H     0.23034   0.15803   0.38757   0.00000  Uiso   1.00
H36    H     0.21415   0.29006   0.29832   0.00000  Uiso   1.00
H37    H     0.21416   0.04369   0.29832   0.00000  Uiso   1.00
H38    H     0.11918   0.28965   0.20167   0.00000  Uiso   1.00
H39    H     0.10299   0.17531   0.11243   0.00000  Uiso   1.00
H40    H     0.06643   0.18928   0.04507   0.00000  Uiso   1.00
H41    H     0.26690   0.14406   0.45493   0.00000  Uiso   1.00
H42    H     0.03723   0.09086   0.24956   0.00000  Uiso   1.00
H43    H     0.29611   0.24247   0.25044   0.00000  Uiso   1.00
H44    H     0.29592   0.09088   0.24990   0.00000  Uiso   1.00
H45    H     0.03742   0.24245   0.25010   0.00000  Uiso   1.00
H46    H     0.11918   0.04327   0.20168   0.00000  Uiso   1.00
I47    I     0.03543   0.21527   0.45743   0.00000  Uiso   1.00
I48    I     0.29790   0.11807   0.04257   0.00000  Uiso   1.00
N49    N     0.16667   0.28402   0.25000   0.00000  Uiso   1.00
N50    N     0.16667   0.04931   0.25000   0.00000  Uiso   1.00
O51    O     0.10655   0.20625   0.24999   0.00000  Uiso   1.00
O52    O     0.22679   0.12709   0.25000   0.00000  Uiso   1.00
O53    O     0.22679   0.20625   0.25000   0.00000  Uiso   1.00
O54    O     0.10655   0.12709   0.24999   0.00000  Uiso   1.00
O55    O     0.16666   0.20627   0.18513   0.00000  Uiso   1.00
O56    O     0.16668   0.12707   0.31487   0.00000  Uiso   1.00
O57    O     0.16668   0.20627   0.31487   0.00000  Uiso   1.00
O58    O     0.16666   0.12707   0.18513   0.00000  Uiso   1.00
Br59   Br    0.41138   0.16234   0.37121   0.00000  Uiso   1.00
Br60   Br    0.58862   0.17099   0.12879   0.00000  Uiso   1.00
C61    C     0.42070   0.16665   0.24978   0.00000  Uiso   1.00
C62    C     0.37608   0.16665   0.24979   0.00000  Uiso   1.00
C63    C     0.47363   0.02468   0.22318   0.00000  Uiso   1.00
C64    C     0.52637   0.30865   0.27682   0.00000  Uiso   1.00
C65    C     0.52637   0.02491   0.27682   0.00000  Uiso   1.00
C66    C     0.47363   0.30842   0.22318   0.00000  Uiso   1.00
C67    C     0.50037   0.16659   0.16452   0.00000  Uiso   1.00
C68    C     0.49963   0.16674   0.33548   0.00000  Uiso   1.00
C69    C     0.53530   0.16220   0.40625   0.00000  Uiso   1.00
C70    C     0.46470   0.17114   0.09375   0.00000  Uiso   1.00
C71    C     0.49831   0.16709   0.38365   0.00000  Uiso   1.00
C72    C     0.57930   0.16668   0.25022   0.00000  Uiso   1.00
C73    C     0.50169   0.16624   0.11635   0.00000  Uiso   1.00
C74    C     0.46071   0.17131   0.40646   0.00000  Uiso   1.00
C75    C     0.53929   0.16202   0.09354   0.00000  Uiso   1.00
C76    C     0.46093   0.17474   0.45370   0.00000  Uiso   1.00
C77    C     0.53907   0.15859   0.04630   0.00000  Uiso   1.00
C78    C     0.49913   0.16720   0.47651   0.00000  Uiso   1.00
C79    C     0.50087   0.16614   0.02349   0.00000  Uiso   1.00
C80    C     0.53584   0.16070   0.45237   0.00000  Uiso   1.00
C81    C     0.46416   0.17263   0.04763   0.00000  Uiso   1.00
C82    C     0.42531   0.18500   0.47957   0.00000  Uiso   1.00
C83    C     0.42724   0.18206   0.02575   0.00000  Uiso   1.00
C84    C     0.57469   0.14833   0.02043   0.00000  Uiso   1.00
C85    C     0.57276   0.15127   0.47425   0.00000  Uiso   1.00
C86    C     0.35457   0.12412   0.24974   0.00000  Uiso   1.00
C87    C     0.64543   0.20922   0.25026   0.00000  Uiso   1.00
C88    C     0.64532   0.12414   0.24996   0.00000  Uiso   1.00
C89    C     0.35468   0.20920   0.25004   0.00000  Uiso   1.00
C90    C     0.62392   0.16669   0.25021   0.00000  Uiso   1.00
Cu91   Cu    0.50000   0.21355   0.25000   0.00000  Uiso   1.00
Cu92   Cu    0.50000   0.11978   0.25000   0.00000  Uiso   1.00
H93    H     0.56367   0.15803   0.38757   0.00000  Uiso   1.00
H94    H     0.54749   0.29006   0.29832   0.00000  Uiso   1.00
H95    H     0.54749   0.04369   0.29832   0.00000  Uiso   1.00
H96    H     0.45251   0.28965   0.20167   0.00000  Uiso   1.00
H97    H     0.43633   0.17531   0.11243   0.00000  Uiso   1.00
H98    H     0.39977   0.18928   0.04507   0.00000  Uiso   1.00
H99    H     0.60023   0.14406   0.45493   0.00000  Uiso   1.00
H100   H     0.37056   0.09086   0.24956   0.00000  Uiso   1.00
H101   H     0.62944   0.24247   0.25044   0.00000  Uiso   1.00
H102   H     0.62925   0.09088   0.24990   0.00000  Uiso   1.00
H103   H     0.37075   0.24245   0.25010   0.00000  Uiso   1.00
H104   H     0.45251   0.04327   0.20168   0.00000  Uiso   1.00
I105   I     0.36877   0.21527   0.45743   0.00000  Uiso   1.00
I106   I     0.63123   0.11807   0.04257   0.00000  Uiso   1.00
N107   N     0.50000   0.28402   0.25000   0.00000  Uiso   1.00
N108   N     0.50000   0.04931   0.25000   0.00000  Uiso   1.00
O109   O     0.43988   0.20625   0.24999   0.00000  Uiso   1.00
O110   O     0.56012   0.12709   0.25000   0.00000  Uiso   1.00
O111   O     0.56012   0.20625   0.25000   0.00000  Uiso   1.00
O112   O     0.43988   0.12709   0.24999   0.00000  Uiso   1.00
O113   O     0.49999   0.20627   0.18513   0.00000  Uiso   1.00
O114   O     0.50001   0.12707   0.31487   0.00000  Uiso   1.00
O115   O     0.50001   0.20627   0.31487   0.00000  Uiso   1.00
O116   O     0.49999   0.12707   0.18513   0.00000  Uiso   1.00
Br117  Br    0.74472   0.16234   0.37121   0.00000  Uiso   1.00
Br118  Br    0.92195   0.17099   0.12879   0.00000  Uiso   1.00
C119   C     0.75403   0.16665   0.24978   0.00000  Uiso   1.00
C120   C     0.70941   0.16665   0.24979   0.00000  Uiso   1.00
C121   C     0.80697   0.02468   0.22318   0.00000  Uiso   1.00
C122   C     0.85970   0.30865   0.27682   0.00000  Uiso   1.00
C123   C     0.85970   0.02491   0.27682   0.00000  Uiso   1.00
C124   C     0.80697   0.30842   0.22318   0.00000  Uiso   1.00
C125   C     0.83371   0.16659   0.16452   0.00000  Uiso   1.00
C126   C     0.83296   0.16674   0.33548   0.00000  Uiso   1.00
C127   C     0.86863   0.16220   0.40625   0.00000  Uiso   1.00
C128   C     0.79803   0.17114   0.09375   0.00000  Uiso   1.00
C129   C     0.83164   0.16709   0.38365   0.00000  Uiso   1.00
C130   C     0.91264   0.16668   0.25022   0.00000  Uiso   1.00
C131   C     0.83503   0.16624   0.11635   0.00000  Uiso   1.00
C132   C     0.79405   0.17131   0.40646   0.00000  Uiso   1.00
C133   C     0.87262   0.16202   0.09354   0.00000  Uiso   1.00
C134   C     0.79426   0.17474   0.45370   0.00000  Uiso   1.00
C135   C     0.87241   0.15859   0.04630   0.00000  Uiso   1.00
C136   C     0.83246   0.16720   0.47651   0.00000  Uiso   1.00
C137   C     0.83420   0.16614   0.02349   0.00000  Uiso   1.00
C138   C     0.86917   0.16070   0.45237   0.00000  Uiso   1.00
C139   C     0.79749   0.17263   0.04763   0.00000  Uiso   1.00
C140   C     0.75864   0.18500   0.47957   0.00000  Uiso   1.00
C141   C     0.76058   0.18206   0.02575   0.00000  Uiso   1.00
C142   C     0.90802   0.14833   0.02043   0.00000  Uiso   1.00
C143   C     0.90609   0.15127   0.47425   0.00000  Uiso   1.00
C144   C     0.68791   0.12412   0.24974   0.00000  Uiso   1.00
C145   C     0.97876   0.20922   0.25026   0.00000  Uiso   1.00
C146   C     0.97865   0.12414   0.24996   0.00000  Uiso   1.00
C147   C     0.68802   0.20920   0.25004   0.00000  Uiso   1.00
C148   C     0.95725   0.16669   0.25021   0.00000  Uiso   1.00
Cu149  Cu    0.83333   0.21355   0.25000   0.00000  Uiso   1.00
Cu150  Cu    0.83333   0.11978   0.25000   0.00000  Uiso   1.00
H151   H     0.89701   0.15803   0.38757   0.00000  Uiso   1.00
H152   H     0.88082   0.29006   0.29832   0.00000  Uiso   1.00
H153   H     0.88082   0.04369   0.29832   0.00000  Uiso   1.00
H154   H     0.78584   0.28965   0.20167   0.00000  Uiso   1.00
H155   H     0.76966   0.17531   0.11243   0.00000  Uiso   1.00
H156   H     0.73310   0.18928   0.04507   0.00000  Uiso   1.00
H157   H     0.93357   0.14406   0.45493   0.00000  Uiso   1.00
H158   H     0.70389   0.09086   0.24956   0.00000  Uiso   1.00
H159   H     0.96278   0.24247   0.25044   0.00000  Uiso   1.00
H160   H     0.96258   0.09088   0.24990   0.00000  Uiso   1.00
H161   H     0.70408   0.24245   0.25010   0.00000  Uiso   1.00
H162   H     0.78585   0.04327   0.20168   0.00000  Uiso   1.00
I163   I     0.70210   0.21527   0.45743   0.00000  Uiso   1.00
I164   I     0.96457   0.11807   0.04257   0.00000  Uiso   1.00
N165   N     0.83333   0.28402   0.25000   0.00000  Uiso   1.00
N166   N     0.83333   0.04931   0.25000   0.00000  Uiso   1.00
O167   O     0.77321   0.20625   0.24999   0.00000  Uiso   1.00
O168   O     0.89345   0.12709   0.25000   0.00000  Uiso   1.00
O169   O     0.89345   0.20625   0.25000   0.00000  Uiso   1.00
O170   O     0.77321   0.12709   0.24999   0.00000  Uiso   1.00
O171   O     0.83332   0.20627   0.18513   0.00000  Uiso   1.00
O172   O     0.83334   0.12707   0.31487   0.00000  Uiso   1.00
O173   O     0.83334   0.20627   0.31487   0.00000  Uiso   1.00
O174   O     0.83332   0.12707   0.18513   0.00000  Uiso   1.00
Br175  Br    0.07805   0.49567   0.37121   0.00000  Uiso   1.00
Br176  Br    0.25528   0.50432   0.12879   0.00000  Uiso   1.00
C177   C     0.08736   0.49998   0.24978   0.00000  Uiso   1.00
C178   C     0.04275   0.49998   0.24979   0.00000  Uiso   1.00
C179   C     0.14030   0.35802   0.22318   0.00000  Uiso   1.00
C180   C     0.19303   0.64198   0.27682   0.00000  Uiso   1.00
C181   C     0.19303   0.35825   0.27682   0.00000  Uiso   1.00
C182   C     0.14030   0.64175   0.22318   0.00000  Uiso   1.00
C183   C     0.16704   0.49992   0.16452   0.00000  Uiso   1.00
C184   C     0.16629   0.50008   0.33548   0.00000  Uiso   1.00
C185   C     0.20197   0.49553   0.40625   0.00000  Uiso   1.00
C186   C     0.13137   0.50447   0.09375   0.00000  Uiso   1.00
C187   C     0.16497   0.50042   0.38365   0.00000  Uiso   1.00
C188   C     0.24597   0.50002   0.25022   0.00000  Uiso   1.00
C189   C     0.16836   0.49957   0.11635   0.00000  Uiso   1.00
C190   C     0.12738   0.50465   0.40646   0.00000  Uiso   1.00
C191   C     0.20595   0.49535   0.09354   0.00000  Uiso   1.00
C192   C     0.12759   0.50807   0.45370   0.00000  Uiso   1.00
C193   C     0.20574   0.49193   0.04630   0.00000  Uiso   1.00
C194   C     0.16580   0.50053   0.47651   0.00000  Uiso   1.00
C195   C     0.16754   0.49947   0.02349   0.00000  Uiso   1.00
C196   C     0.20251   0.49404   0.45237   0.00000  Uiso   1.00
C197   C     0.13083   0.50596   0.04763   0.00000  Uiso   1.00
C198   C     0.09198   0.51833   0.47957   0.00000  Uiso   1.00
C199   C     0.09391   0.51539   0.02575   0.00000  Uiso   1.00
C200   C     0.24136   0.48167   0.02043   0.00000  Uiso   1.00
C201   C     0.23942   0.48461   0.47425   0.00000  Uiso   1.00
C202   C     0.02124   0.45745   0.24974   0.00000  Uiso   1.00
C203   C     0.31209   0.54255   0.25026   0.00000  Uiso   1.00
C204   C     0.31199   0.45747   0.24996   0.00000  Uiso   1.00
C205   C     0.02135   0.54253   0.25004   0.00000  Uiso   1.00
C206   C     0.29059   0.50002   0.25021   0.00000  Uiso   1.00
Cu207  Cu    0.16667   0.54689   0.25000   0.00000  Uiso   1.00
Cu208  Cu    0.16667   0.45311   0.25000   0.00000  Uiso   1.00
H209   H     0.23034   0.49136   0.38757   0.00000  Uiso   1.00
H210   H     0.21415   0.62339   0.29832   0.00000  Uiso   1.00
H211   H     0.21416   0.37702   0.29832   0.00000  Uiso   1.00
H212   H     0.11918   0.62298   0.20167   0.00000  Uiso   1.00
H213   H     0.10299   0.50864   0.11243   0.00000  Uiso   1.00
H214   H     0.06643   0.52261   0.04507   0.00000  Uiso   1.00
H215   H     0.26690   0.47739   0.45493   0.00000  Uiso   1.00
H216   H     0.03723   0.42419   0.24956   0.00000  Uiso   1.00
H217   H     0.29611   0.57581   0.25044   0.00000  Uiso   1.00
H218   H     0.29592   0.42422   0.24990   0.00000  Uiso   1.00
H219   H     0.03742   0.57578   0.25010   0.00000  Uiso   1.00
H220   H     0.11918   0.37661   0.20168   0.00000  Uiso   1.00
I221   I     0.03543   0.54860   0.45743   0.00000  Uiso   1.00
I222   I     0.29790   0.45140   0.04257   0.00000  Uiso   1.00
N223   N     0.16667   0.61736   0.25000   0.00000  Uiso   1.00
N224   N     0.16667   0.38264   0.25000   0.00000  Uiso   1.00
O225   O     0.10655   0.53958   0.24999   0.00000  Uiso   1.00
O226   O     0.22679   0.46042   0.25000   0.00000  Uiso   1.00
O227   O     0.22679   0.53958   0.25000   0.00000  Uiso   1.00
O228   O     0.10655   0.46042   0.24999   0.00000  Uiso   1.00
O229   O     0.16666   0.53960   0.18513   0.00000  Uiso   1.00
O230   O     0.16668   0.46040   0.31487   0.00000  Uiso   1.00
O231   O     0.16668   0.53960   0.31487   0.00000  Uiso   1.00
O232   O     0.16666   0.46040   0.18513   0.00000  Uiso   1.00
Br233  Br    0.41138   0.49567   0.37121   0.00000  Uiso   1.00
Br234  Br    0.58862   0.50432   0.12879   0.00000  Uiso   1.00
C235   C     0.42070   0.49998   0.24978   0.00000  Uiso   1.00
C236   C     0.37608   0.49998   0.24979   0.00000  Uiso   1.00
C237   C     0.47363   0.35802   0.22318   0.00000  Uiso   1.00
C238   C     0.52637   0.64198   0.27682   0.00000  Uiso   1.00
C239   C     0.52637   0.35825   0.27682   0.00000  Uiso   1.00
C240   C     0.47363   0.64175   0.22318   0.00000  Uiso   1.00
C241   C     0.50037   0.49992   0.16452   0.00000  Uiso   1.00
C242   C     0.49963   0.50008   0.33548   0.00000  Uiso   1.00
C243   C     0.53530   0.49553   0.40625   0.00000  Uiso   1.00
C244   C     0.46470   0.50447   0.09375   0.00000  Uiso   1.00
C245   C     0.49831   0.50042   0.38365   0.00000  Uiso   1.00
C246   C     0.57930   0.50002   0.25022   0.00000  Uiso   1.00
C247   C     0.50169   0.49957   0.11635   0.00000  Uiso   1.00
C248   C     0.46071   0.50465   0.40646   0.00000  Uiso   1.00
C249   C     0.53929   0.49535   0.09354   0.00000  Uiso   1.00
C250   C     0.46093   0.50807   0.45370   0.00000  Uiso   1.00
C251   C     0.53907   0.49193   0.04630   0.00000  Uiso   1.00
C252   C     0.49913   0.50053   0.47651   0.00000  Uiso   1.00
C253   C     0.50087   0.49947   0.02349   0.00000  Uiso   1.00
C254   C     0.53584   0.49404   0.45237   0.00000  Uiso   1.00
C255   C     0.46416   0.50596   0.04763   0.00000  Uiso   1.00
C256   C     0.42531   0.51833   0.47957   0.00000  Uiso   1.00
C257   C     0.42724   0.51539   0.02575   0.00000  Uiso   1.00
C258   C     0.57469   0.48167   0.02043   0.00000  Uiso   1.00
C259   C     0.57276   0.48461   0.47425   0.00000  Uiso   1.00
C260   C     0.35457   0.45745   0.24974   0.00000  Uiso   1.00
C261   C     0.64543   0.54255   0.25026   0.00000  Uiso   1.00
C262   C     0.64532   0.45747   0.24996   0.00000  Uiso   1.00
C263   C     0.35468   0.54253   0.25004   0.00000  Uiso   1.00
C264   C     0.62392   0.50002   0.25021   0.00000  Uiso   1.00
Cu265  Cu    0.50000   0.54689   0.25000   0.00000  Uiso   1.00
Cu266  Cu    0.50000   0.45311   0.25000   0.00000  Uiso   1.00
H267   H     0.56367   0.49136   0.38757   0.00000  Uiso   1.00
H268   H     0.54749   0.62339   0.29832   0.00000  Uiso   1.00
H269   H     0.54749   0.37702   0.29832   0.00000  Uiso   1.00
H270   H     0.45251   0.62298   0.20167   0.00000  Uiso   1.00
H271   H     0.43633   0.50864   0.11243   0.00000  Uiso   1.00
H272   H     0.39977   0.52261   0.04507   0.00000  Uiso   1.00
H273   H     0.60023   0.47739   0.45493   0.00000  Uiso   1.00
H274   H     0.37056   0.42419   0.24956   0.00000  Uiso   1.00
H275   H     0.62944   0.57581   0.25044   0.00000  Uiso   1.00
H276   H     0.62925   0.42422   0.24990   0.00000  Uiso   1.00
H277   H     0.37075   0.57578   0.25010   0.00000  Uiso   1.00
H278   H     0.45251   0.37661   0.20168   0.00000  Uiso   1.00
I279   I     0.36877   0.54860   0.45743   0.00000  Uiso   1.00
I280   I     0.63123   0.45140   0.04257   0.00000  Uiso   1.00
N281   N     0.50000   0.61736   0.25000   0.00000  Uiso   1.00
N282   N     0.50000   0.38264   0.25000   0.00000  Uiso   1.00
O283   O     0.43988   0.53958   0.24999   0.00000  Uiso   1.00
O284   O     0.56012   0.46042   0.25000   0.00000  Uiso   1.00
O285   O     0.56012   0.53958   0.25000   0.00000  Uiso   1.00
O286   O     0.43988   0.46042   0.24999   0.00000  Uiso   1.00
O287   O     0.49999   0.53960   0.18513   0.00000  Uiso   1.00
O288   O     0.50001   0.46040   0.31487   0.00000  Uiso   1.00
O289   O     0.50001   0.53960   0.31487   0.00000  Uiso   1.00
O290   O     0.49999   0.46040   0.18513   0.00000  Uiso   1.00
Br291  Br    0.74472   0.49567   0.37121   0.00000  Uiso   1.00
Br292  Br    0.92195   0.50432   0.12879   0.00000  Uiso   1.00
C293   C     0.75403   0.49998   0.24978   0.00000  Uiso   1.00
C294   C     0.70941   0.49998   0.24979   0.00000  Uiso   1.00
C295   C     0.80697   0.35802   0.22318   0.00000  Uiso   1.00
C296   C     0.85970   0.64198   0.27682   0.00000  Uiso   1.00
C297   C     0.85970   0.35825   0.27682   0.00000  Uiso   1.00
C298   C     0.80697   0.64175   0.22318   0.00000  Uiso   1.00
C299   C     0.83371   0.49992   0.16452   0.00000  Uiso   1.00
C300   C     0.83296   0.50008   0.33548   0.00000  Uiso   1.00
C301   C     0.86863   0.49553   0.40625   0.00000  Uiso   1.00
C302   C     0.79803   0.50447   0.09375   0.00000  Uiso   1.00
C303   C     0.83164   0.50042   0.38365   0.00000  Uiso   1.00
C304   C     0.91264   0.50002   0.25022   0.00000  Uiso   1.00
C305   C     0.83503   0.49957   0.11635   0.00000  Uiso   1.00
C306   C     0.79405   0.50465   0.40646   0.00000  Uiso   1.00
C307   C     0.87262   0.49535   0.09354   0.00000  Uiso   1.00
C308   C     0.79426   0.50807   0.45370   0.00000  Uiso   1.00
C309   C     0.87241   0.49193   0.04630   0.00000  Uiso   1.00
C310   C     0.83246   0.50053   0.47651   0.00000  Uiso   1.00
C311   C     0.83420   0.49947   0.02349   0.00000  Uiso   1.00
C312   C     0.86917   0.49404   0.45237   0.00000  Uiso   1.00
C313   C     0.79749   0.50596   0.04763   0.00000  Uiso   1.00
C314   C     0.75864   0.51833   0.47957   0.00000  Uiso   1.00
C315   C     0.76058   0.51539   0.02575   0.00000  Uiso   1.00
C316   C     0.90802   0.48167   0.02043   0.00000  Uiso   1.00
C317   C     0.90609   0.48461   0.47425   0.00000  Uiso   1.00
C318   C     0.68791   0.45745   0.24974   0.00000  Uiso   1.00
C319   C     0.97876   0.54255   0.25026   0.00000  Uiso   1.00
C320   C     0.97865   0.45747   0.24996   0.00000  Uiso   1.00
C321   C     0.68802   0.54253   0.25004   0.00000  Uiso   1.00
C322   C     0.95725   0.50002   0.25021   0.00000  Uiso   1.00
Cu323  Cu    0.83333   0.54689   0.25000   0.00000  Uiso   1.00
Cu324  Cu    0.83333   0.45311   0.25000   0.00000  Uiso   1.00
H325   H     0.89701   0.49136   0.38757   0.00000  Uiso   1.00
H326   H     0.88082   0.62339   0.29832   0.00000  Uiso   1.00
H327   H     0.88082   0.37702   0.29832   0.00000  Uiso   1.00
H328   H     0.78584   0.62298   0.20167   0.00000  Uiso   1.00
H329   H     0.76966   0.50864   0.11243   0.00000  Uiso   1.00
H330   H     0.73310   0.52261   0.04507   0.00000  Uiso   1.00
H331   H     0.93357   0.47739   0.45493   0.00000  Uiso   1.00
H332   H     0.70389   0.42419   0.24956   0.00000  Uiso   1.00
H333   H     0.96278   0.57581   0.25044   0.00000  Uiso   1.00
H334   H     0.96258   0.42422   0.24990   0.00000  Uiso   1.00
H335   H     0.70408   0.57578   0.25010   0.00000  Uiso   1.00
H336   H     0.78585   0.37661   0.20168   0.00000  Uiso   1.00
I337   I     0.70210   0.54860   0.45743   0.00000  Uiso   1.00
I338   I     0.96457   0.45140   0.04257   0.00000  Uiso   1.00
N339   N     0.83333   0.61736   0.25000   0.00000  Uiso   1.00
N340   N     0.83333   0.38264   0.25000   0.00000  Uiso   1.00
O341   O     0.77321   0.53958   0.24999   0.00000  Uiso   1.00
O342   O     0.89345   0.46042   0.25000   0.00000  Uiso   1.00
O343   O     0.89345   0.53958   0.25000   0.00000  Uiso   1.00
O344   O     0.77321   0.46042   0.24999   0.00000  Uiso   1.00
O345   O     0.83332   0.53960   0.18513   0.00000  Uiso   1.00
O346   O     0.83334   0.46040   0.31487   0.00000  Uiso   1.00
O347   O     0.83334   0.53960   0.31487   0.00000  Uiso   1.00
O348   O     0.83332   0.46040   0.18513   0.00000  Uiso   1.00
Br349  Br    0.07805   0.82901   0.37121   0.00000  Uiso   1.00
Br350  Br    0.25528   0.83766   0.12879   0.00000  Uiso   1.00
C351   C     0.08736   0.83332   0.24978   0.00000  Uiso   1.00
C352   C     0.04275   0.83331   0.24979   0.00000  Uiso   1.00
C353   C     0.14030   0.69135   0.22318   0.00000  Uiso   1.00
C354   C     0.19303   0.97532   0.27682   0.00000  Uiso   1.00
C355   C     0.19303   0.69158   0.27682   0.00000  Uiso   1.00
C356   C     0.14030   0.97509   0.22318   0.00000  Uiso   1.00
C357   C     0.16704   0.83326   0.16452   0.00000  Uiso   1.00
C358   C     0.16629   0.83341   0.33548   0.00000  Uiso   1.00
C359   C     0.20197   0.82886   0.40625   0.00000  Uiso   1.00
C360   C     0.13137   0.83780   0.09375   0.00000  Uiso   1.00
C361   C     0.16497   0.83376   0.38365   0.00000  Uiso   1.00
C362   C     0.24597   0.83335   0.25022   0.00000  Uiso   1.00
C363   C     0.16836   0.83291   0.11635   0.00000  Uiso   1.00
C364   C     0.12738   0.83798   0.40646   0.00000  Uiso   1.00
C365   C     0.20595   0.82868   0.09354   0.00000  Uiso   1.00
C366   C     0.12759   0.84141   0.45370   0.00000  Uiso   1.00
C367   C     0.20574   0.82526   0.04630   0.00000  Uiso   1.00
C368   C     0.16580   0.83386   0.47651   0.00000  Uiso   1.00
C369   C     0.16754   0.83280   0.02349   0.00000  Uiso   1.00
C370   C     0.20251   0.82737   0.45237   0.00000  Uiso   1.00
C371   C     0.13083   0.83930   0.04763   0.00000  Uiso   1.00
C372   C     0.09198   0.85167   0.47957   0.00000  Uiso   1.00
C373   C     0.09391   0.84873   0.02575   0.00000  Uiso   1.00
C374   C     0.24136   0.81500   0.02043   0.00000  Uiso   1.00
C375   C     0.23942   0.81794   0.47425   0.00000  Uiso   1.00
C376   C     0.02124   0.79078   0.24974   0.00000  Uiso   1.00
C377   C     0.31209   0.87588   0.25026   0.00000  Uiso   1.00
C378   C     0.31199   0.79080   0.24996   0.00000  Uiso   1.00
C379   C     0.02135   0.87586   0.25004   0.00000  Uiso   1.00
C380   C     0.29059   0.83335   0.25021   0.00000  Uiso   1.00
Cu381  Cu    0.16667   0.88022   0.25000   0.00000  Uiso   1.00
Cu382  Cu    0.16667   0.78645   0.25000   0.00000  Uiso   1.00
H383   H     0.23034   0.82469   0.38757   0.00000  Uiso   1.00
H384   H     0.21415   0.95672   0.29832   0.00000  Uiso   1.00
H385   H     0.21416   0.71035   0.29832   0.00000  Uiso   1.00
H386   H     0.11918   0.95631   0.20167   0.00000  Uiso   1.00
H387   H     0.10299   0.84197   0.11243   0.00000  Uiso   1.00
H388   H     0.06643   0.85594   0.04507   0.00000  Uiso   1.00
H389   H     0.26690   0.81072   0.45493   0.00000  Uiso   1.00
H390   H     0.03723   0.75753   0.24956   0.00000  Uiso   1.00
H391   H     0.29611   0.90914   0.25044   0.00000  Uiso   1.00
H392   H     0.29592   0.75755   0.24990   0.00000  Uiso   1.00
H393   H     0.03742   0.90912   0.25010   0.00000  Uiso   1.00
H394   H     0.11918   0.70994   0.20168   0.00000  Uiso   1.00
I395   I     0.03543   0.88193   0.45743   0.00000  Uiso   1.00
I396   I     0.29790   0.78473   0.04257   0.00000  Uiso   1.00
N397   N     0.16667   0.95069   0.25000   0.00000  Uiso   1.00
N398   N     0.16667   0.71598   0.25000   0.00000  Uiso   1.00
O399   O     0.10655   0.87291   0.24999   0.00000  Uiso   1.00
O400   O     0.22679   0.79375   0.25000   0.00000  Uiso   1.00
O401   O     0.22679   0.87291   0.25000   0.00000  Uiso   1.00
O402   O     0.10655   0.79375   0.24999   0.00000  Uiso   1.00
O403   O     0.16666   0.87293   0.18513   0.00000  Uiso   1.00
O404   O     0.16668   0.79373   0.31487   0.00000  Uiso   1.00
O405   O     0.16668   0.87293   0.31487   0.00000  Uiso   1.00
O406   O     0.16666   0.79373   0.18513   0.00000  Uiso   1.00
Br407  Br    0.41138   0.82901   0.37121   0.00000  Uiso   1.00
Br408  Br    0.58862   0.83766   0.12879   0.00000  Uiso   1.00
C409   C     0.42070   0.83332   0.24978   0.00000  Uiso   1.00
C410   C     0.37608   0.83331   0.24979   0.00000  Uiso   1.00
C411   C     0.47363   0.69135   0.22318   0.00000  Uiso   1.00
C412   C     0.52637   0.97532   0.27682   0.00000  Uiso   1.00
C413   C     0.52637   0.69158   0.27682   0.00000  Uiso   1.00
C414   C     0.47363   0.97509   0.22318   0.00000  Uiso   1.00
C415   C     0.50037   0.83326   0.16452   0.00000  Uiso   1.00
C416   C     0.49963   0.83341   0.33548   0.00000  Uiso   1.00
C417   C     0.53530   0.82886   0.40625   0.00000  Uiso   1.00
C418   C     0.46470   0.83780   0.09375   0.00000  Uiso   1.00
C419   C     0.49831   0.83376   0.38365   0.00000  Uiso   1.00
C420   C     0.57930   0.83335   0.25022   0.00000  Uiso   1.00
C421   C     0.50169   0.83291   0.11635   0.00000  Uiso   1.00
C422   C     0.46071   0.83798   0.40646   0.00000  Uiso   1.00
C423   C     0.53929   0.82868   0.09354   0.00000  Uiso   1.00
C424   C     0.46093   0.84141   0.45370   0.00000  Uiso   1.00
C425   C     0.53907   0.82526   0.04630   0.00000  Uiso   1.00
C426   C     0.49913   0.83386   0.47651   0.00000  Uiso   1.00
C427   C     0.50087   0.83280   0.02349   0.00000  Uiso   1.00
C428   C     0.53584   0.82737   0.45237   0.00000  Uiso   1.00
C429   C     0.46416   0.83930   0.04763   0.00000  Uiso   1.00
C430   C     0.42531   0.85167   0.47957   0.00000  Uiso   1.00
C431   C     0.42724   0.84873   0.02575   0.00000  Uiso   1.00
C432   C     0.57469   0.81500   0.02043   0.00000  Uiso   1.00
C433   C     0.57276   0.81794   0.47425   0.00000  Uiso   1.00
C434   C     0.35457   0.79078   0.24974   0.00000  Uiso   1.00
C435   C     0.64543   0.87588   0.25026   0.00000  Uiso   1.00
C436   C     0.64532   0.79080   0.24996   0.00000  Uiso   1.00
C437   C     0.35468   0.87586   0.25004   0.00000  Uiso   1.00
C438   C     0.62392   0.83335   0.25021   0.00000  Uiso   1.00
Cu439  Cu    0.50000   0.88022   0.25000   0.00000  Uiso   1.00
Cu440  Cu    0.50000   0.78645   0.25000   0.00000  Uiso   1.00
H441   H     0.56367   0.82469   0.38757   0.00000  Uiso   1.00
H442   H     0.54749   0.95672   0.29832   0.00000  Uiso   1.00
H443   H     0.54749   0.71035   0.29832   0.00000  Uiso   1.00
H444   H     0.45251   0.95631   0.20167   0.00000  Uiso   1.00
H445   H     0.43633   0.84197   0.11243   0.00000  Uiso   1.00
H446   H     0.39977   0.85594   0.04507   0.00000  Uiso   1.00
H447   H     0.60023   0.81072   0.45493   0.00000  Uiso   1.00
H448   H     0.37056   0.75753   0.24956   0.00000  Uiso   1.00
H449   H     0.62944   0.90914   0.25044   0.00000  Uiso   1.00
H450   H     0.62925   0.75755   0.24990   0.00000  Uiso   1.00
H451   H     0.37075   0.90912   0.25010   0.00000  Uiso   1.00
H452   H     0.45251   0.70994   0.20168   0.00000  Uiso   1.00
I453   I     0.36877   0.88193   0.45743   0.00000  Uiso   1.00
I454   I     0.63123   0.78473   0.04257   0.00000  Uiso   1.00
N455   N     0.50000   0.95069   0.25000   0.00000  Uiso   1.00
N456   N     0.50000   0.71598   0.25000   0.00000  Uiso   1.00
O457   O     0.43988   0.87291   0.24999   0.00000  Uiso   1.00
O458   O     0.56012   0.79375   0.25000   0.00000  Uiso   1.00
O459   O     0.56012   0.87291   0.25000   0.00000  Uiso   1.00
O460   O     0.43988   0.79375   0.24999   0.00000  Uiso   1.00
O461   O     0.49999   0.87293   0.18513   0.00000  Uiso   1.00
O462   O     0.50001   0.79373   0.31487   0.00000  Uiso   1.00
O463   O     0.50001   0.87293   0.31487   0.00000  Uiso   1.00
O464   O     0.49999   0.79373   0.18513   0.00000  Uiso   1.00
Br465  Br    0.74472   0.82901   0.37121   0.00000  Uiso   1.00
Br466  Br    0.92195   0.83766   0.12879   0.00000  Uiso   1.00
C467   C     0.75403   0.83332   0.24978   0.00000  Uiso   1.00
C468   C     0.70941   0.83331   0.24979   0.00000  Uiso   1.00
C469   C     0.80697   0.69135   0.22318   0.00000  Uiso   1.00
C470   C     0.85970   0.97532   0.27682   0.00000  Uiso   1.00
C471   C     0.85970   0.69158   0.27682   0.00000  Uiso   1.00
C472   C     0.80697   0.97509   0.22318   0.00000  Uiso   1.00
C473   C     0.83371   0.83326   0.16452   0.00000  Uiso   1.00
C474   C     0.83296   0.83341   0.33548   0.00000  Uiso   1.00
C475   C     0.86863   0.82886   0.40625   0.00000  Uiso   1.00
C476   C     0.79803   0.83780   0.09375   0.00000  Uiso   1.00
C477   C     0.83164   0.83376   0.38365   0.00000  Uiso   1.00
C478   C     0.91264   0.83335   0.25022   0.00000  Uiso   1.00
C479   C     0.83503   0.83291   0.11635   0.00000  Uiso   1.00
C480   C     0.79405   0.83798   0.40646   0.00000  Uiso   1.00
C481   C     0.87262   0.82868   0.09354   0.00000  Uiso   1.00
C482   C     0.79426   0.84141   0.45370   0.00000  Uiso   1.00
C483   C     0.87241   0.82526   0.04630   0.00000  Uiso   1.00
C484   C     0.83246   0.83386   0.47651   0.00000  Uiso   1.00
C485   C     0.83420   0.83280   0.02349   0.00000  Uiso   1.00
C486   C     0.86917   0.82737   0.45237   0.00000  Uiso   1.00
C487   C     0.79749   0.83930   0.04763   0.00000  Uiso   1.00
C488   C     0.75864   0.85167   0.47957   0.00000  Uiso   1.00
C489   C     0.76058   0.84873   0.02575   0.00000  Uiso   1.00
C490   C     0.90802   0.81500   0.02043   0.00000  Uiso   1.00
C491   C     0.90609   0.81794   0.47425   0.00000  Uiso   1.00
C492   C     0.68791   0.79078   0.24974   0.00000  Uiso   1.00
C493   C     0.97876   0.87588   0.25026   0.00000  Uiso   1.00
C494   C     0.97865   0.79080   0.24996   0.00000  Uiso   1.00
C495   C     0.68802   0.87586   0.25004   0.00000  Uiso   1.00
C496   C     0.95725   0.83335   0.25021   0.00000  Uiso   1.00
Cu497  Cu    0.83333   0.88022   0.25000   0.00000  Uiso   1.00
Cu498  Cu    0.83333   0.78645   0.25000   0.00000  Uiso   1.00
H499   H     0.89701   0.82469   0.38757   0.00000  Uiso   1.00
H500   H     0.88082   0.95672   0.29832   0.00000  Uiso   1.00
H501   H     0.88082   0.71035   0.29832   0.00000  Uiso   1.00
H502   H     0.78584   0.95631   0.20167   0.00000  Uiso   1.00
H503   H     0.76966   0.84197   0.11243   0.00000  Uiso   1.00
H504   H     0.73310   0.85594   0.04507   0.00000  Uiso   1.00
H505   H     0.93357   0.81072   0.45493   0.00000  Uiso   1.00
H506   H     0.70389   0.75753   0.24956   0.00000  Uiso   1.00
H507   H     0.96278   0.90914   0.25044   0.00000  Uiso   1.00
H508   H     0.96258   0.75755   0.24990   0.00000  Uiso   1.00
H509   H     0.70408   0.90912   0.25010   0.00000  Uiso   1.00
H510   H     0.78585   0.70994   0.20168   0.00000  Uiso   1.00
I511   I     0.70210   0.88193   0.45743   0.00000  Uiso   1.00
I512   I     0.96457   0.78473   0.04257   0.00000  Uiso   1.00
N513   N     0.83333   0.95069   0.25000   0.00000  Uiso   1.00
N514   N     0.83333   0.71598   0.25000   0.00000  Uiso   1.00
O515   O     0.77321   0.87291   0.24999   0.00000  Uiso   1.00
O516   O     0.89345   0.79375   0.25000   0.00000  Uiso   1.00
O517   O     0.89345   0.87291   0.25000   0.00000  Uiso   1.00
O518   O     0.77321   0.79375   0.24999   0.00000  Uiso   1.00
O519   O     0.83332   0.87293   0.18513   0.00000  Uiso   1.00
O520   O     0.83334   0.79373   0.31487   0.00000  Uiso   1.00
O521   O     0.83334   0.87293   0.31487   0.00000  Uiso   1.00
O522   O     0.83332   0.79373   0.18513   0.00000  Uiso   1.00
Br523  Br    0.07805   0.16234   0.87121   0.00000  Uiso   1.00
Br524  Br    0.25528   0.17099   0.62879   0.00000  Uiso   1.00
C525   C     0.08736   0.16665   0.74978   0.00000  Uiso   1.00
C526   C     0.04275   0.16665   0.74979   0.00000  Uiso   1.00
C527   C     0.14030   0.02468   0.72318   0.00000  Uiso   1.00
C528   C     0.19303   0.30865   0.77682   0.00000  Uiso   1.00
C529   C     0.19303   0.02491   0.77682   0.00000  Uiso   1.00
C530   C     0.14030   0.30842   0.72318   0.00000  Uiso   1.00
C531   C     0.16704   0.16659   0.66452   0.00000  Uiso   1.00
C532   C     0.16629   0.16674   0.83548   0.00000  Uiso   1.00
C533   C     0.20197   0.16220   0.90625   0.00000  Uiso   1.00
C534   C     0.13137   0.17114   0.59375   0.00000  Uiso   1.00
C535   C     0.16497   0.16709   0.88365   0.00000  Uiso   1.00
C536   C     0.24597   0.16668   0.75022   0.00000  Uiso   1.00
C537   C     0.16836   0.16624   0.61635   0.00000  Uiso   1.00
C538   C     0.12738   0.17131   0.90646   0.00000  Uiso   1.00
C539   C     0.20595   0.16202   0.59354   0.00000  Uiso   1.00
C540   C     0.12759   0.17474   0.95370   0.00000  Uiso   1.00
C541   C     0.20574   0.15859   0.54630   0.00000  Uiso   1.00
C542   C     0.16580   0.16720   0.97651   0.00000  Uiso   1.00
C543   C     0.16754   0.16614   0.52349   0.00000  Uiso   1.00
C544   C     0.20251   0.16070   0.95237   0.00000  Uiso   1.00
C545   C     0.13083   0.17263   0.54763   0.00000  Uiso   1.00
C546   C     0.09198   0.18500   0.97957   0.00000  Uiso   1.00
C547   C     0.09391   0.18206   0.52575   0.00000  Uiso   1.00
C548   C     0.24136   0.14833   0.52043   0.00000  Uiso   1.00
C549   C     0.23942   0.15127   0.97425   0.00000  Uiso   1.00
C550   C     0.02124   0.12412   0.74974   0.00000  Uiso   1.00
C551   C     0.31209   0.20922   0.75026   0.00000  Uiso   1.00
C552   C     0.31199   0.12414   0.74996   0.00000  Uiso   1.00
C553   C     0.02135   0.20920   0.75004   0.00000  Uiso   1.00
C554   C     0.29059   0.16669   0.75021   0.00000  Uiso   1.00
Cu555  Cu    0.16667   0.21355   0.75000   0.00000  Uiso   1.00
Cu556  Cu    0.16667   0.11978   0.75000   0.00000  Uiso   1.00
H557   H     0.23034   0.15803   0.88757   0.00000  Uiso   1.00
H558   H     0.21415   0.29006   0.79832   0.00000  Uiso   1.00
H559   H     0.21416   0.04369   0.79832   0.00000  Uiso   1.00
H560   H     0.11918   0.28965   0.70167   0.00000  Uiso   1.00
H561   H     0.10299   0.17531   0.61243   0.00000  Uiso   1.00
H562   H     0.06643   0.18928   0.54507   0.00000  Uiso   1.00
H563   H     0.26690   0.14406   0.95493   0.00000  Uiso   1.00
H564   H     0.03723   0.09086   0.74956   0.00000  Uiso   1.00
H565   H     0.29611   0.24247   0.75044   0.00000  Uiso   1.00
H566   H     0.29592   0.09088   0.74990   0.00000  Uiso   1.00
H567   H     0.03742   0.24245   0.75010   0.00000  Uiso   1.00
H568   H     0.11918   0.04327   0.70168   0.00000  Uiso   1.00
I569   I     0.03543   0.21527   0.95743   0.00000  Uiso   1.00
I570   I     0.29790   0.11807   0.54257   0.00000  Uiso   1.00
N571   N     0.16667   0.28402   0.75000   0.00000  Uiso   1.00
N572   N     0.16667   0.04931   0.75000   0.00000  Uiso   1.00
O573   O     0.10655   0.20625   0.74999   0.00000  Uiso   1.00
O574   O     0.22679   0.12709   0.75000   0.00000  Uiso   1.00
O575   O     0.22679   0.20625   0.75000   0.00000  Uiso   1.00
O576   O     0.10655   0.12709   0.74999   0.00000  Uiso   1.00
O577   O     0.16666   0.20627   0.68513   0.00000  Uiso   1.00
O578   O     0.16668   0.12707   0.81487   0.00000  Uiso   1.00
O579   O     0.16668   0.20627   0.81487   0.00000  Uiso   1.00
O580   O     0.16666   0.12707   0.68513   0.00000  Uiso   1.00
Br581  Br    0.41138   0.16234   0.87121   0.00000  Uiso   1.00
Br582  Br    0.58862   0.17099   0.62879   0.00000  Uiso   1.00
C583   C     0.42070   0.16665   0.74978   0.00000  Uiso   1.00
C584   C     0.37608   0.16665   0.74979   0.00000  Uiso   1.00
C585   C     0.47363   0.02468   0.72318   0.00000  Uiso   1.00
C586   C     0.52637   0.30865   0.77682   0.00000  Uiso   1.00
C587   C     0.52637   0.02491   0.77682   0.00000  Uiso   1.00
C588   C     0.47363   0.30842   0.72318   0.00000  Uiso   1.00
C589   C     0.50037   0.16659   0.66452   0.00000  Uiso   1.00
C590   C     0.49963   0.16674   0.83548   0.00000  Uiso   1.00
C591   C     0.53530   0.16220   0.90625   0.00000  Uiso   1.00
C592   C     0.46470   0.17114   0.59375   0.00000  Uiso   1.00
C593   C     0.49831   0.16709   0.88365   0.00000  Uiso   1.00
C594   C     0.57930   0.16668   0.75022   0.00000  Uiso   1.00
C595   C     0.50169   0.16624   0.61635   0.00000  Uiso   1.00
C596   C     0.46071   0.17131   0.90646   0.00000  Uiso   1.00
C597   C     0.53929   0.16202   0.59354   0.00000  Uiso   1.00
C598   C     0.46093   0.17474   0.95370   0.00000  Uiso   1.00
C599   C     0.53907   0.15859   0.54630   0.00000  Uiso   1.00
C600   C     0.49913   0.16720   0.97651   0.00000  Uiso   1.00
C601   C     0.50087   0.16614   0.52349   0.00000  Uiso   1.00
C602   C     0.53584   0.16070   0.95237   0.00000  Uiso   1.00
C603   C     0.46416   0.17263   0.54763   0.00000  Uiso   1.00
C604   C     0.42531   0.18500   0.97957   0.00000  Uiso   1.00
C605   C     0.42724   0.18206   0.52575   0.00000  Uiso   1.00
C606   C     0.57469   0.14833   0.52043   0.00000  Uiso   1.00
C607   C     0.57276   0.15127   0.97425   0.00000  Uiso   1.00
C608   C     0.35457   0.12412   0.74974   0.00000  Uiso   1.00
C609   C     0.64543   0.20922   0.75026   0.00000  Uiso   1.00
C610   C     0.64532   0.12414   0.74996   0.00000  Uiso   1.00
C611   C     0.35468   0.20920   0.75004   0.00000  Uiso   1.00
C612   C     0.62392   0.16669   0.75021   0.00000  Uiso   1.00
Cu613  Cu    0.50000   0.21355   0.75000   0.00000  Uiso   1.00
Cu614  Cu    0.50000   0.11978   0.75000   0.00000  Uiso   1.00
H615   H     0.56367   0.15803   0.88757   0.00000  Uiso   1.00
H616   H     0.54749   0.29006   0.79832   0.00000  Uiso   1.00
H617   H     0.54749   0.04369   0.79832   0.00000  Uiso   1.00
H618   H     0.45251   0.28965   0.70167   0.00000  Uiso   1.00
H619   H     0.43633   0.17531   0.61243   0.00000  Uiso   1.00
H620   H     0.39977   0.18928   0.54507   0.00000  Uiso   1.00
H621   H     0.60023   0.14406   0.95493   0.00000  Uiso   1.00
H622   H     0.37056   0.09086   0.74956   0.00000  Uiso   1.00
H623   H     0.62944   0.24247   0.75044   0.00000  Uiso   1.00
H624   H     0.62925   0.09088   0.74990   0.00000  Uiso   1.00
H625   H     0.37075   0.24245   0.75010   0.00000  Uiso   1.00
H626   H     0.45251   0.04327   0.70168   0.00000  Uiso   1.00
I627   I     0.36877   0.21527   0.95743   0.00000  Uiso   1.00
I628   I     0.63123   0.11807   0.54257   0.00000  Uiso   1.00
N629   N     0.50000   0.28402   0.75000   0.00000  Uiso   1.00
N630   N     0.50000   0.04931   0.75000   0.00000  Uiso   1.00
O631   O     0.43988   0.20625   0.74999   0.00000  Uiso   1.00
O632   O     0.56012   0.12709   0.75000   0.00000  Uiso   1.00
O633   O     0.56012   0.20625   0.75000   0.00000  Uiso   1.00
O634   O     0.43988   0.12709   0.74999   0.00000  Uiso   1.00
O635   O     0.49999   0.20627   0.68513   0.00000  Uiso   1.00
O636   O     0.50001   0.12707   0.81487   0.00000  Uiso   1.00
O637   O     0.50001   0.20627   0.81487   0.00000  Uiso   1.00
O638   O     0.49999   0.12707   0.68513   0.00000  Uiso   1.00
Br639  Br    0.74472   0.16234   0.87121   0.00000  Uiso   1.00
Br640  Br    0.92195   0.17099   0.62879   0.00000  Uiso   1.00
C641   C     0.75403   0.16665   0.74978   0.00000  Uiso   1.00
C642   C     0.70941   0.16665   0.74979   0.00000  Uiso   1.00
C643   C     0.80697   0.02468   0.72318   0.00000  Uiso   1.00
C644   C     0.85970   0.30865   0.77682   0.00000  Uiso   1.00
C645   C     0.85970   0.02491   0.77682   0.00000  Uiso   1.00
C646   C     0.80697   0.30842   0.72318   0.00000  Uiso   1.00
C647   C     0.83371   0.16659   0.66452   0.00000  Uiso   1.00
C648   C     0.83296   0.16674   0.83548   0.00000  Uiso   1.00
C649   C     0.86863   0.16220   0.90625   0.00000  Uiso   1.00
C650   C     0.79803   0.17114   0.59375   0.00000  Uiso   1.00
C651   C     0.83164   0.16709   0.88365   0.00000  Uiso   1.00
C652   C     0.91264   0.16668   0.75022   0.00000  Uiso   1.00
C653   C     0.83503   0.16624   0.61635   0.00000  Uiso   1.00
C654   C     0.79405   0.17131   0.90646   0.00000  Uiso   1.00
C655   C     0.87262   0.16202   0.59354   0.00000  Uiso   1.00
C656   C     0.79426   0.17474   0.95370   0.00000  Uiso   1.00
C657   C     0.87241   0.15859   0.54630   0.00000  Uiso   1.00
C658   C     0.83246   0.16720   0.97651   0.00000  Uiso   1.00
C659   C     0.83420   0.16614   0.52349   0.00000  Uiso   1.00
C660   C     0.86917   0.16070   0.95237   0.00000  Uiso   1.00
C661   C     0.79749   0.17263   0.54763   0.00000  Uiso   1.00
C662   C     0.75864   0.18500   0.97957   0.00000  Uiso   1.00
C663   C     0.76058   0.18206   0.52575   0.00000  Uiso   1.00
C664   C     0.90802   0.14833   0.52043   0.00000  Uiso   1.00
C665   C     0.90609   0.15127   0.97425   0.00000  Uiso   1.00
C666   C     0.68791   0.12412   0.74974   0.00000  Uiso   1.00
C667   C     0.97876   0.20922   0.75026   0.00000  Uiso   1.00
C668   C     0.97865   0.12414   0.74996   0.00000  Uiso   1.00
C669   C     0.68802   0.20920   0.75004   0.00000  Uiso   1.00
C670   C     0.95725   0.16669   0.75021   0.00000  Uiso   1.00
Cu671  Cu    0.83333   0.21355   0.75000   0.00000  Uiso   1.00
Cu672  Cu    0.83333   0.11978   0.75000   0.00000  Uiso   1.00
H673   H     0.89701   0.15803   0.88757   0.00000  Uiso   1.00
H674   H     0.88082   0.29006   0.79832   0.00000  Uiso   1.00
H675   H     0.88082   0.04369   0.79832   0.00000  Uiso   1.00
H676   H     0.78584   0.28965   0.70167   0.00000  Uiso   1.00
H677   H     0.76966   0.17531   0.61243   0.00000  Uiso   1.00
H678   H     0.73310   0.18928   0.54507   0.00000  Uiso   1.00
H679   H     0.93357   0.14406   0.95493   0.00000  Uiso   1.00
H680   H     0.70389   0.09086   0.74956   0.00000  Uiso   1.00
H681   H     0.96278   0.24247   0.75044   0.00000  Uiso   1.00
H682   H     0.96258   0.09088   0.74990   0.00000  Uiso   1.00
H683   H     0.70408   0.24245   0.75010   0.00000  Uiso   1.00
H684   H     0.78585   0.04327   0.70168   0.00000  Uiso   1.00
I685   I     0.70210   0.21527   0.95743   0.00000  Uiso   1.00
I686   I     0.96457   0.11807   0.54257   0.00000  Uiso   1.00
N687   N     0.83333   0.28402   0.75000   0.00000  Uiso   1.00
N688   N     0.83333   0.04931   0.75000   0.00000  Uiso   1.00
O689   O     0.77321   0.20625   0.74999   0.00000  Uiso   1.00
O690   O     0.89345   0.12709   0.75000   0.00000  Uiso   1.00
O691   O     0.89345   0.20625   0.75000   0.00000  Uiso   1.00
O692   O     0.77321   0.12709   0.74999   0.00000  Uiso   1.00
O693   O     0.83332   0.20627   0.68513   0.00000  Uiso   1.00
O694   O     0.83334   0.12707   0.81487   0.00000  Uiso   1.00
O695   O     0.83334   0.20627   0.81487   0.00000  Uiso   1.00
O696   O     0.83332   0.12707   0.68513   0.00000  Uiso   1.00
Br697  Br    0.07805   0.49567   0.87121   0.00000  Uiso   1.00
Br698  Br    0.25528   0.50432   0.62879   0.00000  Uiso   1.00
C699   C     0.08736   0.49998   0.74978   0.00000  Uiso   1.00
C700   C     0.04275   0.49998   0.74979   0.00000  Uiso   1.00
C701   C     0.14030   0.35802   0.72318   0.00000  Uiso   1.00
C702   C     0.19303   0.64198   0.77682   0.00000  Uiso   1.00
C703   C     0.19303   0.35825   0.77682   0.00000  Uiso   1.00
C704   C     0.14030   0.64175   0.72318   0.00000  Uiso   1.00
C705   C     0.16704   0.49992   0.66452   0.00000  Uiso   1.00
C706   C     0.16629   0.50008   0.83548   0.00000  Uiso   1.00
C707   C     0.20197   0.49553   0.90625   0.00000  Uiso   1.00
C708   C     0.13137   0.50447   0.59375   0.00000  Uiso   1.00
C709   C     0.16497   0.50042   0.88365   0.00000  Uiso   1.00
C710   C     0.24597   0.50002   0.75022   0.00000  Uiso   1.00
C711   C     0.16836   0.49957   0.61635   0.00000  Uiso   1.00
C712   C     0.12738   0.50465   0.90646   0.00000  Uiso   1.00
C713   C     0.20595   0.49535   0.59354   0.00000  Uiso   1.00
C714   C     0.12759   0.50807   0.95370   0.00000  Uiso   1.00
C715   C     0.20574   0.49193   0.54630   0.00000  Uiso   1.00
C716   C     0.16580   0.50053   0.97651   0.00000  Uiso   1.00
C717   C     0.16754   0.49947   0.52349   0.00000  Uiso   1.00
C718   C     0.20251   0.49404   0.95237   0.00000  Uiso   1.00
C719   C     0.13083   0.50596   0.54763   0.00000  Uiso   1.00
C720   C     0.09198   0.51833   0.97957   0.00000  Uiso   1.00
C721   C     0.09391   0.51539   0.52575   0.00000  Uiso   1.00
C722   C     0.24136   0.48167   0.52043   0.00000  Uiso   1.00
C723   C     0.23942   0.48461   0.97425   0.00000  Uiso   1.00
C724   C     0.02124   0.45745   0.74974   0.00000  Uiso   1.00
C725   C     0.31209   0.54255   0.75026   0.00000  Uiso   1.00
C726   C     0.31199   0.45747   0.74996   0.00000  Uiso   1.00
C727   C     0.02135   0.54253   0.75004   0.00000  Uiso   1.00
C728   C     0.29059   0.50002   0.75021   0.00000  Uiso   1.00
Cu729  Cu    0.16667   0.54689   0.75000   0.00000  Uiso   1.00
Cu730  Cu    0.16667   0.45311   0.75000   0.00000  Uiso   1.00
H731   H     0.23034   0.49136   0.88757   0.00000  Uiso   1.00
H732   H     0.21415   0.62339   0.79832   0.00000  Uiso   1.00
H733   H     0.21416   0.37702   0.79832   0.00000  Uiso   1.00
H734   H     0.11918   0.62298   0.70167   0.00000  Uiso   1.00
H735   H     0.10299   0.50864   0.61243   0.00000  Uiso   1.00
H736   H     0.06643   0.52261   0.54507   0.00000  Uiso   1.00
H737   H     0.26690   0.47739   0.95493   0.00000  Uiso   1.00
H738   H     0.03723   0.42419   0.74956   0.00000  Uiso   1.00
H739   H     0.29611   0.57581   0.75044   0.00000  Uiso   1.00
H740   H     0.29592   0.42422   0.74990   0.00000  Uiso   1.00
H741   H     0.03742   0.57578   0.75010   0.00000  Uiso   1.00
H742   H     0.11918   0.37661   0.70168   0.00000  Uiso   1.00
I743   I     0.03543   0.54860   0.95743   0.00000  Uiso   1.00
I744   I     0.29790   0.45140   0.54257   0.00000  Uiso   1.00
N745   N     0.16667   0.61736   0.75000   0.00000  Uiso   1.00
N746   N     0.16667   0.38264   0.75000   0.00000  Uiso   1.00
O747   O     0.10655   0.53958   0.74999   0.00000  Uiso   1.00
O748   O     0.22679   0.46042   0.75000   0.00000  Uiso   1.00
O749   O     0.22679   0.53958   0.75000   0.00000  Uiso   1.00
O750   O     0.10655   0.46042   0.74999   0.00000  Uiso   1.00
O751   O     0.16666   0.53960   0.68513   0.00000  Uiso   1.00
O752   O     0.16668   0.46040   0.81487   0.00000  Uiso   1.00
O753   O     0.16668   0.53960   0.81487   0.00000  Uiso   1.00
O754   O     0.16666   0.46040   0.68513   0.00000  Uiso   1.00
Br755  Br    0.41138   0.49567   0.87121   0.00000  Uiso   1.00
Br756  Br    0.58862   0.50432   0.62879   0.00000  Uiso   1.00
C757   C     0.42070   0.49998   0.74978   0.00000  Uiso   1.00
C758   C     0.37608   0.49998   0.74979   0.00000  Uiso   1.00
C759   C     0.47363   0.35802   0.72318   0.00000  Uiso   1.00
C760   C     0.52637   0.64198   0.77682   0.00000  Uiso   1.00
C761   C     0.52637   0.35825   0.77682   0.00000  Uiso   1.00
C762   C     0.47363   0.64175   0.72318   0.00000  Uiso   1.00
C763   C     0.50037   0.49992   0.66452   0.00000  Uiso   1.00
C764   C     0.49963   0.50008   0.83548   0.00000  Uiso   1.00
C765   C     0.53530   0.49553   0.90625   0.00000  Uiso   1.00
C766   C     0.46470   0.50447   0.59375   0.00000  Uiso   1.00
C767   C     0.49831   0.50042   0.88365   0.00000  Uiso   1.00
C768   C     0.57930   0.50002   0.75022   0.00000  Uiso   1.00
C769   C     0.50169   0.49957   0.61635   0.00000  Uiso   1.00
C770   C     0.46071   0.50465   0.90646   0.00000  Uiso   1.00
C771   C     0.53929   0.49535   0.59354   0.00000  Uiso   1.00
C772   C     0.46093   0.50807   0.95370   0.00000  Uiso   1.00
C773   C     0.53907   0.49193   0.54630   0.00000  Uiso   1.00
C774   C     0.49913   0.50053   0.97651   0.00000  Uiso   1.00
C775   C     0.50087   0.49947   0.52349   0.00000  Uiso   1.00
C776   C     0.53584   0.49404   0.95237   0.00000  Uiso   1.00
C777   C     0.46416   0.50596   0.54763   0.00000  Uiso   1.00
C778   C     0.42531   0.51833   0.97957   0.00000  Uiso   1.00
C779   C     0.42724   0.51539   0.52575   0.00000  Uiso   1.00
C780   C     0.57469   0.48167   0.52043   0.00000  Uiso   1.00
C781   C     0.57276   0.48461   0.97425   0.00000  Uiso   1.00
C782   C     0.35457   0.45745   0.74974   0.00000  Uiso   1.00
C783   C     0.64543   0.54255   0.75026   0.00000  Uiso   1.00
C784   C     0.64532   0.45747   0.74996   0.00000  Uiso   1.00
C785   C     0.35468   0.54253   0.75004   0.00000  Uiso   1.00
C786   C     0.62392   0.50002   0.75021   0.00000  Uiso   1.00
Cu787  Cu    0.50000   0.54689   0.75000   0.00000  Uiso   1.00
Cu788  Cu    0.50000   0.45311   0.75000   0.00000  Uiso   1.00
H789   H     0.56367   0.49136   0.88757   0.00000  Uiso   1.00
H790   H     0.54749   0.62339   0.79832   0.00000  Uiso   1.00
H791   H     0.54749   0.37702   0.79832   0.00000  Uiso   1.00
H792   H     0.45251   0.62298   0.70167   0.00000  Uiso   1.00
H793   H     0.43633   0.50864   0.61243   0.00000  Uiso   1.00
H794   H     0.39977   0.52261   0.54507   0.00000  Uiso   1.00
H795   H     0.60023   0.47739   0.95493   0.00000  Uiso   1.00
H796   H     0.37056   0.42419   0.74956   0.00000  Uiso   1.00
H797   H     0.62944   0.57581   0.75044   0.00000  Uiso   1.00
H798   H     0.62925   0.42422   0.74990   0.00000  Uiso   1.00
H799   H     0.37075   0.57578   0.75010   0.00000  Uiso   1.00
H800   H     0.45251   0.37661   0.70168   0.00000  Uiso   1.00
I801   I     0.36877   0.54860   0.95743   0.00000  Uiso   1.00
I802   I     0.63123   0.45140   0.54257   0.00000  Uiso   1.00
N803   N     0.50000   0.61736   0.75000   0.00000  Uiso   1.00
N804   N     0.50000   0.38264   0.75000   0.00000  Uiso   1.00
O805   O     0.43988   0.53958   0.74999   0.00000  Uiso   1.00
O806   O     0.56012   0.46042   0.75000   0.00000  Uiso   1.00
O807   O     0.56012   0.53958   0.75000   0.00000  Uiso   1.00
O808   O     0.43988   0.46042   0.74999   0.00000  Uiso   1.00
O809   O     0.49999   0.53960   0.68513   0.00000  Uiso   1.00
O810   O     0.50001   0.46040   0.81487   0.00000  Uiso   1.00
O811   O     0.50001   0.53960   0.81487   0.00000  Uiso   1.00
O812   O     0.49999   0.46040   0.68513   0.00000  Uiso   1.00
Br813  Br    0.74472   0.49567   0.87121   0.00000  Uiso   1.00
Br814  Br    0.92195   0.50432   0.62879   0.00000  Uiso   1.00
C815   C     0.75403   0.49998   0.74978   0.00000  Uiso   1.00
C816   C     0.70941   0.49998   0.74979   0.00000  Uiso   1.00
C817   C     0.80697   0.35802   0.72318   0.00000  Uiso   1.00
C818   C     0.85970   0.64198   0.77682   0.00000  Uiso   1.00
C819   C     0.85970   0.35825   0.77682   0.00000  Uiso   1.00
C820   C     0.80697   0.64175   0.72318   0.00000  Uiso   1.00
C821   C     0.83371   0.49992   0.66452   0.00000  Uiso   1.00
C822   C     0.83296   0.50008   0.83548   0.00000  Uiso   1.00
C823   C     0.86863   0.49553   0.90625   0.00000  Uiso   1.00
C824   C     0.79803   0.50447   0.59375   0.00000  Uiso   1.00
C825   C     0.83164   0.50042   0.88365   0.00000  Uiso   1.00
C826   C     0.91264   0.50002   0.75022   0.00000  Uiso   1.00
C827   C     0.83503   0.49957   0.61635   0.00000  Uiso   1.00
C828   C     0.79405   0.50465   0.90646   0.00000  Uiso   1.00
C829   C     0.87262   0.49535   0.59354   0.00000  Uiso   1.00
C830   C     0.79426   0.50807   0.95370   0.00000  Uiso   1.00
C831   C     0.87241   0.49193   0.54630   0.00000  Uiso   1.00
C832   C     0.83246   0.50053   0.97651   0.00000  Uiso   1.00
C833   C     0.83420   0.49947   0.52349   0.00000  Uiso   1.00
C834   C     0.86917   0.49404   0.95237   0.00000  Uiso   1.00
C835   C     0.79749   0.50596   0.54763   0.00000  Uiso   1.00
C836   C     0.75864   0.51833   0.97957   0.00000  Uiso   1.00
C837   C     0.76058   0.51539   0.52575   0.00000  Uiso   1.00
C838   C     0.90802   0.48167   0.52043   0.00000  Uiso   1.00
C839   C     0.90609   0.48461   0.97425   0.00000  Uiso   1.00
C840   C     0.68791   0.45745   0.74974   0.00000  Uiso   1.00
C841   C     0.97876   0.54255   0.75026   0.00000  Uiso   1.00
C842   C     0.97865   0.45747   0.74996   0.00000  Uiso   1.00
C843   C     0.68802   0.54253   0.75004   0.00000  Uiso   1.00
C844   C     0.95725   0.50002   0.75021   0.00000  Uiso   1.00
Cu845  Cu    0.83333   0.54689   0.75000   0.00000  Uiso   1.00
Cu846  Cu    0.83333   0.45311   0.75000   0.00000  Uiso   1.00
H847   H     0.89701   0.49136   0.88757   0.00000  Uiso   1.00
H848   H     0.88082   0.62339   0.79832   0.00000  Uiso   1.00
H849   H     0.88082   0.37702   0.79832   0.00000  Uiso   1.00
H850   H     0.78584   0.62298   0.70167   0.00000  Uiso   1.00
H851   H     0.76966   0.50864   0.61243   0.00000  Uiso   1.00
H852   H     0.73310   0.52261   0.54507   0.00000  Uiso   1.00
H853   H     0.93357   0.47739   0.95493   0.00000  Uiso   1.00
H854   H     0.70389   0.42419   0.74956   0.00000  Uiso   1.00
H855   H     0.96278   0.57581   0.75044   0.00000  Uiso   1.00
H856   H     0.96258   0.42422   0.74990   0.00000  Uiso   1.00
H857   H     0.70408   0.57578   0.75010   0.00000  Uiso   1.00
H858   H     0.78585   0.37661   0.70168   0.00000  Uiso   1.00
I859   I     0.70210   0.54860   0.95743   0.00000  Uiso   1.00
I860   I     0.96457   0.45140   0.54257   0.00000  Uiso   1.00
N861   N     0.83333   0.61736   0.75000   0.00000  Uiso   1.00
N862   N     0.83333   0.38264   0.75000   0.00000  Uiso   1.00
O863   O     0.77321   0.53958   0.74999   0.00000  Uiso   1.00
O864   O     0.89345   0.46042   0.75000   0.00000  Uiso   1.00
O865   O     0.89345   0.53958   0.75000   0.00000  Uiso   1.00
O866   O     0.77321   0.46042   0.74999   0.00000  Uiso   1.00
O867   O     0.83332   0.53960   0.68513   0.00000  Uiso   1.00
O868   O     0.83334   0.46040   0.81487   0.00000  Uiso   1.00
O869   O     0.83334   0.53960   0.81487   0.00000  Uiso   1.00
O870   O     0.83332   0.46040   0.68513   0.00000  Uiso   1.00
Br871  Br    0.07805   0.82901   0.87121   0.00000  Uiso   1.00
Br872  Br    0.25528   0.83766   0.62879   0.00000  Uiso   1.00
C873   C     0.08736   0.83332   0.74978   0.00000  Uiso   1.00
C874   C     0.04275   0.83331   0.74979   0.00000  Uiso   1.00
C875   C     0.14030   0.69135   0.72318   0.00000  Uiso   1.00
C876   C     0.19303   0.97532   0.77682   0.00000  Uiso   1.00
C877   C     0.19303   0.69158   0.77682   0.00000  Uiso   1.00
C878   C     0.14030   0.97509   0.72318   0.00000  Uiso   1.00
C879   C     0.16704   0.83326   0.66452   0.00000  Uiso   1.00
C880   C     0.16629   0.83341   0.83548   0.00000  Uiso   1.00
C881   C     0.20197   0.82886   0.90625   0.00000  Uiso   1.00
C882   C     0.13137   0.83780   0.59375   0.00000  Uiso   1.00
C883   C     0.16497   0.83376   0.88365   0.00000  Uiso   1.00
C884   C     0.24597   0.83335   0.75022   0.00000  Uiso   1.00
C885   C     0.16836   0.83291   0.61635   0.00000  Uiso   1.00
C886   C     0.12738   0.83798   0.90646   0.00000  Uiso   1.00
C887   C     0.20595   0.82868   0.59354   0.00000  Uiso   1.00
C888   C     0.12759   0.84141   0.95370   0.00000  Uiso   1.00
C889   C     0.20574   0.82526   0.54630   0.00000  Uiso   1.00
C890   C     0.16580   0.83386   0.97651   0.00000  Uiso   1.00
C891   C     0.16754   0.83280   0.52349   0.00000  Uiso   1.00
C892   C     0.20251   0.82737   0.95237   0.00000  Uiso   1.00
C893   C     0.13083   0.83930   0.54763   0.00000  Uiso   1.00
C894   C     0.09198   0.85167   0.97957   0.00000  Uiso   1.00
C895   C     0.09391   0.84873   0.52575   0.00000  Uiso   1.00
C896   C     0.24136   0.81500   0.52043   0.00000  Uiso   1.00
C897   C     0.23942   0.81794   0.97425   0.00000  Uiso   1.00
C898   C     0.02124   0.79078   0.74974   0.00000  Uiso   1.00
C899   C     0.31209   0.87588   0.75026   0.00000  Uiso   1.00
C900   C     0.31199   0.79080   0.74996   0.00000  Uiso   1.00
C901   C     0.02135   0.87586   0.75004   0.00000  Uiso   1.00
C902   C     0.29059   0.83335   0.75021   0.00000  Uiso   1.00
Cu903  Cu    0.16667   0.88022   0.75000   0.00000  Uiso   1.00
Cu904  Cu    0.16667   0.78645   0.75000   0.00000  Uiso   1.00
H905   H     0.23034   0.82469   0.88757   0.00000  Uiso   1.00
H906   H     0.21415   0.95672   0.79832   0.00000  Uiso   1.00
H907   H     0.21416   0.71035   0.79832   0.00000  Uiso   1.00
H908   H     0.11918   0.95631   0.70167   0.00000  Uiso   1.00
H909   H     0.10299   0.84197   0.61243   0.00000  Uiso   1.00
H910   H     0.06643   0.85594   0.54507   0.00000  Uiso   1.00
H911   H     0.26690   0.81072   0.95493   0.00000  Uiso   1.00
H912   H     0.03723   0.75753   0.74956   0.00000  Uiso   1.00
H913   H     0.29611   0.90914   0.75044   0.00000  Uiso   1.00
H914   H     0.29592   0.75755   0.74990   0.00000  Uiso   1.00
H915   H     0.03742   0.90912   0.75010   0.00000  Uiso   1.00
H916   H     0.11918   0.70994   0.70168   0.00000  Uiso   1.00
I917   I     0.03543   0.88193   0.95743   0.00000  Uiso   1.00
I918   I     0.29790   0.78473   0.54257   0.00000  Uiso   1.00
N919   N     0.16667   0.95069   0.75000   0.00000  Uiso   1.00
N920   N     0.16667   0.71598   0.75000   0.00000  Uiso   1.00
O921   O     0.10655   0.87291   0.74999   0.00000  Uiso   1.00
O922   O     0.22679   0.79375   0.75000   0.00000  Uiso   1.00
O923   O     0.22679   0.87291   0.75000   0.00000  Uiso   1.00
O924   O     0.10655   0.79375   0.74999   0.00000  Uiso   1.00
O925   O     0.16666   0.87293   0.68513   0.00000  Uiso   1.00
O926   O     0.16668   0.79373   0.81487   0.00000  Uiso   1.00
O927   O     0.16668   0.87293   0.81487   0.00000  Uiso   1.00
O928   O     0.16666   0.79373   0.68513   0.00000  Uiso   1.00
Br929  Br    0.41138   0.82901   0.87121   0.00000  Uiso   1.00
Br930  Br    0.58862   0.83766   0.62879   0.00000  Uiso   1.00
C931   C     0.42070   0.83332   0.74978   0.00000  Uiso   1.00
C932   C     0.37608   0.83331   0.74979   0.00000  Uiso   1.00
C933   C     0.47363   0.69135   0.72318   0.00000  Uiso   1.00
C934   C     0.52637   0.97532   0.77682   0.00000  Uiso   1.00
C935   C     0.52637   0.69158   0.77682   0.00000  Uiso   1.00
C936   C     0.47363   0.97509   0.72318   0.00000  Uiso   1.00
C937   C     0.50037   0.83326   0.66452   0.00000  Uiso   1.00
C938   C     0.49963   0.83341   0.83548   0.00000  Uiso   1.00
C939   C     0.53530   0.82886   0.90625   0.00000  Uiso   1.00
C940   C     0.46470   0.83780   0.59375   0.00000  Uiso   1.00
C941   C     0.49831   0.83376   0.88365   0.00000  Uiso   1.00
C942   C     0.57930   0.83335   0.75022   0.00000  Uiso   1.00
C943   C     0.50169   0.83291   0.61635   0.00000  Uiso   1.00
C944   C     0.46071   0.83798   0.90646   0.00000  Uiso   1.00
C945   C     0.53929   0.82868   0.59354   0.00000  Uiso   1.00
C946   C     0.46093   0.84141   0.95370   0.00000  Uiso   1.00
C947   C     0.53907   0.82526   0.54630   0.00000  Uiso   1.00
C948   C     0.49913   0.83386   0.97651   0.00000  Uiso   1.00
C949   C     0.50087   0.83280   0.52349   0.00000  Uiso   1.00
C950   C     0.53584   0.82737   0.95237   0.00000  Uiso   1.00
C951   C     0.46416   0.83930   0.54763   0.00000  Uiso   1.00
C952   C     0.42531   0.85167   0.97957   0.00000  Uiso   1.00
C953   C     0.42724   0.84873   0.52575   0.00000  Uiso   1.00
C954   C     0.57469   0.81500   0.52043   0.00000  Uiso   1.00
C955   C     0.57276   0.81794   0.97425   0.00000  Uiso   1.00
C956   C     0.35457   0.79078   0.74974   0.00000  Uiso   1.00
C957   C     0.64543   0.87588   0.75026   0.00000  Uiso   1.00
C958   C     0.64532   0.79080   0.74996   0.00000  Uiso   1.00
C959   C     0.35468   0.87586   0.75004   0.00000  Uiso   1.00
C960   C     0.62392   0.83335   0.75021   0.00000  Uiso   1.00
Cu961  Cu    0.50000   0.88022   0.75000   0.00000  Uiso   1.00
Cu962  Cu    0.50000   0.78645   0.75000   0.00000  Uiso   1.00
H963   H     0.56367   0.82469   0.88757   0.00000  Uiso   1.00
H964   H     0.54749   0.95672   0.79832   0.00000  Uiso   1.00
H965   H     0.54749   0.71035   0.79832   0.00000  Uiso   1.00
H966   H     0.45251   0.95631   0.70167   0.00000  Uiso   1.00
H967   H     0.43633   0.84197   0.61243   0.00000  Uiso   1.00
H968   H     0.39977   0.85594   0.54507   0.00000  Uiso   1.00
H969   H     0.60023   0.81072   0.95493   0.00000  Uiso   1.00
H970   H     0.37056   0.75753   0.74956   0.00000  Uiso   1.00
H971   H     0.62944   0.90914   0.75044   0.00000  Uiso   1.00
H972   H     0.62925   0.75755   0.74990   0.00000  Uiso   1.00
H973   H     0.37075   0.90912   0.75010   0.00000  Uiso   1.00
H974   H     0.45251   0.70994   0.70168   0.00000  Uiso   1.00
I975   I     0.36877   0.88193   0.95743   0.00000  Uiso   1.00
I976   I     0.63123   0.78473   0.54257   0.00000  Uiso   1.00
N977   N     0.50000   0.95069   0.75000   0.00000  Uiso   1.00
N978   N     0.50000   0.71598   0.75000   0.00000  Uiso   1.00
O979   O     0.43988   0.87291   0.74999   0.00000  Uiso   1.00
O980   O     0.56012   0.79375   0.75000   0.00000  Uiso   1.00
O981   O     0.56012   0.87291   0.75000   0.00000  Uiso   1.00
O982   O     0.43988   0.79375   0.74999   0.00000  Uiso   1.00
O983   O     0.49999   0.87293   0.68513   0.00000  Uiso   1.00
O984   O     0.50001   0.79373   0.81487   0.00000  Uiso   1.00
O985   O     0.50001   0.87293   0.81487   0.00000  Uiso   1.00
O986   O     0.49999   0.79373   0.68513   0.00000  Uiso   1.00
Br987  Br    0.74472   0.82901   0.87121   0.00000  Uiso   1.00
Br988  Br    0.92195   0.83766   0.62879   0.00000  Uiso   1.00
C989   C     0.75403   0.83332   0.74978   0.00000  Uiso   1.00
C990   C     0.70941   0.83331   0.74979   0.00000  Uiso   1.00
C991   C     0.80697   0.69135   0.72318   0.00000  Uiso   1.00
C992   C     0.85970   0.97532   0.77682   0.00000  Uiso   1.00
C993   C     0.85970   0.69158   0.77682   0.00000  Uiso   1.00
C994   C     0.80697   0.97509   0.72318   0.00000  Uiso   1.00
C995   C     0.83371   0.83326   0.66452   0.00000  Uiso   1.00
C996   C     0.83296   0.83341   0.83548   0.00000  Uiso   1.00
C997   C     0.86863   0.82886   0.90625   0.00000  Uiso   1.00
C998   C     0.79803   0.83780   0.59375   0.00000  Uiso   1.00
C999   C     0.83164   0.83376   0.88365   0.00000  Uiso   1.00
C1000  C     0.91264   0.83335   0.75022   0.00000  Uiso   1.00
C1001  C     0.83503   0.83291   0.61635   0.00000  Uiso   1.00
C1002  C     0.79405   0.83798   0.90646   0.00000  Uiso   1.00
C1003  C     0.87262   0.82868   0.59354   0.00000  Uiso   1.00
C1004  C     0.79426   0.84141   0.95370   0.00000  Uiso   1.00
C1005  C     0.87241   0.82526   0.54630   0.00000  Uiso   1.00
C1006  C     0.83246   0.83386   0.97651   0.00000  Uiso   1.00
C1007  C     0.83420   0.83280   0.52349   0.00000  Uiso   1.00
C1008  C     0.86917   0.82737   0.95237   0.00000  Uiso   1.00
C1009  C     0.79749   0.83930   0.54763   0.00000  Uiso   1.00
C1010  C     0.75864   0.85167   0.97957   0.00000  Uiso   1.00
C1011  C     0.76058   0.84873   0.52575   0.00000  Uiso   1.00
C1012  C     0.90802   0.81500   0.52043   0.00000  Uiso   1.00
C1013  C     0.90609   0.81794   0.97425   0.00000  Uiso   1.00
C1014  C     0.68791   0.79078   0.74974   0.00000  Uiso   1.00
C1015  C     0.97876   0.87588   0.75026   0.00000  Uiso   1.00
C1016  C     0.97865   0.79080   0.74996   0.00000  Uiso   1.00
C1017  C     0.68802   0.87586   0.75004   0.00000  Uiso   1.00
C1018  C     0.95725   0.83335   0.75021   0.00000  Uiso   1.00
Cu1019 Cu    0.83333   0.88022   0.75000   0.00000  Uiso   1.00
Cu1020 Cu    0.83333   0.78645   0.75000   0.00000  Uiso   1.00
H1021  H     0.89701   0.82469   0.88757   0.00000  Uiso   1.00
H1022  H     0.88082   0.95672   0.79832   0.00000  Uiso   1.00
H1023  H     0.88082   0.71035   0.79832   0.00000  Uiso   1.00
H1024  H     0.78584   0.95631   0.70167   0.00000  Uiso   1.00
H1025  H     0.76966   0.84197   0.61243   0.00000  Uiso   1.00
H1026  H     0.73310   0.85594   0.54507   0.00000  Uiso   1.00
H1027  H     0.93357   0.81072   0.95493   0.00000  Uiso   1.00
H1028  H     0.70389   0.75753   0.74956   0.00000  Uiso   1.00
H1029  H     0.96278   0.90914   0.75044   0.00000  Uiso   1.00
H1030  H     0.96258   0.75755   0.74990   0.00000  Uiso   1.00
H1031  H     0.70408   0.90912   0.75010   0.00000  Uiso   1.00
H1032  H     0.78585   0.70994   0.70168   0.00000  Uiso   1.00
I1033  I     0.70210   0.88193   0.95743   0.00000  Uiso   1.00
I1034  I     0.96457   0.78473   0.54257   0.00000  Uiso   1.00
N1035  N     0.83333   0.95069   0.75000   0.00000  Uiso   1.00
N1036  N     0.83333   0.71598   0.75000   0.00000  Uiso   1.00
O1037  O     0.77321   0.87291   0.74999   0.00000  Uiso   1.00
O1038  O     0.89345   0.79375   0.75000   0.00000  Uiso   1.00
O1039  O     0.89345   0.87291   0.75000   0.00000  Uiso   1.00
O1040  O     0.77321   0.79375   0.74999   0.00000  Uiso   1.00
O1041  O     0.83332   0.87293   0.68513   0.00000  Uiso   1.00
O1042  O     0.83334   0.79373   0.81487   0.00000  Uiso   1.00
O1043  O     0.83334   0.87293   0.81487   0.00000  Uiso   1.00
O1044  O     0.83332   0.79373   0.68513   0.00000  Uiso   1.00
loop_
_geom_bond_atom_site_label_1
_geom_bond_atom_site_label_2
_geom_bond_distance
_geom_bond_site_symmetry_2
_ccdc_geom_bond_type
Br1    C16     1.934   .     S
Br2    C17     1.934   .     S
C3     O54     1.291   .     A
C3     C4      1.448   .     S
C3     O51     1.291   .     A
C4     C31     1.401   .     A
C4     C28     1.401   .     A
C5     H46     1.082   .     S
C5     N50     1.367   .     A
C5     C356    1.417   1_545 S
C6     H36     1.082   .     S
C6     N49     1.367   .     A
C6     C181    1.417   .     S
C7     N50     1.367   .     A
C7     H37     1.082   .     S
C7     C354    1.417   1_545 S
C8     H38     1.082   .     S
C8     N49     1.367   .     A
C8     C179    1.417   .     S
C9     O55     1.290   .     A
C9     C15     1.447   .     S
C9     O58     1.289   .     A
C10    O56     1.290   .     A
C10    O57     1.289   .     A
C10    C13     1.447   .     S
C11    C22     1.386   .     A
C11    C13     1.386   .     A
C11    H35     1.086   .     S
C12    C15     1.386   .     A
C12    H39     1.086   .     S
C12    C23     1.386   .     A
C13    C16     1.406   .     A
C14    O53     1.291   .     A
C14    C32     1.448   .     S
C14    O52     1.291   .     A
C15    C17     1.406   .     A
C16    C18     1.422   .     A
C17    C19     1.422   .     A
C18    C24     1.425   .     A
C18    C20     1.432   .     A
C19    C21     1.432   .     A
C19    C26     1.425   .     A
C20    C22     1.408   .     A
C20    C543    1.412   .     S
C21    C23     1.408   .     A
C21    C542    1.412   1_554 S
C22    C27     1.393   .     A
C23    C25     1.393   .     A
C24    I47     2.136   .     S
C24    C547    1.391   .     S
C25    H40     1.085   .     S
C25    C546    1.391   1_554 S
C26    I48     2.136   .     S
C26    C549    1.391   1_554 S
C27    H41     1.085   .     S
C27    C548    1.391   .     S
C28    H42     1.083   .     S
C28    C146    1.383   1_455 S
C29    H43     1.083   .     S
C29    C32     1.401   .     A
C29    C89     1.383   .     S
C30    C32     1.401   .     A
C30    H44     1.083   .     S
C30    C86     1.383   .     S
C31    H45     1.083   .     S
C31    C145    1.383   1_455 S
Cu33   O55     1.959   .     S
Cu33   O51     1.963   .     S
Cu33   Cu34    2.679   .     S
Cu33   O53     1.963   .     S
Cu33   N49     2.013   .     S
Cu33   O57     1.960   .     S
Cu34   O56     1.959   .     S
Cu34   O52     1.963   .     S
Cu34   O54     1.963   .     S
Cu34   N50     2.013   .     S
Cu34   O58     1.960   .     S
Br59   C74     1.934   .     S
Br60   C75     1.934   .     S
C61    O112    1.291   .     A
C61    C62     1.448   .     S
C61    O109    1.291   .     A
C62    C89     1.401   .     A
C62    C86     1.401   .     A
C63    H104    1.082   .     S
C63    N108    1.367   .     A
C63    C414    1.417   1_545 S
C64    H94     1.082   .     S
C64    N107    1.367   .     A
C64    C239    1.417   .     S
C65    N108    1.367   .     A
C65    H95     1.082   .     S
C65    C412    1.417   1_545 S
C66    H96     1.082   .     S
C66    N107    1.367   .     A
C66    C237    1.417   .     S
C67    O113    1.290   .     A
C67    C73     1.447   .     S
C67    O116    1.289   .     A
C68    O114    1.290   .     A
C68    O115    1.289   .     A
C68    C71     1.447   .     S
C69    C80     1.386   .     A
C69    C71     1.386   .     A
C69    H93     1.086   .     S
C70    C73     1.386   .     A
C70    H97     1.086   .     S
C70    C81     1.386   .     A
C71    C74     1.406   .     A
C72    O111    1.291   .     A
C72    C90     1.448   .     S
C72    O110    1.291   .     A
C73    C75     1.406   .     A
C74    C76     1.422   .     A
C75    C77     1.422   .     A
C76    C82     1.425   .     A
C76    C78     1.432   .     A
C77    C79     1.432   .     A
C77    C84     1.425   .     A
C78    C80     1.408   .     A
C78    C601    1.412   .     S
C79    C81     1.408   .     A
C79    C600    1.412   1_554 S
C80    C85     1.393   .     A
C81    C83     1.393   .     A
C82    I105    2.136   .     S
C82    C605    1.391   .     S
C83    H98     1.085   .     S
C83    C604    1.391   1_554 S
C84    I106    2.136   .     S
C84    C607    1.391   1_554 S
C85    H99     1.085   .     S
C85    C606    1.391   .     S
C86    H100    1.083   .     S
C87    H101    1.083   .     S
C87    C90     1.401   .     A
C87    C147    1.383   .     S
C88    C90     1.401   .     A
C88    H102    1.083   .     S
C88    C144    1.383   .     S
C89    H103    1.083   .     S
Cu91   O113    1.959   .     S
Cu91   O109    1.963   .     S
Cu91   Cu92    2.679   .     S
Cu91   O111    1.963   .     S
Cu91   N107    2.013   .     S
Cu91   O115    1.960   .     S
Cu92   O114    1.959   .     S
Cu92   O110    1.963   .     S
Cu92   O112    1.963   .     S
Cu92   N108    2.013   .     S
Cu92   O116    1.960   .     S
Br117  C132    1.934   .     S
Br118  C133    1.934   .     S
C119   O170    1.291   .     A
C119   C120    1.448   .     S
C119   O167    1.291   .     A
C120   C147    1.401   .     A
C120   C144    1.401   .     A
C121   H162    1.082   .     S
C121   N166    1.367   .     A
C121   C472    1.417   1_545 S
C122   H152    1.082   .     S
C122   N165    1.367   .     A
C122   C297    1.417   .     S
C123   N166    1.367   .     A
C123   H153    1.082   .     S
C123   C470    1.417   1_545 S
C124   H154    1.082   .     S
C124   N165    1.367   .     A
C124   C295    1.417   .     S
C125   O171    1.290   .     A
C125   C131    1.447   .     S
C125   O174    1.289   .     A
C126   O172    1.290   .     A
C126   O173    1.289   .     A
C126   C129    1.447   .     S
C127   C138    1.386   .     A
C127   C129    1.386   .     A
C127   H151    1.086   .     S
C128   C131    1.386   .     A
C128   H155    1.086   .     S
C128   C139    1.386   .     A
C129   C132    1.406   .     A
C130   O169    1.291   .     A
C130   C148    1.448   .     S
C130   O168    1.291   .     A
C131   C133    1.406   .     A
C132   C134    1.422   .     A
C133   C135    1.422   .     A
C134   C140    1.425   .     A
C134   C136    1.432   .     A
C135   C137    1.432   .     A
C135   C142    1.425   .     A
C136   C138    1.408   .     A
C136   C659    1.412   .     S
C137   C139    1.408   .     A
C137   C658    1.412   1_554 S
C138   C143    1.393   .     A
C139   C141    1.393   .     A
C140   I163    2.136   .     S
C140   C663    1.391   .     S
C141   H156    1.085   .     S
C141   C662    1.391   1_554 S
C142   I164    2.136   .     S
C142   C665    1.391   1_554 S
C143   H157    1.085   .     S
C143   C664    1.391   .     S
C144   H158    1.083   .     S
C145   H159    1.083   .     S
C145   C148    1.401   .     A
C145   C31     1.383   1_655 S
C146   C148    1.401   .     A
C146   H160    1.083   .     S
C146   C28     1.383   1_655 S
C147   H161    1.083   .     S
Cu149  O171    1.959   .     S
Cu149  O167    1.963   .     S
Cu149  Cu150   2.679   .     S
Cu149  O169    1.963   .     S
Cu149  N165    2.013   .     S
Cu149  O173    1.960   .     S
Cu150  O172    1.959   .     S
Cu150  O168    1.963   .     S
Cu150  O170    1.963   .     S
Cu150  N166    2.013   .     S
Cu150  O174    1.960   .     S
Br175  C190    1.934   .     S
Br176  C191    1.934   .     S
C177   O228    1.291   .     A
C177   C178    1.448   .     S
C177   O225    1.291   .     A
C178   C205    1.401   .     A
C178   C202    1.401   .     A
C179   H220    1.082   .     S
C179   N224    1.367   .     A
C180   H210    1.082   .     S
C180   N223    1.367   .     A
C180   C355    1.417   .     S
C181   N224    1.367   .     A
C181   H211    1.082   .     S
C182   H212    1.082   .     S
C182   N223    1.367   .     A
C182   C353    1.417   .     S
C183   O229    1.290   .     A
C183   C189    1.447   .     S
C183   O232    1.289   .     A
C184   O230    1.290   .     A
C184   O231    1.289   .     A
C184   C187    1.447   .     S
C185   C196    1.386   .     A
C185   C187    1.386   .     A
C185   H209    1.086   .     S
C186   C189    1.386   .     A
C186   H213    1.086   .     S
C186   C197    1.386   .     A
C187   C190    1.406   .     A
C188   O227    1.291   .     A
C188   C206    1.448   .     S
C188   O226    1.291   .     A
C189   C191    1.406   .     A
C190   C192    1.422   .     A
C191   C193    1.422   .     A
C192   C198    1.425   .     A
C192   C194    1.432   .     A
C193   C195    1.432   .     A
C193   C200    1.425   .     A
C194   C196    1.408   .     A
C194   C717    1.412   .     S
C195   C197    1.408   .     A
C195   C716    1.412   1_554 S
C196   C201    1.393   .     A
C197   C199    1.393   .     A
C198   I221    2.136   .     S
C198   C721    1.391   .     S
C199   H214    1.085   .     S
C199   C720    1.391   1_554 S
C200   I222    2.136   .     S
C200   C723    1.391   1_554 S
C201   H215    1.085   .     S
C201   C722    1.391   .     S
C202   H216    1.083   .     S
C202   C320    1.383   1_455 S
C203   H217    1.083   .     S
C203   C206    1.401   .     A
C203   C263    1.383   .     S
C204   C206    1.401   .     A
C204   H218    1.083   .     S
C204   C260    1.383   .     S
C205   H219    1.083   .     S
C205   C319    1.383   1_455 S
Cu207  O229    1.959   .     S
Cu207  O225    1.963   .     S
Cu207  Cu208   2.679   .     S
Cu207  O227    1.963   .     S
Cu207  N223    2.013   .     S
Cu207  O231    1.960   .     S
Cu208  O230    1.959   .     S
Cu208  O226    1.963   .     S
Cu208  O228    1.963   .     S
Cu208  N224    2.013   .     S
Cu208  O232    1.960   .     S
Br233  C248    1.934   .     S
Br234  C249    1.934   .     S
C235   O286    1.291   .     A
C235   C236    1.448   .     S
C235   O283    1.291   .     A
C236   C263    1.401   .     A
C236   C260    1.401   .     A
C237   H278    1.082   .     S
C237   N282    1.367   .     A
C238   H268    1.082   .     S
C238   N281    1.367   .     A
C238   C413    1.417   .     S
C239   N282    1.367   .     A
C239   H269    1.082   .     S
C240   H270    1.082   .     S
C240   N281    1.367   .     A
C240   C411    1.417   .     S
C241   O287    1.290   .     A
C241   C247    1.447   .     S
C241   O290    1.289   .     A
C242   O288    1.290   .     A
C242   O289    1.289   .     A
C242   C245    1.447   .     S
C243   C254    1.386   .     A
C243   C245    1.386   .     A
C243   H267    1.086   .     S
C244   C247    1.386   .     A
C244   H271    1.086   .     S
C244   C255    1.386   .     A
C245   C248    1.406   .     A
C246   O285    1.291   .     A
C246   C264    1.448   .     S
C246   O284    1.291   .     A
C247   C249    1.406   .     A
C248   C250    1.422   .     A
C249   C251    1.422   .     A
C250   C256    1.425   .     A
C250   C252    1.432   .     A
C251   C253    1.432   .     A
C251   C258    1.425   .     A
C252   C254    1.408   .     A
C252   C775    1.412   .     S
C253   C255    1.408   .     A
C253   C774    1.412   1_554 S
C254   C259    1.393   .     A
C255   C257    1.393   .     A
C256   I279    2.136   .     S
C256   C779    1.391   .     S
C257   H272    1.085   .     S
C257   C778    1.391   1_554 S
C258   I280    2.136   .     S
C258   C781    1.391   1_554 S
C259   H273    1.085   .     S
C259   C780    1.391   .     S
C260   H274    1.083   .     S
C261   H275    1.083   .     S
C261   C264    1.401   .     A
C261   C321    1.383   .     S
C262   C264    1.401   .     A
C262   H276    1.083   .     S
C262   C318    1.383   .     S
C263   H277    1.083   .     S
Cu265  O287    1.959   .     S
Cu265  O283    1.963   .     S
Cu265  Cu266   2.679   .     S
Cu265  O285    1.963   .     S
Cu265  N281    2.013   .     S
Cu265  O289    1.960   .     S
Cu266  O288    1.959   .     S
Cu266  O284    1.963   .     S
Cu266  O286    1.963   .     S
Cu266  N282    2.013   .     S
Cu266  O290    1.960   .     S
Br291  C306    1.934   .     S
Br292  C307    1.934   .     S
C293   O344    1.291   .     A
C293   C294    1.448   .     S
C293   O341    1.291   .     A
C294   C321    1.401   .     A
C294   C318    1.401   .     A
C295   H336    1.082   .     S
C295   N340    1.367   .     A
C296   H326    1.082   .     S
C296   N339    1.367   .     A
C296   C471    1.417   .     S
C297   N340    1.367   .     A
C297   H327    1.082   .     S
C298   H328    1.082   .     S
C298   N339    1.367   .     A
C298   C469    1.417   .     S
C299   O345    1.290   .     A
C299   C305    1.447   .     S
C299   O348    1.289   .     A
C300   O346    1.290   .     A
C300   O347    1.289   .     A
C300   C303    1.447   .     S
C301   C312    1.386   .     A
C301   C303    1.386   .     A
C301   H325    1.086   .     S
C302   C305    1.386   .     A
C302   H329    1.086   .     S
C302   C313    1.386   .     A
C303   C306    1.406   .     A
C304   O343    1.291   .     A
C304   C322    1.448   .     S
C304   O342    1.291   .     A
C305   C307    1.406   .     A
C306   C308    1.422   .     A
C307   C309    1.422   .     A
C308   C314    1.425   .     A
C308   C310    1.432   .     A
C309   C311    1.432   .     A
C309   C316    1.425   .     A
C310   C312    1.408   .     A
C310   C833    1.412   .     S
C311   C313    1.408   .     A
C311   C832    1.412   1_554 S
C312   C317    1.393   .     A
C313   C315    1.393   .     A
C314   I337    2.136   .     S
C314   C837    1.391   .     S
C315   H330    1.085   .     S
C315   C836    1.391   1_554 S
C316   I338    2.136   .     S
C316   C839    1.391   1_554 S
C317   H331    1.085   .     S
C317   C838    1.391   .     S
C318   H332    1.083   .     S
C319   H333    1.083   .     S
C319   C322    1.401   .     A
C319   C205    1.383   1_655 S
C320   C322    1.401   .     A
C320   H334    1.083   .     S
C320   C202    1.383   1_655 S
C321   H335    1.083   .     S
Cu323  O345    1.959   .     S
Cu323  O341    1.963   .     S
Cu323  Cu324   2.679   .     S
Cu323  O343    1.963   .     S
Cu323  N339    2.013   .     S
Cu323  O347    1.960   .     S
Cu324  O346    1.959   .     S
Cu324  O342    1.963   .     S
Cu324  O344    1.963   .     S
Cu324  N340    2.013   .     S
Cu324  O348    1.960   .     S
Br349  C364    1.934   .     S
Br350  C365    1.934   .     S
C351   O402    1.291   .     A
C351   C352    1.448   .     S
C351   O399    1.291   .     A
C352   C379    1.401   .     A
C352   C376    1.401   .     A
C353   H394    1.082   .     S
C353   N398    1.367   .     A
C354   H384    1.082   .     S
C354   N397    1.367   .     A
C354   C7      1.417   1_565 S
C355   N398    1.367   .     A
C355   H385    1.082   .     S
C356   H386    1.082   .     S
C356   N397    1.367   .     A
C356   C5      1.417   1_565 S
C357   O403    1.290   .     A
C357   C363    1.447   .     S
C357   O406    1.289   .     A
C358   O404    1.290   .     A
C358   O405    1.289   .     A
C358   C361    1.447   .     S
C359   C370    1.386   .     A
C359   C361    1.386   .     A
C359   H383    1.086   .     S
C360   C363    1.386   .     A
C360   H387    1.086   .     S
C360   C371    1.386   .     A
C361   C364    1.406   .     A
C362   O401    1.291   .     A
C362   C380    1.448   .     S
C362   O400    1.291   .     A
C363   C365    1.406   .     A
C364   C366    1.422   .     A
C365   C367    1.422   .     A
C366   C372    1.425   .     A
C366   C368    1.432   .     A
C367   C369    1.432   .     A
C367   C374    1.425   .     A
C368   C370    1.408   .     A
C368   C891    1.412   .     S
C369   C371    1.408   .     A
C369   C890    1.412   1_554 S
C370   C375    1.393   .     A
C371   C373    1.393   .     A
C372   I395    2.136   .     S
C372   C895    1.391   .     S
C373   H388    1.085   .     S
C373   C894    1.391   1_554 S
C374   I396    2.136   .     S
C374   C897    1.391   1_554 S
C375   H389    1.085   .     S
C375   C896    1.391   .     S
C376   H390    1.083   .     S
C376   C494    1.383   1_455 S
C377   H391    1.083   .     S
C377   C380    1.401   .     A
C377   C437    1.383   .     S
C378   C380    1.401   .     A
C378   H392    1.083   .     S
C378   C434    1.383   .     S
C379   H393    1.083   .     S
C379   C493    1.383   1_455 S
Cu381  O403    1.959   .     S
Cu381  O399    1.963   .     S
Cu381  Cu382   2.679   .     S
Cu381  O401    1.963   .     S
Cu381  N397    2.013   .     S
Cu381  O405    1.960   .     S
Cu382  O404    1.959   .     S
Cu382  O400    1.963   .     S
Cu382  O402    1.963   .     S
Cu382  N398    2.013   .     S
Cu382  O406    1.960   .     S
Br407  C422    1.934   .     S
Br408  C423    1.934   .     S
C409   O460    1.291   .     A
C409   C410    1.448   .     S
C409   O457    1.291   .     A
C410   C437    1.401   .     A
C410   C434    1.401   .     A
C411   H452    1.082   .     S
C411   N456    1.367   .     A
C412   H442    1.082   .     S
C412   N455    1.367   .     A
C412   C65     1.417   1_565 S
C413   N456    1.367   .     A
C413   H443    1.082   .     S
C414   H444    1.082   .     S
C414   N455    1.367   .     A
C414   C63     1.417   1_565 S
C415   O461    1.290   .     A
C415   C421    1.447   .     S
C415   O464    1.289   .     A
C416   O462    1.290   .     A
C416   O463    1.289   .     A
C416   C419    1.447   .     S
C417   C428    1.386   .     A
C417   C419    1.386   .     A
C417   H441    1.086   .     S
C418   C421    1.386   .     A
C418   H445    1.086   .     S
C418   C429    1.386   .     A
C419   C422    1.406   .     A
C420   O459    1.291   .     A
C420   C438    1.448   .     S
C420   O458    1.291   .     A
C421   C423    1.406   .     A
C422   C424    1.422   .     A
C423   C425    1.422   .     A
C424   C430    1.425   .     A
C424   C426    1.432   .     A
C425   C427    1.432   .     A
C425   C432    1.425   .     A
C426   C428    1.408   .     A
C426   C949    1.412   .     S
C427   C429    1.408   .     A
C427   C948    1.412   1_554 S
C428   C433    1.393   .     A
C429   C431    1.393   .     A
C430   I453    2.136   .     S
C430   C953    1.391   .     S
C431   H446    1.085   .     S
C431   C952    1.391   1_554 S
C432   I454    2.136   .     S
C432   C955    1.391   1_554 S
C433   H447    1.085   .     S
C433   C954    1.391   .     S
C434   H448    1.083   .     S
C435   H449    1.083   .     S
C435   C438    1.401   .     A
C435   C495    1.383   .     S
C436   C438    1.401   .     A
C436   H450    1.083   .     S
C436   C492    1.383   .     S
C437   H451    1.083   .     S
Cu439  O461    1.959   .     S
Cu439  O457    1.963   .     S
Cu439  Cu440   2.679   .     S
Cu439  O459    1.963   .     S
Cu439  N455    2.013   .     S
Cu439  O463    1.960   .     S
Cu440  O462    1.959   .     S
Cu440  O458    1.963   .     S
Cu440  O460    1.963   .     S
Cu440  N456    2.013   .     S
Cu440  O464    1.960   .     S
Br465  C480    1.934   .     S
Br466  C481    1.934   .     S
C467   O518    1.291   .     A
C467   C468    1.448   .     S
C467   O515    1.291   .     A
C468   C495    1.401   .     A
C468   C492    1.401   .     A
C469   H510    1.082   .     S
C469   N514    1.367   .     A
C470   H500    1.082   .     S
C470   N513    1.367   .     A
C470   C123    1.417   1_565 S
C471   N514    1.367   .     A
C471   H501    1.082   .     S
C472   H502    1.082   .     S
C472   N513    1.367   .     A
C472   C121    1.417   1_565 S
C473   O519    1.290   .     A
C473   C479    1.447   .     S
C473   O522    1.289   .     A
C474   O520    1.290   .     A
C474   O521    1.289   .     A
C474   C477    1.447   .     S
C475   C486    1.386   .     A
C475   C477    1.386   .     A
C475   H499    1.086   .     S
C476   C479    1.386   .     A
C476   H503    1.086   .     S
C476   C487    1.386   .     A
C477   C480    1.406   .     A
C478   O517    1.291   .     A
C478   C496    1.448   .     S
C478   O516    1.291   .     A
C479   C481    1.406   .     A
C480   C482    1.422   .     A
C481   C483    1.422   .     A
C482   C488    1.425   .     A
C482   C484    1.432   .     A
C483   C485    1.432   .     A
C483   C490    1.425   .     A
C484   C486    1.408   .     A
C484   C1007   1.412   .     S
C485   C487    1.408   .     A
C485   C1006   1.412   1_554 S
C486   C491    1.393   .     A
C487   C489    1.393   .     A
C488   I511    2.136   .     S
C488   C1011   1.391   .     S
C489   H504    1.085   .     S
C489   C1010   1.391   1_554 S
C490   I512    2.136   .     S
C490   C1013   1.391   1_554 S
C491   H505    1.085   .     S
C491   C1012   1.391   .     S
C492   H506    1.083   .     S
C493   H507    1.083   .     S
C493   C496    1.401   .     A
C493   C379    1.383   1_655 S
C494   C496    1.401   .     A
C494   H508    1.083   .     S
C494   C376    1.383   1_655 S
C495   H509    1.083   .     S
Cu497  O519    1.959   .     S
Cu497  O515    1.963   .     S
Cu497  Cu498   2.679   .     S
Cu497  O517    1.963   .     S
Cu497  N513    2.013   .     S
Cu497  O521    1.960   .     S
Cu498  O520    1.959   .     S
Cu498  O516    1.963   .     S
Cu498  O518    1.963   .     S
Cu498  N514    2.013   .     S
Cu498  O522    1.960   .     S
Br523  C538    1.934   .     S
Br524  C539    1.934   .     S
C525   O576    1.291   .     A
C525   C526    1.448   .     S
C525   O573    1.291   .     A
C526   C553    1.401   .     A
C526   C550    1.401   .     A
C527   H568    1.082   .     S
C527   N572    1.367   .     A
C527   C878    1.417   1_545 S
C528   H558    1.082   .     S
C528   N571    1.367   .     A
C528   C703    1.417   .     S
C529   N572    1.367   .     A
C529   H559    1.082   .     S
C529   C876    1.417   1_545 S
C530   H560    1.082   .     S
C530   N571    1.367   .     A
C530   C701    1.417   .     S
C531   O577    1.290   .     A
C531   C537    1.447   .     S
C531   O580    1.289   .     A
C532   O578    1.290   .     A
C532   O579    1.289   .     A
C532   C535    1.447   .     S
C533   C544    1.386   .     A
C533   C535    1.386   .     A
C533   H557    1.086   .     S
C534   C537    1.386   .     A
C534   H561    1.086   .     S
C534   C545    1.386   .     A
C535   C538    1.406   .     A
C536   O575    1.291   .     A
C536   C554    1.448   .     S
C536   O574    1.291   .     A
C537   C539    1.406   .     A
C538   C540    1.422   .     A
C539   C541    1.422   .     A
C540   C546    1.425   .     A
C540   C542    1.432   .     A
C541   C543    1.432   .     A
C541   C548    1.425   .     A
C542   C544    1.408   .     A
C542   C21     1.412   1_556 S
C543   C545    1.408   .     A
C544   C549    1.393   .     A
C545   C547    1.393   .     A
C546   I569    2.136   .     S
C546   C25     1.391   1_556 S
C547   H562    1.085   .     S
C548   I570    2.136   .     S
C549   H563    1.085   .     S
C549   C26     1.391   1_556 S
C550   H564    1.083   .     S
C550   C668    1.383   1_455 S
C551   H565    1.083   .     S
C551   C554    1.401   .     A
C551   C611    1.383   .     S
C552   C554    1.401   .     A
C552   H566    1.083   .     S
C552   C608    1.383   .     S
C553   H567    1.083   .     S
C553   C667    1.383   1_455 S
Cu555  O577    1.959   .     S
Cu555  O573    1.963   .     S
Cu555  Cu556   2.679   .     S
Cu555  O575    1.963   .     S
Cu555  N571    2.013   .     S
Cu555  O579    1.960   .     S
Cu556  O578    1.959   .     S
Cu556  O574    1.963   .     S
Cu556  O576    1.963   .     S
Cu556  N572    2.013   .     S
Cu556  O580    1.960   .     S
Br581  C596    1.934   .     S
Br582  C597    1.934   .     S
C583   O634    1.291   .     A
C583   C584    1.448   .     S
C583   O631    1.291   .     A
C584   C611    1.401   .     A
C584   C608    1.401   .     A
C585   H626    1.082   .     S
C585   N630    1.367   .     A
C585   C936    1.417   1_545 S
C586   H616    1.082   .     S
C586   N629    1.367   .     A
C586   C761    1.417   .     S
C587   N630    1.367   .     A
C587   H617    1.082   .     S
C587   C934    1.417   1_545 S
C588   H618    1.082   .     S
C588   N629    1.367   .     A
C588   C759    1.417   .     S
C589   O635    1.290   .     A
C589   C595    1.447   .     S
C589   O638    1.289   .     A
C590   O636    1.290   .     A
C590   O637    1.289   .     A
C590   C593    1.447   .     S
C591   C602    1.386   .     A
C591   C593    1.386   .     A
C591   H615    1.086   .     S
C592   C595    1.386   .     A
C592   H619    1.086   .     S
C592   C603    1.386   .     A
C593   C596    1.406   .     A
C594   O633    1.291   .     A
C594   C612    1.448   .     S
C594   O632    1.291   .     A
C595   C597    1.406   .     A
C596   C598    1.422   .     A
C597   C599    1.422   .     A
C598   C604    1.425   .     A
C598   C600    1.432   .     A
C599   C601    1.432   .     A
C599   C606    1.425   .     A
C600   C602    1.408   .     A
C600   C79     1.412   1_556 S
C601   C603    1.408   .     A
C602   C607    1.393   .     A
C603   C605    1.393   .     A
C604   I627    2.136   .     S
C604   C83     1.391   1_556 S
C605   H620    1.085   .     S
C606   I628    2.136   .     S
C607   H621    1.085   .     S
C607   C84     1.391   1_556 S
C608   H622    1.083   .     S
C609   H623    1.083   .     S
C609   C612    1.401   .     A
C609   C669    1.383   .     S
C610   C612    1.401   .     A
C610   H624    1.083   .     S
C610   C666    1.383   .     S
C611   H625    1.083   .     S
Cu613  O635    1.959   .     S
Cu613  O631    1.963   .     S
Cu613  Cu614   2.679   .     S
Cu613  O633    1.963   .     S
Cu613  N629    2.013   .     S
Cu613  O637    1.960   .     S
Cu614  O636    1.959   .     S
Cu614  O632    1.963   .     S
Cu614  O634    1.963   .     S
Cu614  N630    2.013   .     S
Cu614  O638    1.960   .     S
Br639  C654    1.934   .     S
Br640  C655    1.934   .     S
C641   O692    1.291   .     A
C641   C642    1.448   .     S
C641   O689    1.291   .     A
C642   C669    1.401   .     A
C642   C666    1.401   .     A
C643   H684    1.082   .     S
C643   N688    1.367   .     A
C643   C994    1.417   1_545 S
C644   H674    1.082   .     S
C644   N687    1.367   .     A
C644   C819    1.417   .     S
C645   N688    1.367   .     A
C645   H675    1.082   .     S
C645   C992    1.417   1_545 S
C646   H676    1.082   .     S
C646   N687    1.367   .     A
C646   C817    1.417   .     S
C647   O693    1.290   .     A
C647   C653    1.447   .     S
C647   O696    1.289   .     A
C648   O694    1.290   .     A
C648   O695    1.289   .     A
C648   C651    1.447   .     S
C649   C660    1.386   .     A
C649   C651    1.386   .     A
C649   H673    1.086   .     S
C650   C653    1.386   .     A
C650   H677    1.086   .     S
C650   C661    1.386   .     A
C651   C654    1.406   .     A
C652   O691    1.291   .     A
C652   C670    1.448   .     S
C652   O690    1.291   .     A
C653   C655    1.406   .     A
C654   C656    1.422   .     A
C655   C657    1.422   .     A
C656   C662    1.425   .     A
C656   C658    1.432   .     A
C657   C659    1.432   .     A
C657   C664    1.425   .     A
C658   C660    1.408   .     A
C658   C137    1.412   1_556 S
C659   C661    1.408   .     A
C660   C665    1.393   .     A
C661   C663    1.393   .     A
C662   I685    2.136   .     S
C662   C141    1.391   1_556 S
C663   H678    1.085   .     S
C664   I686    2.136   .     S
C665   H679    1.085   .     S
C665   C142    1.391   1_556 S
C666   H680    1.083   .     S
C667   H681    1.083   .     S
C667   C670    1.401   .     A
C667   C553    1.383   1_655 S
C668   C670    1.401   .     A
C668   H682    1.083   .     S
C668   C550    1.383   1_655 S
C669   H683    1.083   .     S
Cu671  O693    1.959   .     S
Cu671  O689    1.963   .     S
Cu671  Cu672   2.679   .     S
Cu671  O691    1.963   .     S
Cu671  N687    2.013   .     S
Cu671  O695    1.960   .     S
Cu672  O694    1.959   .     S
Cu672  O690    1.963   .     S
Cu672  O692    1.963   .     S
Cu672  N688    2.013   .     S
Cu672  O696    1.960   .     S
Br697  C712    1.934   .     S
Br698  C713    1.934   .     S
C699   O750    1.291   .     A
C699   C700    1.448   .     S
C699   O747    1.291   .     A
C700   C727    1.401   .     A
C700   C724    1.401   .     A
C701   H742    1.082   .     S
C701   N746    1.367   .     A
C702   H732    1.082   .     S
C702   N745    1.367   .     A
C702   C877    1.417   .     S
C703   N746    1.367   .     A
C703   H733    1.082   .     S
C704   H734    1.082   .     S
C704   N745    1.367   .     A
C704   C875    1.417   .     S
C705   O751    1.290   .     A
C705   C711    1.447   .     S
C705   O754    1.289   .     A
C706   O752    1.290   .     A
C706   O753    1.289   .     A
C706   C709    1.447   .     S
C707   C718    1.386   .     A
C707   C709    1.386   .     A
C707   H731    1.086   .     S
C708   C711    1.386   .     A
C708   H735    1.086   .     S
C708   C719    1.386   .     A
C709   C712    1.406   .     A
C710   O749    1.291   .     A
C710   C728    1.448   .     S
C710   O748    1.291   .     A
C711   C713    1.406   .     A
C712   C714    1.422   .     A
C713   C715    1.422   .     A
C714   C720    1.425   .     A
C714   C716    1.432   .     A
C715   C717    1.432   .     A
C715   C722    1.425   .     A
C716   C718    1.408   .     A
C716   C195    1.412   1_556 S
C717   C719    1.408   .     A
C718   C723    1.393   .     A
C719   C721    1.393   .     A
C720   I743    2.136   .     S
C720   C199    1.391   1_556 S
C721   H736    1.085   .     S
C722   I744    2.136   .     S
C723   H737    1.085   .     S
C723   C200    1.391   1_556 S
C724   H738    1.083   .     S
C724   C842    1.383   1_455 S
C725   H739    1.083   .     S
C725   C728    1.401   .     A
C725   C785    1.383   .     S
C726   C728    1.401   .     A
C726   H740    1.083   .     S
C726   C782    1.383   .     S
C727   H741    1.083   .     S
C727   C841    1.383   1_455 S
Cu729  O751    1.959   .     S
Cu729  O747    1.963   .     S
Cu729  Cu730   2.679   .     S
Cu729  O749    1.963   .     S
Cu729  N745    2.013   .     S
Cu729  O753    1.960   .     S
Cu730  O752    1.959   .     S
Cu730  O748    1.963   .     S
Cu730  O750    1.963   .     S
Cu730  N746    2.013   .     S
Cu730  O754    1.960   .     S
Br755  C770    1.934   .     S
Br756  C771    1.934   .     S
C757   O808    1.291   .     A
C757   C758    1.448   .     S
C757   O805    1.291   .     A
C758   C785    1.401   .     A
C758   C782    1.401   .     A
C759   H800    1.082   .     S
C759   N804    1.367   .     A
C760   H790    1.082   .     S
C760   N803    1.367   .     A
C760   C935    1.417   .     S
C761   N804    1.367   .     A
C761   H791    1.082   .     S
C762   H792    1.082   .     S
C762   N803    1.367   .     A
C762   C933    1.417   .     S
C763   O809    1.290   .     A
C763   C769    1.447   .     S
C763   O812    1.289   .     A
C764   O810    1.290   .     A
C764   O811    1.289   .     A
C764   C767    1.447   .     S
C765   C776    1.386   .     A
C765   C767    1.386   .     A
C765   H789    1.086   .     S
C766   C769    1.386   .     A
C766   H793    1.086   .     S
C766   C777    1.386   .     A
C767   C770    1.406   .     A
C768   O807    1.291   .     A
C768   C786    1.448   .     S
C768   O806    1.291   .     A
C769   C771    1.406   .     A
C770   C772    1.422   .     A
C771   C773    1.422   .     A
C772   C778    1.425   .     A
C772   C774    1.432   .     A
C773   C775    1.432   .     A
C773   C780    1.425   .     A
C774   C776    1.408   .     A
C774   C253    1.412   1_556 S
C775   C777    1.408   .     A
C776   C781    1.393   .     A
C777   C779    1.393   .     A
C778   I801    2.136   .     S
C778   C257    1.391   1_556 S
C779   H794    1.085   .     S
C780   I802    2.136   .     S
C781   H795    1.085   .     S
C781   C258    1.391   1_556 S
C782   H796    1.083   .     S
C783   H797    1.083   .     S
C783   C786    1.401   .     A
C783   C843    1.383   .     S
C784   C786    1.401   .     A
C784   H798    1.083   .     S
C784   C840    1.383   .     S
C785   H799    1.083   .     S
Cu787  O809    1.959   .     S
Cu787  O805    1.963   .     S
Cu787  Cu788   2.679   .     S
Cu787  O807    1.963   .     S
Cu787  N803    2.013   .     S
Cu787  O811    1.960   .     S
Cu788  O810    1.959   .     S
Cu788  O806    1.963   .     S
Cu788  O808    1.963   .     S
Cu788  N804    2.013   .     S
Cu788  O812    1.960   .     S
Br813  C828    1.934   .     S
Br814  C829    1.934   .     S
C815   O866    1.291   .     A
C815   C816    1.448   .     S
C815   O863    1.291   .     A
C816   C843    1.401   .     A
C816   C840    1.401   .     A
C817   H858    1.082   .     S
C817   N862    1.367   .     A
C818   H848    1.082   .     S
C818   N861    1.367   .     A
C818   C993    1.417   .     S
C819   N862    1.367   .     A
C819   H849    1.082   .     S
C820   H850    1.082   .     S
C820   N861    1.367   .     A
C820   C991    1.417   .     S
C821   O867    1.290   .     A
C821   C827    1.447   .     S
C821   O870    1.289   .     A
C822   O868    1.290   .     A
C822   O869    1.289   .     A
C822   C825    1.447   .     S
C823   C834    1.386   .     A
C823   C825    1.386   .     A
C823   H847    1.086   .     S
C824   C827    1.386   .     A
C824   H851    1.086   .     S
C824   C835    1.386   .     A
C825   C828    1.406   .     A
C826   O865    1.291   .     A
C826   C844    1.448   .     S
C826   O864    1.291   .     A
C827   C829    1.406   .     A
C828   C830    1.422   .     A
C829   C831    1.422   .     A
C830   C836    1.425   .     A
C830   C832    1.432   .     A
C831   C833    1.432   .     A
C831   C838    1.425   .     A
C832   C834    1.408   .     A
C832   C311    1.412   1_556 S
C833   C835    1.408   .     A
C834   C839    1.393   .     A
C835   C837    1.393   .     A
C836   I859    2.136   .     S
C836   C315    1.391   1_556 S
C837   H852    1.085   .     S
C838   I860    2.136   .     S
C839   H853    1.085   .     S
C839   C316    1.391   1_556 S
C840   H854    1.083   .     S
C841   H855    1.083   .     S
C841   C844    1.401   .     A
C841   C727    1.383   1_655 S
C842   C844    1.401   .     A
C842   H856    1.083   .     S
C842   C724    1.383   1_655 S
C843   H857    1.083   .     S
Cu845  O867    1.959   .     S
Cu845  O863    1.963   .     S
Cu845  Cu846   2.679   .     S
Cu845  O865    1.963   .     S
Cu845  N861    2.013   .     S
Cu845  O869    1.960   .     S
Cu846  O868    1.959   .     S
Cu846  O864    1.963   .     S
Cu846  O866    1.963   .     S
Cu846  N862    2.013   .     S
Cu846  O870    1.960   .     S
Br871  C886    1.934   .     S
Br872  C887    1.934   .     S
C873   O924    1.291   .     A
C873   C874    1.448   .     S
C873   O921    1.291   .     A
C874   C901    1.401   .     A
C874   C898    1.401   .     A
C875   H916    1.082   .     S
C875   N920    1.367   .     A
C876   H906    1.082   .     S
C876   N919    1.367   .     A
C876   C529    1.417   1_565 S
C877   N920    1.367   .     A
C877   H907    1.082   .     S
C878   H908    1.082   .     S
C878   N919    1.367   .     A
C878   C527    1.417   1_565 S
C879   O925    1.290   .     A
C879   C885    1.447   .     S
C879   O928    1.289   .     A
C880   O926    1.290   .     A
C880   O927    1.289   .     A
C880   C883    1.447   .     S
C881   C892    1.386   .     A
C881   C883    1.386   .     A
C881   H905    1.086   .     S
C882   C885    1.386   .     A
C882   H909    1.086   .     S
C882   C893    1.386   .     A
C883   C886    1.406   .     A
C884   O923    1.291   .     A
C884   C902    1.448   .     S
C884   O922    1.291   .     A
C885   C887    1.406   .     A
C886   C888    1.422   .     A
C887   C889    1.422   .     A
C888   C894    1.425   .     A
C888   C890    1.432   .     A
C889   C891    1.432   .     A
C889   C896    1.425   .     A
C890   C892    1.408   .     A
C890   C369    1.412   1_556 S
C891   C893    1.408   .     A
C892   C897    1.393   .     A
C893   C895    1.393   .     A
C894   I917    2.136   .     S
C894   C373    1.391   1_556 S
C895   H910    1.085   .     S
C896   I918    2.136   .     S
C897   H911    1.085   .     S
C897   C374    1.391   1_556 S
C898   H912    1.083   .     S
C898   C1016   1.383   1_455 S
C899   H913    1.083   .     S
C899   C902    1.401   .     A
C899   C959    1.383   .     S
C900   C902    1.401   .     A
C900   H914    1.083   .     S
C900   C956    1.383   .     S
C901   H915    1.083   .     S
C901   C1015   1.383   1_455 S
Cu903  O925    1.959   .     S
Cu903  O921    1.963   .     S
Cu903  Cu904   2.679   .     S
Cu903  O923    1.963   .     S
Cu903  N919    2.013   .     S
Cu903  O927    1.960   .     S
Cu904  O926    1.959   .     S
Cu904  O922    1.963   .     S
Cu904  O924    1.963   .     S
Cu904  N920    2.013   .     S
Cu904  O928    1.960   .     S
Br929  C944    1.934   .     S
Br930  C945    1.934   .     S
C931   O982    1.291   .     A
C931   C932    1.448   .     S
C931   O979    1.291   .     A
C932   C959    1.401   .     A
C932   C956    1.401   .     A
C933   H974    1.082   .     S
C933   N978    1.367   .     A
C934   H964    1.082   .     S
C934   N977    1.367   .     A
C934   C587    1.417   1_565 S
C935   N978    1.367   .     A
C935   H965    1.082   .     S
C936   H966    1.082   .     S
C936   N977    1.367   .     A
C936   C585    1.417   1_565 S
C937   O983    1.290   .     A
C937   C943    1.447   .     S
C937   O986    1.289   .     A
C938   O984    1.290   .     A
C938   O985    1.289   .     A
C938   C941    1.447   .     S
C939   C950    1.386   .     A
C939   C941    1.386   .     A
C939   H963    1.086   .     S
C940   C943    1.386   .     A
C940   H967    1.086   .     S
C940   C951    1.386   .     A
C941   C944    1.406   .     A
C942   O981    1.291   .     A
C942   C960    1.448   .     S
C942   O980    1.291   .     A
C943   C945    1.406   .     A
C944   C946    1.422   .     A
C945   C947    1.422   .     A
C946   C952    1.425   .     A
C946   C948    1.432   .     A
C947   C949    1.432   .     A
C947   C954    1.425   .     A
C948   C950    1.408   .     A
C948   C427    1.412   1_556 S
C949   C951    1.408   .     A
C950   C955    1.393   .     A
C951   C953    1.393   .     A
C952   I975    2.136   .     S
C952   C431    1.391   1_556 S
C953   H968    1.085   .     S
C954   I976    2.136   .     S
C955   H969    1.085   .     S
C955   C432    1.391   1_556 S
C956   H970    1.083   .     S
C957   H971    1.083   .     S
C957   C960    1.401   .     A
C957   C1017   1.383   .     S
C958   C960    1.401   .     A
C958   H972    1.083   .     S
C958   C1014   1.383   .     S
C959   H973    1.083   .     S
Cu961  O983    1.959   .     S
Cu961  O979    1.963   .     S
Cu961  Cu962   2.679   .     S
Cu961  O981    1.963   .     S
Cu961  N977    2.013   .     S
Cu961  O985    1.960   .     S
Cu962  O984    1.959   .     S
Cu962  O980    1.963   .     S
Cu962  O982    1.963   .     S
Cu962  N978    2.013   .     S
Cu962  O986    1.960   .     S
Br987  C1002   1.934   .     S
Br988  C1003   1.934   .     S
C989   O1040   1.291   .     A
C989   C990    1.448   .     S
C989   O1037   1.291   .     A
C990   C1017   1.401   .     A
C990   C1014   1.401   .     A
C991   H1032   1.082   .     S
C991   N1036   1.367   .     A
C992   H1022   1.082   .     S
C992   N1035   1.367   .     A
C992   C645    1.417   1_565 S
C993   N1036   1.367   .     A
C993   H1023   1.082   .     S
C994   H1024   1.082   .     S
C994   N1035   1.367   .     A
C994   C643    1.417   1_565 S
C995   O1041   1.290   .     A
C995   C1001   1.447   .     S
C995   O1044   1.289   .     A
C996   O1042   1.290   .     A
C996   O1043   1.289   .     A
C996   C999    1.447   .     S
C997   C1008   1.386   .     A
C997   C999    1.386   .     A
C997   H1021   1.086   .     S
C998   C1001   1.386   .     A
C998   H1025   1.086   .     S
C998   C1009   1.386   .     A
C999   C1002   1.406   .     A
C1000  O1039   1.291   .     A
C1000  C1018   1.448   .     S
C1000  O1038   1.291   .     A
C1001  C1003   1.406   .     A
C1002  C1004   1.422   .     A
C1003  C1005   1.422   .     A
C1004  C1010   1.425   .     A
C1004  C1006   1.432   .     A
C1005  C1007   1.432   .     A
C1005  C1012   1.425   .     A
C1006  C1008   1.408   .     A
C1006  C485    1.412   1_556 S
C1007  C1009   1.408   .     A
C1008  C1013   1.393   .     A
C1009  C1011   1.393   .     A
C1010  I1033   2.136   .     S
C1010  C489    1.391   1_556 S
C1011  H1026   1.085   .     S
C1012  I1034   2.136   .     S
C1013  H1027   1.085   .     S
C1013  C490    1.391   1_556 S
C1014  H1028   1.083   .     S
C1015  H1029   1.083   .     S
C1015  C1018   1.401   .     A
C1015  C901    1.383   1_655 S
C1016  C1018   1.401   .     A
C1016  H1030   1.083   .     S
C1016  C898    1.383   1_655 S
C1017  H1031   1.083   .     S
Cu1019 O1041   1.959   .     S
Cu1019 O1037   1.963   .     S
Cu1019 Cu1020  2.679   .     S
Cu1019 O1039   1.963   .     S
Cu1019 N1035   2.013   .     S
Cu1019 O1043   1.960   .     S
Cu1020 O1042   1.959   .     S
Cu1020 O1038   1.963   .     S
Cu1020 O1040   1.963   .     S
Cu1020 N1036   2.013   .     S
Cu1020 O1044   1.960   .     S
