data_str_m2_o1_o18_pcu_sym.211
_audit_creation_date              2020-01-03
_audit_creation_method            'Materials Studio'
_symmetry_space_group_name_H-M    'P1'
_symmetry_Int_Tables_number       1
_symmetry_cell_setting            triclinic
loop_
_symmetry_equiv_pos_as_xyz
  x,y,z
_cell_length_a                    29.0166
_cell_length_b                    32.7496
_cell_length_c                    32.0279
_cell_angle_alpha                 87.1493
_cell_angle_beta                  70.3423
_cell_angle_gamma                 90.7771
loop_
_atom_site_label
_atom_site_type_symbol
_atom_site_fract_x
_atom_site_fract_y
_atom_site_fract_z
_atom_site_U_iso_or_equiv
_atom_site_adp_type
_atom_site_occupancy
C1     C     0.00058   0.08760   0.24779   0.00000  Uiso   1.00
C2     C     0.33259   0.24563   0.25275   0.00000  Uiso   1.00
C3     C     0.19514   0.20227   0.04660   0.00000  Uiso   1.00
C4     C     0.13970   0.21520   0.45830   0.00000  Uiso   1.00
C5     C     0.24433   0.19560   0.02112   0.00000  Uiso   1.00
C6     C     0.09419   0.19458   0.47890   0.00000  Uiso   1.00
C7     C     0.28991   0.02041   0.25343   0.00000  Uiso   1.00
C8     C     0.04281   0.31295   0.24802   0.00000  Uiso   1.00
C9     C     0.28815   0.31122   0.26137   0.00000  Uiso   1.00
C10    C     0.04456   0.02168   0.24017   0.00000  Uiso   1.00
C11    C     0.33196   0.29032   0.25555   0.00000  Uiso   1.00
C12    C     0.00086   0.04276   0.24609   0.00000  Uiso   1.00
C13    C     0.18088   0.13939   0.27697   0.00000  Uiso   1.00
C14    C     0.15264   0.19386   0.22319   0.00000  Uiso   1.00
C15    C     0.13173   0.13924   0.27684   0.00000  Uiso   1.00
C16    C     0.20192   0.19362   0.22270   0.00000  Uiso   1.00
C17    C     0.30428   0.16712   0.33607   0.00000  Uiso   1.00
C18    C     0.02870   0.16812   0.16442   0.00000  Uiso   1.00
C19    C     0.28561   0.17083   0.38526   0.00000  Uiso   1.00
C20    C     0.04724   0.17132   0.11581   0.00000  Uiso   1.00
C21    C     0.29747   0.16338   0.45649   0.00000  Uiso   1.00
C22    C     0.04796   0.14889   0.04430   0.00000  Uiso   1.00
C23    C     0.31587   0.16136   0.41036   0.00000  Uiso   1.00
C24    C     0.02880   0.14497   0.09141   0.00000  Uiso   1.00
C25    C     0.23648   0.18106   0.40858   0.00000  Uiso   1.00
C26    C     0.08589   0.19930   0.09355   0.00000  Uiso   1.00
C27    C     0.22332   0.19402   0.45310   0.00000  Uiso   1.00
C28    C     0.10915   0.19760   0.04786   0.00000  Uiso   1.00
C29    C     0.25609   0.18602   0.47641   0.00000  Uiso   1.00
C30    C     0.08224   0.18069   0.02362   0.00000  Uiso   1.00
C31    C     0.17597   0.20773   0.47774   0.00000  Uiso   1.00
C32    C     0.16002   0.20574   0.02499   0.00000  Uiso   1.00
Cu33   Cu    0.04689   0.16667   0.25000   0.00000  Uiso   1.00
Cu34   Cu    0.28645   0.16666   0.25000   0.00000  Uiso   1.00
N35    N     0.11736   0.16668   0.24999   0.00000  Uiso   1.00
N36    N     0.21597   0.16666   0.25001   0.00000  Uiso   1.00
O37    O     0.03958   0.10655   0.25000   0.00000  Uiso   1.00
O38    O     0.29375   0.22678   0.25000   0.00000  Uiso   1.00
O39    O     0.29372   0.10654   0.25000   0.00000  Uiso   1.00
O40    O     0.03961   0.22679   0.25000   0.00000  Uiso   1.00
O41    O     0.01852   0.16668   0.31491   0.00000  Uiso   1.00
O42    O     0.31481   0.16666   0.18508   0.00000  Uiso   1.00
O43    O     0.27267   0.16667   0.31492   0.00000  Uiso   1.00
O44    O     0.06067   0.16667   0.18508   0.00000  Uiso   1.00
O45    O     0.28108   0.19594   0.03961   0.00000  Uiso   1.00
H46    H     0.27181   0.21410   0.06478   0.00000  Uiso   1.00
O47    O     0.06056   0.19006   0.45768   0.00000  Uiso   1.00
H48    H     0.07430   0.20249   0.42707   0.00000  Uiso   1.00
Cl49   Cl    0.09004   0.24625   0.11672   0.00000  Uiso   1.00
Cl50   Cl    0.19051   0.16353   0.38821   0.00000  Uiso   1.00
O51    O     0.32561   0.11649   0.11408   0.00000  Uiso   1.00
H52    H     0.30677   0.10954   0.09457   0.00000  Uiso   1.00
O53    O     0.02767   0.14511   0.39155   0.00000  Uiso   1.00
H54    H     0.04961   0.16838   0.37526   0.00000  Uiso   1.00
O55    O     0.31513   0.13886   0.48328   0.00000  Uiso   1.00
H56    H     0.33317   0.11636   0.46584   0.00000  Uiso   1.00
O57    O     0.04353   0.11760   0.01861   0.00000  Uiso   1.00
H58    H     0.03280   0.09201   0.03747   0.00000  Uiso   1.00
O59    O     0.18016   0.20009   0.09240   0.00000  Uiso   1.00
H60    H     0.20289   0.18313   0.10243   0.00000  Uiso   1.00
O61    O     0.14896   0.23834   0.41891   0.00000  Uiso   1.00
H62    H     0.18137   0.25252   0.41163   0.00000  Uiso   1.00
O63    O     0.24878   0.04069   0.25258   0.00000  Uiso   1.00
H64    H     0.22635   0.02178   0.24491   0.00000  Uiso   1.00
O65    O     0.08499   0.29497   0.24914   0.00000  Uiso   1.00
H66    H     0.07624   0.27870   0.27785   0.00000  Uiso   1.00
Cl67   Cl    0.22963   0.28622   0.28496   0.00000  Uiso   1.00
Cl68   Cl    0.10368   0.04576   0.22035   0.00000  Uiso   1.00
Cl69   Cl    0.19623   0.10328   0.31219   0.00000  Uiso   1.00
Cl70   Cl    0.13765   0.23029   0.18885   0.00000  Uiso   1.00
Cl71   Cl    0.08965   0.10252   0.31188   0.00000  Uiso   1.00
Cl72   Cl    0.24513   0.22848   0.18556   0.00000  Uiso   1.00
C73    C     0.33392   0.08760   0.24779   0.00000  Uiso   1.00
C74    C     0.66592   0.24563   0.25275   0.00000  Uiso   1.00
C75    C     0.52848   0.20227   0.04660   0.00000  Uiso   1.00
C76    C     0.47304   0.21520   0.45830   0.00000  Uiso   1.00
C77    C     0.57767   0.19560   0.02112   0.00000  Uiso   1.00
C78    C     0.42753   0.19458   0.47890   0.00000  Uiso   1.00
C79    C     0.62324   0.02041   0.25343   0.00000  Uiso   1.00
C80    C     0.37614   0.31295   0.24802   0.00000  Uiso   1.00
C81    C     0.62149   0.31122   0.26137   0.00000  Uiso   1.00
C82    C     0.37790   0.02168   0.24017   0.00000  Uiso   1.00
C83    C     0.66529   0.29032   0.25555   0.00000  Uiso   1.00
C84    C     0.33419   0.04276   0.24609   0.00000  Uiso   1.00
C85    C     0.51421   0.13939   0.27697   0.00000  Uiso   1.00
C86    C     0.48598   0.19386   0.22319   0.00000  Uiso   1.00
C87    C     0.46506   0.13924   0.27684   0.00000  Uiso   1.00
C88    C     0.53526   0.19362   0.22270   0.00000  Uiso   1.00
C89    C     0.63761   0.16712   0.33607   0.00000  Uiso   1.00
C90    C     0.36203   0.16812   0.16442   0.00000  Uiso   1.00
C91    C     0.61895   0.17083   0.38526   0.00000  Uiso   1.00
C92    C     0.38057   0.17132   0.11581   0.00000  Uiso   1.00
C93    C     0.63080   0.16338   0.45649   0.00000  Uiso   1.00
C94    C     0.38129   0.14889   0.04430   0.00000  Uiso   1.00
C95    C     0.64920   0.16136   0.41036   0.00000  Uiso   1.00
C96    C     0.36213   0.14497   0.09141   0.00000  Uiso   1.00
C97    C     0.56981   0.18106   0.40858   0.00000  Uiso   1.00
C98    C     0.41922   0.19930   0.09355   0.00000  Uiso   1.00
C99    C     0.55665   0.19402   0.45310   0.00000  Uiso   1.00
C100   C     0.44249   0.19760   0.04786   0.00000  Uiso   1.00
C101   C     0.58942   0.18602   0.47641   0.00000  Uiso   1.00
C102   C     0.41558   0.18069   0.02362   0.00000  Uiso   1.00
C103   C     0.50930   0.20773   0.47774   0.00000  Uiso   1.00
C104   C     0.49336   0.20574   0.02499   0.00000  Uiso   1.00
Cu105  Cu    0.38022   0.16667   0.25000   0.00000  Uiso   1.00
Cu106  Cu    0.61978   0.16666   0.25000   0.00000  Uiso   1.00
N107   N     0.45069   0.16668   0.24999   0.00000  Uiso   1.00
N108   N     0.54931   0.16666   0.25001   0.00000  Uiso   1.00
O109   O     0.37291   0.10655   0.25000   0.00000  Uiso   1.00
O110   O     0.62709   0.22678   0.25000   0.00000  Uiso   1.00
O111   O     0.62706   0.10654   0.25000   0.00000  Uiso   1.00
O112   O     0.37294   0.22679   0.25000   0.00000  Uiso   1.00
O113   O     0.35186   0.16668   0.31491   0.00000  Uiso   1.00
O114   O     0.64814   0.16666   0.18508   0.00000  Uiso   1.00
O115   O     0.60600   0.16667   0.31492   0.00000  Uiso   1.00
O116   O     0.39400   0.16667   0.18508   0.00000  Uiso   1.00
O117   O     0.61441   0.19594   0.03961   0.00000  Uiso   1.00
H118   H     0.60515   0.21410   0.06478   0.00000  Uiso   1.00
O119   O     0.39389   0.19006   0.45768   0.00000  Uiso   1.00
H120   H     0.40764   0.20249   0.42707   0.00000  Uiso   1.00
Cl121  Cl    0.42337   0.24625   0.11672   0.00000  Uiso   1.00
Cl122  Cl    0.52385   0.16353   0.38821   0.00000  Uiso   1.00
O123   O     0.65894   0.11649   0.11408   0.00000  Uiso   1.00
H124   H     0.64010   0.10954   0.09457   0.00000  Uiso   1.00
O125   O     0.36101   0.14511   0.39155   0.00000  Uiso   1.00
H126   H     0.38295   0.16838   0.37526   0.00000  Uiso   1.00
O127   O     0.64846   0.13886   0.48328   0.00000  Uiso   1.00
H128   H     0.66651   0.11636   0.46584   0.00000  Uiso   1.00
O129   O     0.37686   0.11760   0.01861   0.00000  Uiso   1.00
H130   H     0.36613   0.09201   0.03747   0.00000  Uiso   1.00
O131   O     0.51349   0.20009   0.09240   0.00000  Uiso   1.00
H132   H     0.53623   0.18313   0.10243   0.00000  Uiso   1.00
O133   O     0.48229   0.23834   0.41891   0.00000  Uiso   1.00
H134   H     0.51471   0.25252   0.41163   0.00000  Uiso   1.00
O135   O     0.58212   0.04069   0.25258   0.00000  Uiso   1.00
H136   H     0.55968   0.02178   0.24491   0.00000  Uiso   1.00
O137   O     0.41832   0.29497   0.24914   0.00000  Uiso   1.00
H138   H     0.40958   0.27870   0.27785   0.00000  Uiso   1.00
Cl139  Cl    0.56297   0.28622   0.28496   0.00000  Uiso   1.00
Cl140  Cl    0.43701   0.04576   0.22035   0.00000  Uiso   1.00
Cl141  Cl    0.52957   0.10328   0.31219   0.00000  Uiso   1.00
Cl142  Cl    0.47098   0.23029   0.18885   0.00000  Uiso   1.00
Cl143  Cl    0.42298   0.10252   0.31188   0.00000  Uiso   1.00
Cl144  Cl    0.57846   0.22848   0.18556   0.00000  Uiso   1.00
C145   C     0.66725   0.08760   0.24779   0.00000  Uiso   1.00
C146   C     0.99925   0.24563   0.25275   0.00000  Uiso   1.00
C147   C     0.86181   0.20227   0.04660   0.00000  Uiso   1.00
C148   C     0.80637   0.21520   0.45830   0.00000  Uiso   1.00
C149   C     0.91100   0.19560   0.02112   0.00000  Uiso   1.00
C150   C     0.76086   0.19458   0.47890   0.00000  Uiso   1.00
C151   C     0.95657   0.02041   0.25343   0.00000  Uiso   1.00
C152   C     0.70948   0.31295   0.24802   0.00000  Uiso   1.00
C153   C     0.95482   0.31122   0.26137   0.00000  Uiso   1.00
C154   C     0.71123   0.02168   0.24017   0.00000  Uiso   1.00
C155   C     0.99863   0.29032   0.25555   0.00000  Uiso   1.00
C156   C     0.66752   0.04276   0.24609   0.00000  Uiso   1.00
C157   C     0.84755   0.13939   0.27697   0.00000  Uiso   1.00
C158   C     0.81931   0.19386   0.22319   0.00000  Uiso   1.00
C159   C     0.79840   0.13924   0.27684   0.00000  Uiso   1.00
C160   C     0.86859   0.19362   0.22270   0.00000  Uiso   1.00
C161   C     0.97094   0.16712   0.33607   0.00000  Uiso   1.00
C162   C     0.69536   0.16812   0.16442   0.00000  Uiso   1.00
C163   C     0.95228   0.17083   0.38526   0.00000  Uiso   1.00
C164   C     0.71390   0.17132   0.11581   0.00000  Uiso   1.00
C165   C     0.96413   0.16338   0.45649   0.00000  Uiso   1.00
C166   C     0.71462   0.14889   0.04430   0.00000  Uiso   1.00
C167   C     0.98253   0.16136   0.41036   0.00000  Uiso   1.00
C168   C     0.69546   0.14497   0.09141   0.00000  Uiso   1.00
C169   C     0.90314   0.18106   0.40858   0.00000  Uiso   1.00
C170   C     0.75255   0.19930   0.09355   0.00000  Uiso   1.00
C171   C     0.88998   0.19402   0.45310   0.00000  Uiso   1.00
C172   C     0.77582   0.19760   0.04786   0.00000  Uiso   1.00
C173   C     0.92276   0.18602   0.47641   0.00000  Uiso   1.00
C174   C     0.74891   0.18069   0.02362   0.00000  Uiso   1.00
C175   C     0.84264   0.20773   0.47774   0.00000  Uiso   1.00
C176   C     0.82669   0.20574   0.02499   0.00000  Uiso   1.00
Cu177  Cu    0.71355   0.16667   0.25000   0.00000  Uiso   1.00
Cu178  Cu    0.95311   0.16666   0.25000   0.00000  Uiso   1.00
N179   N     0.78403   0.16668   0.24999   0.00000  Uiso   1.00
N180   N     0.88264   0.16666   0.25001   0.00000  Uiso   1.00
O181   O     0.70625   0.10655   0.25000   0.00000  Uiso   1.00
O182   O     0.96042   0.22678   0.25000   0.00000  Uiso   1.00
O183   O     0.96039   0.10654   0.25000   0.00000  Uiso   1.00
O184   O     0.70628   0.22679   0.25000   0.00000  Uiso   1.00
O185   O     0.68519   0.16668   0.31491   0.00000  Uiso   1.00
O186   O     0.98148   0.16666   0.18508   0.00000  Uiso   1.00
O187   O     0.93933   0.16667   0.31492   0.00000  Uiso   1.00
O188   O     0.72733   0.16667   0.18508   0.00000  Uiso   1.00
O189   O     0.94775   0.19594   0.03961   0.00000  Uiso   1.00
H190   H     0.93848   0.21410   0.06478   0.00000  Uiso   1.00
O191   O     0.72723   0.19006   0.45768   0.00000  Uiso   1.00
H192   H     0.74097   0.20249   0.42707   0.00000  Uiso   1.00
Cl193  Cl    0.75671   0.24625   0.11672   0.00000  Uiso   1.00
Cl194  Cl    0.85718   0.16353   0.38821   0.00000  Uiso   1.00
O195   O     0.99227   0.11649   0.11408   0.00000  Uiso   1.00
H196   H     0.97343   0.10954   0.09457   0.00000  Uiso   1.00
O197   O     0.69434   0.14511   0.39155   0.00000  Uiso   1.00
H198   H     0.71628   0.16838   0.37526   0.00000  Uiso   1.00
O199   O     0.98179   0.13886   0.48328   0.00000  Uiso   1.00
H200   H     0.99984   0.11636   0.46584   0.00000  Uiso   1.00
O201   O     0.71020   0.11760   0.01861   0.00000  Uiso   1.00
H202   H     0.69946   0.09201   0.03747   0.00000  Uiso   1.00
O203   O     0.84682   0.20009   0.09240   0.00000  Uiso   1.00
H204   H     0.86956   0.18313   0.10243   0.00000  Uiso   1.00
O205   O     0.81563   0.23834   0.41891   0.00000  Uiso   1.00
H206   H     0.84804   0.25252   0.41163   0.00000  Uiso   1.00
O207   O     0.91545   0.04069   0.25258   0.00000  Uiso   1.00
H208   H     0.89301   0.02178   0.24491   0.00000  Uiso   1.00
O209   O     0.75165   0.29497   0.24914   0.00000  Uiso   1.00
H210   H     0.74291   0.27870   0.27785   0.00000  Uiso   1.00
Cl211  Cl    0.89630   0.28622   0.28496   0.00000  Uiso   1.00
Cl212  Cl    0.77034   0.04576   0.22035   0.00000  Uiso   1.00
Cl213  Cl    0.86290   0.10328   0.31219   0.00000  Uiso   1.00
Cl214  Cl    0.80431   0.23029   0.18885   0.00000  Uiso   1.00
Cl215  Cl    0.75631   0.10252   0.31188   0.00000  Uiso   1.00
Cl216  Cl    0.91179   0.22848   0.18556   0.00000  Uiso   1.00
C217   C     0.00058   0.42093   0.24779   0.00000  Uiso   1.00
C218   C     0.33259   0.57897   0.25275   0.00000  Uiso   1.00
C219   C     0.19514   0.53561   0.04660   0.00000  Uiso   1.00
C220   C     0.13970   0.54854   0.45830   0.00000  Uiso   1.00
C221   C     0.24433   0.52894   0.02112   0.00000  Uiso   1.00
C222   C     0.09419   0.52791   0.47890   0.00000  Uiso   1.00
C223   C     0.28991   0.35374   0.25343   0.00000  Uiso   1.00
C224   C     0.04281   0.64628   0.24802   0.00000  Uiso   1.00
C225   C     0.28815   0.64455   0.26137   0.00000  Uiso   1.00
C226   C     0.04456   0.35502   0.24017   0.00000  Uiso   1.00
C227   C     0.33196   0.62365   0.25555   0.00000  Uiso   1.00
C228   C     0.00086   0.37609   0.24609   0.00000  Uiso   1.00
C229   C     0.18088   0.47273   0.27697   0.00000  Uiso   1.00
C230   C     0.15264   0.52719   0.22319   0.00000  Uiso   1.00
C231   C     0.13173   0.47257   0.27684   0.00000  Uiso   1.00
C232   C     0.20192   0.52695   0.22270   0.00000  Uiso   1.00
C233   C     0.30428   0.50045   0.33607   0.00000  Uiso   1.00
C234   C     0.02870   0.50145   0.16442   0.00000  Uiso   1.00
C235   C     0.28561   0.50416   0.38526   0.00000  Uiso   1.00
C236   C     0.04724   0.50465   0.11581   0.00000  Uiso   1.00
C237   C     0.29747   0.49671   0.45649   0.00000  Uiso   1.00
C238   C     0.04796   0.48223   0.04430   0.00000  Uiso   1.00
C239   C     0.31587   0.49469   0.41036   0.00000  Uiso   1.00
C240   C     0.02880   0.47830   0.09141   0.00000  Uiso   1.00
C241   C     0.23648   0.51439   0.40858   0.00000  Uiso   1.00
C242   C     0.08589   0.53263   0.09355   0.00000  Uiso   1.00
C243   C     0.22332   0.52736   0.45310   0.00000  Uiso   1.00
C244   C     0.10915   0.53094   0.04786   0.00000  Uiso   1.00
C245   C     0.25609   0.51935   0.47641   0.00000  Uiso   1.00
C246   C     0.08224   0.51402   0.02362   0.00000  Uiso   1.00
C247   C     0.17597   0.54106   0.47774   0.00000  Uiso   1.00
C248   C     0.16002   0.53907   0.02499   0.00000  Uiso   1.00
Cu249  Cu    0.04689   0.50001   0.25000   0.00000  Uiso   1.00
Cu250  Cu    0.28645   0.49999   0.25000   0.00000  Uiso   1.00
N251   N     0.11736   0.50001   0.24999   0.00000  Uiso   1.00
N252   N     0.21597   0.49999   0.25001   0.00000  Uiso   1.00
O253   O     0.03958   0.43989   0.25000   0.00000  Uiso   1.00
O254   O     0.29375   0.56011   0.25000   0.00000  Uiso   1.00
O255   O     0.29372   0.43988   0.25000   0.00000  Uiso   1.00
O256   O     0.03961   0.56012   0.25000   0.00000  Uiso   1.00
O257   O     0.01852   0.50001   0.31491   0.00000  Uiso   1.00
O258   O     0.31481   0.49999   0.18508   0.00000  Uiso   1.00
O259   O     0.27267   0.50000   0.31492   0.00000  Uiso   1.00
O260   O     0.06067   0.50000   0.18508   0.00000  Uiso   1.00
O261   O     0.28108   0.52927   0.03961   0.00000  Uiso   1.00
H262   H     0.27181   0.54743   0.06478   0.00000  Uiso   1.00
O263   O     0.06056   0.52339   0.45768   0.00000  Uiso   1.00
H264   H     0.07430   0.53582   0.42707   0.00000  Uiso   1.00
Cl265  Cl    0.09004   0.57958   0.11672   0.00000  Uiso   1.00
Cl266  Cl    0.19051   0.49687   0.38821   0.00000  Uiso   1.00
O267   O     0.32561   0.44983   0.11408   0.00000  Uiso   1.00
H268   H     0.30677   0.44287   0.09457   0.00000  Uiso   1.00
O269   O     0.02767   0.47844   0.39155   0.00000  Uiso   1.00
H270   H     0.04961   0.50172   0.37526   0.00000  Uiso   1.00
O271   O     0.31513   0.47219   0.48328   0.00000  Uiso   1.00
H272   H     0.33317   0.44969   0.46584   0.00000  Uiso   1.00
O273   O     0.04353   0.45093   0.01861   0.00000  Uiso   1.00
H274   H     0.03280   0.42535   0.03747   0.00000  Uiso   1.00
O275   O     0.18016   0.53342   0.09240   0.00000  Uiso   1.00
H276   H     0.20289   0.51647   0.10243   0.00000  Uiso   1.00
O277   O     0.14896   0.57168   0.41891   0.00000  Uiso   1.00
H278   H     0.18137   0.58585   0.41163   0.00000  Uiso   1.00
O279   O     0.24878   0.37402   0.25258   0.00000  Uiso   1.00
H280   H     0.22635   0.35511   0.24491   0.00000  Uiso   1.00
O281   O     0.08499   0.62830   0.24914   0.00000  Uiso   1.00
H282   H     0.07624   0.61203   0.27785   0.00000  Uiso   1.00
Cl283  Cl    0.22963   0.61956   0.28496   0.00000  Uiso   1.00
Cl284  Cl    0.10368   0.37909   0.22035   0.00000  Uiso   1.00
Cl285  Cl    0.19623   0.43661   0.31219   0.00000  Uiso   1.00
Cl286  Cl    0.13765   0.56362   0.18885   0.00000  Uiso   1.00
Cl287  Cl    0.08965   0.43585   0.31188   0.00000  Uiso   1.00
Cl288  Cl    0.24513   0.56182   0.18556   0.00000  Uiso   1.00
C289   C     0.33392   0.42093   0.24779   0.00000  Uiso   1.00
C290   C     0.66592   0.57897   0.25275   0.00000  Uiso   1.00
C291   C     0.52848   0.53561   0.04660   0.00000  Uiso   1.00
C292   C     0.47304   0.54854   0.45830   0.00000  Uiso   1.00
C293   C     0.57767   0.52894   0.02112   0.00000  Uiso   1.00
C294   C     0.42753   0.52791   0.47890   0.00000  Uiso   1.00
C295   C     0.62324   0.35374   0.25343   0.00000  Uiso   1.00
C296   C     0.37614   0.64628   0.24802   0.00000  Uiso   1.00
C297   C     0.62149   0.64455   0.26137   0.00000  Uiso   1.00
C298   C     0.37790   0.35502   0.24017   0.00000  Uiso   1.00
C299   C     0.66529   0.62365   0.25555   0.00000  Uiso   1.00
C300   C     0.33419   0.37609   0.24609   0.00000  Uiso   1.00
C301   C     0.51421   0.47273   0.27697   0.00000  Uiso   1.00
C302   C     0.48598   0.52719   0.22319   0.00000  Uiso   1.00
C303   C     0.46506   0.47257   0.27684   0.00000  Uiso   1.00
C304   C     0.53526   0.52695   0.22270   0.00000  Uiso   1.00
C305   C     0.63761   0.50045   0.33607   0.00000  Uiso   1.00
C306   C     0.36203   0.50145   0.16442   0.00000  Uiso   1.00
C307   C     0.61895   0.50416   0.38526   0.00000  Uiso   1.00
C308   C     0.38057   0.50465   0.11581   0.00000  Uiso   1.00
C309   C     0.63080   0.49671   0.45649   0.00000  Uiso   1.00
C310   C     0.38129   0.48223   0.04430   0.00000  Uiso   1.00
C311   C     0.64920   0.49469   0.41036   0.00000  Uiso   1.00
C312   C     0.36213   0.47830   0.09141   0.00000  Uiso   1.00
C313   C     0.56981   0.51439   0.40858   0.00000  Uiso   1.00
C314   C     0.41922   0.53263   0.09355   0.00000  Uiso   1.00
C315   C     0.55665   0.52736   0.45310   0.00000  Uiso   1.00
C316   C     0.44249   0.53094   0.04786   0.00000  Uiso   1.00
C317   C     0.58942   0.51935   0.47641   0.00000  Uiso   1.00
C318   C     0.41558   0.51402   0.02362   0.00000  Uiso   1.00
C319   C     0.50930   0.54106   0.47774   0.00000  Uiso   1.00
C320   C     0.49336   0.53907   0.02499   0.00000  Uiso   1.00
Cu321  Cu    0.38022   0.50001   0.25000   0.00000  Uiso   1.00
Cu322  Cu    0.61978   0.49999   0.25000   0.00000  Uiso   1.00
N323   N     0.45069   0.50001   0.24999   0.00000  Uiso   1.00
N324   N     0.54931   0.49999   0.25001   0.00000  Uiso   1.00
O325   O     0.37291   0.43989   0.25000   0.00000  Uiso   1.00
O326   O     0.62709   0.56011   0.25000   0.00000  Uiso   1.00
O327   O     0.62706   0.43988   0.25000   0.00000  Uiso   1.00
O328   O     0.37294   0.56012   0.25000   0.00000  Uiso   1.00
O329   O     0.35186   0.50001   0.31491   0.00000  Uiso   1.00
O330   O     0.64814   0.49999   0.18508   0.00000  Uiso   1.00
O331   O     0.60600   0.50000   0.31492   0.00000  Uiso   1.00
O332   O     0.39400   0.50000   0.18508   0.00000  Uiso   1.00
O333   O     0.61441   0.52927   0.03961   0.00000  Uiso   1.00
H334   H     0.60515   0.54743   0.06478   0.00000  Uiso   1.00
O335   O     0.39389   0.52339   0.45768   0.00000  Uiso   1.00
H336   H     0.40764   0.53582   0.42707   0.00000  Uiso   1.00
Cl337  Cl    0.42337   0.57958   0.11672   0.00000  Uiso   1.00
Cl338  Cl    0.52385   0.49687   0.38821   0.00000  Uiso   1.00
O339   O     0.65894   0.44983   0.11408   0.00000  Uiso   1.00
H340   H     0.64010   0.44287   0.09457   0.00000  Uiso   1.00
O341   O     0.36101   0.47844   0.39155   0.00000  Uiso   1.00
H342   H     0.38295   0.50172   0.37526   0.00000  Uiso   1.00
O343   O     0.64846   0.47219   0.48328   0.00000  Uiso   1.00
H344   H     0.66651   0.44969   0.46584   0.00000  Uiso   1.00
O345   O     0.37686   0.45093   0.01861   0.00000  Uiso   1.00
H346   H     0.36613   0.42535   0.03747   0.00000  Uiso   1.00
O347   O     0.51349   0.53342   0.09240   0.00000  Uiso   1.00
H348   H     0.53623   0.51647   0.10243   0.00000  Uiso   1.00
O349   O     0.48229   0.57168   0.41891   0.00000  Uiso   1.00
H350   H     0.51471   0.58585   0.41163   0.00000  Uiso   1.00
O351   O     0.58212   0.37402   0.25258   0.00000  Uiso   1.00
H352   H     0.55968   0.35511   0.24491   0.00000  Uiso   1.00
O353   O     0.41832   0.62830   0.24914   0.00000  Uiso   1.00
H354   H     0.40958   0.61203   0.27785   0.00000  Uiso   1.00
Cl355  Cl    0.56297   0.61956   0.28496   0.00000  Uiso   1.00
Cl356  Cl    0.43701   0.37909   0.22035   0.00000  Uiso   1.00
Cl357  Cl    0.52957   0.43661   0.31219   0.00000  Uiso   1.00
Cl358  Cl    0.47098   0.56362   0.18885   0.00000  Uiso   1.00
Cl359  Cl    0.42298   0.43585   0.31188   0.00000  Uiso   1.00
Cl360  Cl    0.57846   0.56182   0.18556   0.00000  Uiso   1.00
C361   C     0.66725   0.42093   0.24779   0.00000  Uiso   1.00
C362   C     0.99925   0.57897   0.25275   0.00000  Uiso   1.00
C363   C     0.86181   0.53561   0.04660   0.00000  Uiso   1.00
C364   C     0.80637   0.54854   0.45830   0.00000  Uiso   1.00
C365   C     0.91100   0.52894   0.02112   0.00000  Uiso   1.00
C366   C     0.76086   0.52791   0.47890   0.00000  Uiso   1.00
C367   C     0.95657   0.35374   0.25343   0.00000  Uiso   1.00
C368   C     0.70948   0.64628   0.24802   0.00000  Uiso   1.00
C369   C     0.95482   0.64455   0.26137   0.00000  Uiso   1.00
C370   C     0.71123   0.35502   0.24017   0.00000  Uiso   1.00
C371   C     0.99863   0.62365   0.25555   0.00000  Uiso   1.00
C372   C     0.66752   0.37609   0.24609   0.00000  Uiso   1.00
C373   C     0.84755   0.47273   0.27697   0.00000  Uiso   1.00
C374   C     0.81931   0.52719   0.22319   0.00000  Uiso   1.00
C375   C     0.79840   0.47257   0.27684   0.00000  Uiso   1.00
C376   C     0.86859   0.52695   0.22270   0.00000  Uiso   1.00
C377   C     0.97094   0.50045   0.33607   0.00000  Uiso   1.00
C378   C     0.69536   0.50145   0.16442   0.00000  Uiso   1.00
C379   C     0.95228   0.50416   0.38526   0.00000  Uiso   1.00
C380   C     0.71390   0.50465   0.11581   0.00000  Uiso   1.00
C381   C     0.96413   0.49671   0.45649   0.00000  Uiso   1.00
C382   C     0.71462   0.48223   0.04430   0.00000  Uiso   1.00
C383   C     0.98253   0.49469   0.41036   0.00000  Uiso   1.00
C384   C     0.69546   0.47830   0.09141   0.00000  Uiso   1.00
C385   C     0.90314   0.51439   0.40858   0.00000  Uiso   1.00
C386   C     0.75255   0.53263   0.09355   0.00000  Uiso   1.00
C387   C     0.88998   0.52736   0.45310   0.00000  Uiso   1.00
C388   C     0.77582   0.53094   0.04786   0.00000  Uiso   1.00
C389   C     0.92276   0.51935   0.47641   0.00000  Uiso   1.00
C390   C     0.74891   0.51402   0.02362   0.00000  Uiso   1.00
C391   C     0.84264   0.54106   0.47774   0.00000  Uiso   1.00
C392   C     0.82669   0.53907   0.02499   0.00000  Uiso   1.00
Cu393  Cu    0.71355   0.50001   0.25000   0.00000  Uiso   1.00
Cu394  Cu    0.95311   0.49999   0.25000   0.00000  Uiso   1.00
N395   N     0.78403   0.50001   0.24999   0.00000  Uiso   1.00
N396   N     0.88264   0.49999   0.25001   0.00000  Uiso   1.00
O397   O     0.70625   0.43989   0.25000   0.00000  Uiso   1.00
O398   O     0.96042   0.56011   0.25000   0.00000  Uiso   1.00
O399   O     0.96039   0.43988   0.25000   0.00000  Uiso   1.00
O400   O     0.70628   0.56012   0.25000   0.00000  Uiso   1.00
O401   O     0.68519   0.50001   0.31491   0.00000  Uiso   1.00
O402   O     0.98148   0.49999   0.18508   0.00000  Uiso   1.00
O403   O     0.93933   0.50000   0.31492   0.00000  Uiso   1.00
O404   O     0.72733   0.50000   0.18508   0.00000  Uiso   1.00
O405   O     0.94775   0.52927   0.03961   0.00000  Uiso   1.00
H406   H     0.93848   0.54743   0.06478   0.00000  Uiso   1.00
O407   O     0.72723   0.52339   0.45768   0.00000  Uiso   1.00
H408   H     0.74097   0.53582   0.42707   0.00000  Uiso   1.00
Cl409  Cl    0.75671   0.57958   0.11672   0.00000  Uiso   1.00
Cl410  Cl    0.85718   0.49687   0.38821   0.00000  Uiso   1.00
O411   O     0.99227   0.44983   0.11408   0.00000  Uiso   1.00
H412   H     0.97343   0.44287   0.09457   0.00000  Uiso   1.00
O413   O     0.69434   0.47844   0.39155   0.00000  Uiso   1.00
H414   H     0.71628   0.50172   0.37526   0.00000  Uiso   1.00
O415   O     0.98179   0.47219   0.48328   0.00000  Uiso   1.00
H416   H     0.99984   0.44969   0.46584   0.00000  Uiso   1.00
O417   O     0.71020   0.45093   0.01861   0.00000  Uiso   1.00
H418   H     0.69946   0.42535   0.03747   0.00000  Uiso   1.00
O419   O     0.84682   0.53342   0.09240   0.00000  Uiso   1.00
H420   H     0.86956   0.51647   0.10243   0.00000  Uiso   1.00
O421   O     0.81563   0.57168   0.41891   0.00000  Uiso   1.00
H422   H     0.84804   0.58585   0.41163   0.00000  Uiso   1.00
O423   O     0.91545   0.37402   0.25258   0.00000  Uiso   1.00
H424   H     0.89301   0.35511   0.24491   0.00000  Uiso   1.00
O425   O     0.75165   0.62830   0.24914   0.00000  Uiso   1.00
H426   H     0.74291   0.61203   0.27785   0.00000  Uiso   1.00
Cl427  Cl    0.89630   0.61956   0.28496   0.00000  Uiso   1.00
Cl428  Cl    0.77034   0.37909   0.22035   0.00000  Uiso   1.00
Cl429  Cl    0.86290   0.43661   0.31219   0.00000  Uiso   1.00
Cl430  Cl    0.80431   0.56362   0.18885   0.00000  Uiso   1.00
Cl431  Cl    0.75631   0.43585   0.31188   0.00000  Uiso   1.00
Cl432  Cl    0.91179   0.56182   0.18556   0.00000  Uiso   1.00
C433   C     0.00058   0.75426   0.24779   0.00000  Uiso   1.00
C434   C     0.33259   0.91230   0.25275   0.00000  Uiso   1.00
C435   C     0.19514   0.86894   0.04660   0.00000  Uiso   1.00
C436   C     0.13970   0.88187   0.45830   0.00000  Uiso   1.00
C437   C     0.24433   0.86227   0.02112   0.00000  Uiso   1.00
C438   C     0.09419   0.86124   0.47890   0.00000  Uiso   1.00
C439   C     0.28991   0.68708   0.25343   0.00000  Uiso   1.00
C440   C     0.04281   0.97961   0.24802   0.00000  Uiso   1.00
C441   C     0.28815   0.97789   0.26137   0.00000  Uiso   1.00
C442   C     0.04456   0.68835   0.24017   0.00000  Uiso   1.00
C443   C     0.33196   0.95699   0.25555   0.00000  Uiso   1.00
C444   C     0.00086   0.70943   0.24609   0.00000  Uiso   1.00
C445   C     0.18088   0.80606   0.27697   0.00000  Uiso   1.00
C446   C     0.15264   0.86052   0.22319   0.00000  Uiso   1.00
C447   C     0.13173   0.80591   0.27684   0.00000  Uiso   1.00
C448   C     0.20192   0.86028   0.22270   0.00000  Uiso   1.00
C449   C     0.30428   0.83379   0.33607   0.00000  Uiso   1.00
C450   C     0.02870   0.83478   0.16442   0.00000  Uiso   1.00
C451   C     0.28561   0.83750   0.38526   0.00000  Uiso   1.00
C452   C     0.04724   0.83798   0.11581   0.00000  Uiso   1.00
C453   C     0.29747   0.83004   0.45649   0.00000  Uiso   1.00
C454   C     0.04796   0.81556   0.04430   0.00000  Uiso   1.00
C455   C     0.31587   0.82803   0.41036   0.00000  Uiso   1.00
C456   C     0.02880   0.81164   0.09141   0.00000  Uiso   1.00
C457   C     0.23648   0.84773   0.40858   0.00000  Uiso   1.00
C458   C     0.08589   0.86596   0.09355   0.00000  Uiso   1.00
C459   C     0.22332   0.86069   0.45310   0.00000  Uiso   1.00
C460   C     0.10915   0.86427   0.04786   0.00000  Uiso   1.00
C461   C     0.25609   0.85268   0.47641   0.00000  Uiso   1.00
C462   C     0.08224   0.84736   0.02362   0.00000  Uiso   1.00
C463   C     0.17597   0.87440   0.47774   0.00000  Uiso   1.00
C464   C     0.16002   0.87240   0.02499   0.00000  Uiso   1.00
Cu465  Cu    0.04689   0.83334   0.25000   0.00000  Uiso   1.00
Cu466  Cu    0.28645   0.83333   0.25000   0.00000  Uiso   1.00
N467   N     0.11736   0.83334   0.24999   0.00000  Uiso   1.00
N468   N     0.21597   0.83332   0.25001   0.00000  Uiso   1.00
O469   O     0.03958   0.77322   0.25000   0.00000  Uiso   1.00
O470   O     0.29375   0.89345   0.25000   0.00000  Uiso   1.00
O471   O     0.29372   0.77321   0.25000   0.00000  Uiso   1.00
O472   O     0.03961   0.89346   0.25000   0.00000  Uiso   1.00
O473   O     0.01852   0.83334   0.31491   0.00000  Uiso   1.00
O474   O     0.31481   0.83332   0.18508   0.00000  Uiso   1.00
O475   O     0.27267   0.83333   0.31492   0.00000  Uiso   1.00
O476   O     0.06067   0.83333   0.18508   0.00000  Uiso   1.00
O477   O     0.28108   0.86260   0.03961   0.00000  Uiso   1.00
H478   H     0.27181   0.88076   0.06478   0.00000  Uiso   1.00
O479   O     0.06056   0.85672   0.45768   0.00000  Uiso   1.00
H480   H     0.07430   0.86916   0.42707   0.00000  Uiso   1.00
Cl481  Cl    0.09004   0.91292   0.11672   0.00000  Uiso   1.00
Cl482  Cl    0.19051   0.83020   0.38821   0.00000  Uiso   1.00
O483   O     0.32561   0.78316   0.11408   0.00000  Uiso   1.00
H484   H     0.30677   0.77621   0.09457   0.00000  Uiso   1.00
O485   O     0.02767   0.81177   0.39155   0.00000  Uiso   1.00
H486   H     0.04961   0.83505   0.37526   0.00000  Uiso   1.00
O487   O     0.31513   0.80553   0.48328   0.00000  Uiso   1.00
H488   H     0.33317   0.78302   0.46584   0.00000  Uiso   1.00
O489   O     0.04353   0.78427   0.01861   0.00000  Uiso   1.00
H490   H     0.03280   0.75868   0.03747   0.00000  Uiso   1.00
O491   O     0.18016   0.86676   0.09240   0.00000  Uiso   1.00
H492   H     0.20289   0.84980   0.10243   0.00000  Uiso   1.00
O493   O     0.14896   0.90501   0.41891   0.00000  Uiso   1.00
H494   H     0.18137   0.91918   0.41163   0.00000  Uiso   1.00
O495   O     0.24878   0.70736   0.25258   0.00000  Uiso   1.00
H496   H     0.22635   0.68844   0.24491   0.00000  Uiso   1.00
O497   O     0.08499   0.96163   0.24914   0.00000  Uiso   1.00
H498   H     0.07624   0.94537   0.27785   0.00000  Uiso   1.00
Cl499  Cl    0.22963   0.95289   0.28496   0.00000  Uiso   1.00
Cl500  Cl    0.10368   0.71242   0.22035   0.00000  Uiso   1.00
Cl501  Cl    0.19623   0.76995   0.31219   0.00000  Uiso   1.00
Cl502  Cl    0.13765   0.89696   0.18885   0.00000  Uiso   1.00
Cl503  Cl    0.08965   0.76918   0.31188   0.00000  Uiso   1.00
Cl504  Cl    0.24513   0.89515   0.18556   0.00000  Uiso   1.00
C505   C     0.33392   0.75426   0.24779   0.00000  Uiso   1.00
C506   C     0.66592   0.91230   0.25275   0.00000  Uiso   1.00
C507   C     0.52848   0.86894   0.04660   0.00000  Uiso   1.00
C508   C     0.47304   0.88187   0.45830   0.00000  Uiso   1.00
C509   C     0.57767   0.86227   0.02112   0.00000  Uiso   1.00
C510   C     0.42753   0.86124   0.47890   0.00000  Uiso   1.00
C511   C     0.62324   0.68708   0.25343   0.00000  Uiso   1.00
C512   C     0.37614   0.97961   0.24802   0.00000  Uiso   1.00
C513   C     0.62149   0.97789   0.26137   0.00000  Uiso   1.00
C514   C     0.37790   0.68835   0.24017   0.00000  Uiso   1.00
C515   C     0.66529   0.95699   0.25555   0.00000  Uiso   1.00
C516   C     0.33419   0.70943   0.24609   0.00000  Uiso   1.00
C517   C     0.51421   0.80606   0.27697   0.00000  Uiso   1.00
C518   C     0.48598   0.86052   0.22319   0.00000  Uiso   1.00
C519   C     0.46506   0.80591   0.27684   0.00000  Uiso   1.00
C520   C     0.53526   0.86028   0.22270   0.00000  Uiso   1.00
C521   C     0.63761   0.83379   0.33607   0.00000  Uiso   1.00
C522   C     0.36203   0.83478   0.16442   0.00000  Uiso   1.00
C523   C     0.61895   0.83750   0.38526   0.00000  Uiso   1.00
C524   C     0.38057   0.83798   0.11581   0.00000  Uiso   1.00
C525   C     0.63080   0.83004   0.45649   0.00000  Uiso   1.00
C526   C     0.38129   0.81556   0.04430   0.00000  Uiso   1.00
C527   C     0.64920   0.82803   0.41036   0.00000  Uiso   1.00
C528   C     0.36213   0.81164   0.09141   0.00000  Uiso   1.00
C529   C     0.56981   0.84773   0.40858   0.00000  Uiso   1.00
C530   C     0.41922   0.86596   0.09355   0.00000  Uiso   1.00
C531   C     0.55665   0.86069   0.45310   0.00000  Uiso   1.00
C532   C     0.44249   0.86427   0.04786   0.00000  Uiso   1.00
C533   C     0.58942   0.85268   0.47641   0.00000  Uiso   1.00
C534   C     0.41558   0.84736   0.02362   0.00000  Uiso   1.00
C535   C     0.50930   0.87440   0.47774   0.00000  Uiso   1.00
C536   C     0.49336   0.87240   0.02499   0.00000  Uiso   1.00
Cu537  Cu    0.38022   0.83334   0.25000   0.00000  Uiso   1.00
Cu538  Cu    0.61978   0.83333   0.25000   0.00000  Uiso   1.00
N539   N     0.45069   0.83334   0.24999   0.00000  Uiso   1.00
N540   N     0.54931   0.83332   0.25001   0.00000  Uiso   1.00
O541   O     0.37291   0.77322   0.25000   0.00000  Uiso   1.00
O542   O     0.62709   0.89345   0.25000   0.00000  Uiso   1.00
O543   O     0.62706   0.77321   0.25000   0.00000  Uiso   1.00
O544   O     0.37294   0.89346   0.25000   0.00000  Uiso   1.00
O545   O     0.35186   0.83334   0.31491   0.00000  Uiso   1.00
O546   O     0.64814   0.83332   0.18508   0.00000  Uiso   1.00
O547   O     0.60600   0.83333   0.31492   0.00000  Uiso   1.00
O548   O     0.39400   0.83333   0.18508   0.00000  Uiso   1.00
O549   O     0.61441   0.86260   0.03961   0.00000  Uiso   1.00
H550   H     0.60515   0.88076   0.06478   0.00000  Uiso   1.00
O551   O     0.39389   0.85672   0.45768   0.00000  Uiso   1.00
H552   H     0.40764   0.86916   0.42707   0.00000  Uiso   1.00
Cl553  Cl    0.42337   0.91292   0.11672   0.00000  Uiso   1.00
Cl554  Cl    0.52385   0.83020   0.38821   0.00000  Uiso   1.00
O555   O     0.65894   0.78316   0.11408   0.00000  Uiso   1.00
H556   H     0.64010   0.77621   0.09457   0.00000  Uiso   1.00
O557   O     0.36101   0.81177   0.39155   0.00000  Uiso   1.00
H558   H     0.38295   0.83505   0.37526   0.00000  Uiso   1.00
O559   O     0.64846   0.80553   0.48328   0.00000  Uiso   1.00
H560   H     0.66651   0.78302   0.46584   0.00000  Uiso   1.00
O561   O     0.37686   0.78427   0.01861   0.00000  Uiso   1.00
H562   H     0.36613   0.75868   0.03747   0.00000  Uiso   1.00
O563   O     0.51349   0.86676   0.09240   0.00000  Uiso   1.00
H564   H     0.53623   0.84980   0.10243   0.00000  Uiso   1.00
O565   O     0.48229   0.90501   0.41891   0.00000  Uiso   1.00
H566   H     0.51471   0.91918   0.41163   0.00000  Uiso   1.00
O567   O     0.58212   0.70736   0.25258   0.00000  Uiso   1.00
H568   H     0.55968   0.68844   0.24491   0.00000  Uiso   1.00
O569   O     0.41832   0.96163   0.24914   0.00000  Uiso   1.00
H570   H     0.40958   0.94537   0.27785   0.00000  Uiso   1.00
Cl571  Cl    0.56297   0.95289   0.28496   0.00000  Uiso   1.00
Cl572  Cl    0.43701   0.71242   0.22035   0.00000  Uiso   1.00
Cl573  Cl    0.52957   0.76995   0.31219   0.00000  Uiso   1.00
Cl574  Cl    0.47098   0.89696   0.18885   0.00000  Uiso   1.00
Cl575  Cl    0.42298   0.76918   0.31188   0.00000  Uiso   1.00
Cl576  Cl    0.57846   0.89515   0.18556   0.00000  Uiso   1.00
C577   C     0.66725   0.75426   0.24779   0.00000  Uiso   1.00
C578   C     0.99925   0.91230   0.25275   0.00000  Uiso   1.00
C579   C     0.86181   0.86894   0.04660   0.00000  Uiso   1.00
C580   C     0.80637   0.88187   0.45830   0.00000  Uiso   1.00
C581   C     0.91100   0.86227   0.02112   0.00000  Uiso   1.00
C582   C     0.76086   0.86124   0.47890   0.00000  Uiso   1.00
C583   C     0.95657   0.68708   0.25343   0.00000  Uiso   1.00
C584   C     0.70948   0.97961   0.24802   0.00000  Uiso   1.00
C585   C     0.95482   0.97789   0.26137   0.00000  Uiso   1.00
C586   C     0.71123   0.68835   0.24017   0.00000  Uiso   1.00
C587   C     0.99863   0.95699   0.25555   0.00000  Uiso   1.00
C588   C     0.66752   0.70943   0.24609   0.00000  Uiso   1.00
C589   C     0.84755   0.80606   0.27697   0.00000  Uiso   1.00
C590   C     0.81931   0.86052   0.22319   0.00000  Uiso   1.00
C591   C     0.79840   0.80591   0.27684   0.00000  Uiso   1.00
C592   C     0.86859   0.86028   0.22270   0.00000  Uiso   1.00
C593   C     0.97094   0.83379   0.33607   0.00000  Uiso   1.00
C594   C     0.69536   0.83478   0.16442   0.00000  Uiso   1.00
C595   C     0.95228   0.83750   0.38526   0.00000  Uiso   1.00
C596   C     0.71390   0.83798   0.11581   0.00000  Uiso   1.00
C597   C     0.96413   0.83004   0.45649   0.00000  Uiso   1.00
C598   C     0.71462   0.81556   0.04430   0.00000  Uiso   1.00
C599   C     0.98253   0.82803   0.41036   0.00000  Uiso   1.00
C600   C     0.69546   0.81164   0.09141   0.00000  Uiso   1.00
C601   C     0.90314   0.84773   0.40858   0.00000  Uiso   1.00
C602   C     0.75255   0.86596   0.09355   0.00000  Uiso   1.00
C603   C     0.88998   0.86069   0.45310   0.00000  Uiso   1.00
C604   C     0.77582   0.86427   0.04786   0.00000  Uiso   1.00
C605   C     0.92276   0.85268   0.47641   0.00000  Uiso   1.00
C606   C     0.74891   0.84736   0.02362   0.00000  Uiso   1.00
C607   C     0.84264   0.87440   0.47774   0.00000  Uiso   1.00
C608   C     0.82669   0.87240   0.02499   0.00000  Uiso   1.00
Cu609  Cu    0.71355   0.83334   0.25000   0.00000  Uiso   1.00
Cu610  Cu    0.95311   0.83333   0.25000   0.00000  Uiso   1.00
N611   N     0.78403   0.83334   0.24999   0.00000  Uiso   1.00
N612   N     0.88264   0.83332   0.25001   0.00000  Uiso   1.00
O613   O     0.70625   0.77322   0.25000   0.00000  Uiso   1.00
O614   O     0.96042   0.89345   0.25000   0.00000  Uiso   1.00
O615   O     0.96039   0.77321   0.25000   0.00000  Uiso   1.00
O616   O     0.70628   0.89346   0.25000   0.00000  Uiso   1.00
O617   O     0.68519   0.83334   0.31491   0.00000  Uiso   1.00
O618   O     0.98148   0.83332   0.18508   0.00000  Uiso   1.00
O619   O     0.93933   0.83333   0.31492   0.00000  Uiso   1.00
O620   O     0.72733   0.83333   0.18508   0.00000  Uiso   1.00
O621   O     0.94775   0.86260   0.03961   0.00000  Uiso   1.00
H622   H     0.93848   0.88076   0.06478   0.00000  Uiso   1.00
O623   O     0.72723   0.85672   0.45768   0.00000  Uiso   1.00
H624   H     0.74097   0.86916   0.42707   0.00000  Uiso   1.00
Cl625  Cl    0.75671   0.91292   0.11672   0.00000  Uiso   1.00
Cl626  Cl    0.85718   0.83020   0.38821   0.00000  Uiso   1.00
O627   O     0.99227   0.78316   0.11408   0.00000  Uiso   1.00
H628   H     0.97343   0.77621   0.09457   0.00000  Uiso   1.00
O629   O     0.69434   0.81177   0.39155   0.00000  Uiso   1.00
H630   H     0.71628   0.83505   0.37526   0.00000  Uiso   1.00
O631   O     0.98179   0.80553   0.48328   0.00000  Uiso   1.00
H632   H     0.99984   0.78302   0.46584   0.00000  Uiso   1.00
O633   O     0.71020   0.78427   0.01861   0.00000  Uiso   1.00
H634   H     0.69946   0.75868   0.03747   0.00000  Uiso   1.00
O635   O     0.84682   0.86676   0.09240   0.00000  Uiso   1.00
H636   H     0.86956   0.84980   0.10243   0.00000  Uiso   1.00
O637   O     0.81563   0.90501   0.41891   0.00000  Uiso   1.00
H638   H     0.84804   0.91918   0.41163   0.00000  Uiso   1.00
O639   O     0.91545   0.70736   0.25258   0.00000  Uiso   1.00
H640   H     0.89301   0.68844   0.24491   0.00000  Uiso   1.00
O641   O     0.75165   0.96163   0.24914   0.00000  Uiso   1.00
H642   H     0.74291   0.94537   0.27785   0.00000  Uiso   1.00
Cl643  Cl    0.89630   0.95289   0.28496   0.00000  Uiso   1.00
Cl644  Cl    0.77034   0.71242   0.22035   0.00000  Uiso   1.00
Cl645  Cl    0.86290   0.76995   0.31219   0.00000  Uiso   1.00
Cl646  Cl    0.80431   0.89696   0.18885   0.00000  Uiso   1.00
Cl647  Cl    0.75631   0.76918   0.31188   0.00000  Uiso   1.00
Cl648  Cl    0.91179   0.89515   0.18556   0.00000  Uiso   1.00
C649   C     0.00058   0.08760   0.74779   0.00000  Uiso   1.00
C650   C     0.33259   0.24563   0.75275   0.00000  Uiso   1.00
C651   C     0.19514   0.20227   0.54660   0.00000  Uiso   1.00
C652   C     0.13970   0.21520   0.95830   0.00000  Uiso   1.00
C653   C     0.24433   0.19560   0.52112   0.00000  Uiso   1.00
C654   C     0.09419   0.19458   0.97890   0.00000  Uiso   1.00
C655   C     0.28991   0.02041   0.75343   0.00000  Uiso   1.00
C656   C     0.04281   0.31295   0.74802   0.00000  Uiso   1.00
C657   C     0.28815   0.31122   0.76137   0.00000  Uiso   1.00
C658   C     0.04456   0.02168   0.74017   0.00000  Uiso   1.00
C659   C     0.33196   0.29032   0.75555   0.00000  Uiso   1.00
C660   C     0.00086   0.04276   0.74609   0.00000  Uiso   1.00
C661   C     0.18088   0.13939   0.77697   0.00000  Uiso   1.00
C662   C     0.15264   0.19386   0.72319   0.00000  Uiso   1.00
C663   C     0.13173   0.13924   0.77684   0.00000  Uiso   1.00
C664   C     0.20192   0.19362   0.72270   0.00000  Uiso   1.00
C665   C     0.30428   0.16712   0.83607   0.00000  Uiso   1.00
C666   C     0.02870   0.16812   0.66442   0.00000  Uiso   1.00
C667   C     0.28561   0.17083   0.88526   0.00000  Uiso   1.00
C668   C     0.04724   0.17132   0.61581   0.00000  Uiso   1.00
C669   C     0.29747   0.16338   0.95649   0.00000  Uiso   1.00
C670   C     0.04796   0.14889   0.54430   0.00000  Uiso   1.00
C671   C     0.31587   0.16136   0.91036   0.00000  Uiso   1.00
C672   C     0.02880   0.14497   0.59141   0.00000  Uiso   1.00
C673   C     0.23648   0.18106   0.90858   0.00000  Uiso   1.00
C674   C     0.08589   0.19930   0.59355   0.00000  Uiso   1.00
C675   C     0.22332   0.19402   0.95310   0.00000  Uiso   1.00
C676   C     0.10915   0.19760   0.54786   0.00000  Uiso   1.00
C677   C     0.25609   0.18602   0.97641   0.00000  Uiso   1.00
C678   C     0.08224   0.18069   0.52362   0.00000  Uiso   1.00
C679   C     0.17597   0.20773   0.97774   0.00000  Uiso   1.00
C680   C     0.16002   0.20574   0.52499   0.00000  Uiso   1.00
Cu681  Cu    0.04689   0.16667   0.75000   0.00000  Uiso   1.00
Cu682  Cu    0.28645   0.16666   0.75000   0.00000  Uiso   1.00
N683   N     0.11736   0.16668   0.74999   0.00000  Uiso   1.00
N684   N     0.21597   0.16666   0.75001   0.00000  Uiso   1.00
O685   O     0.03958   0.10655   0.75000   0.00000  Uiso   1.00
O686   O     0.29375   0.22678   0.75000   0.00000  Uiso   1.00
O687   O     0.29372   0.10654   0.75000   0.00000  Uiso   1.00
O688   O     0.03961   0.22679   0.75000   0.00000  Uiso   1.00
O689   O     0.01852   0.16668   0.81491   0.00000  Uiso   1.00
O690   O     0.31481   0.16666   0.68508   0.00000  Uiso   1.00
O691   O     0.27267   0.16667   0.81492   0.00000  Uiso   1.00
O692   O     0.06067   0.16667   0.68508   0.00000  Uiso   1.00
O693   O     0.28108   0.19594   0.53961   0.00000  Uiso   1.00
H694   H     0.27181   0.21410   0.56478   0.00000  Uiso   1.00
O695   O     0.06056   0.19006   0.95768   0.00000  Uiso   1.00
H696   H     0.07430   0.20249   0.92707   0.00000  Uiso   1.00
Cl697  Cl    0.09004   0.24625   0.61672   0.00000  Uiso   1.00
Cl698  Cl    0.19051   0.16353   0.88821   0.00000  Uiso   1.00
O699   O     0.32561   0.11649   0.61408   0.00000  Uiso   1.00
H700   H     0.30677   0.10954   0.59457   0.00000  Uiso   1.00
O701   O     0.02767   0.14511   0.89155   0.00000  Uiso   1.00
H702   H     0.04961   0.16838   0.87526   0.00000  Uiso   1.00
O703   O     0.31513   0.13886   0.98328   0.00000  Uiso   1.00
H704   H     0.33317   0.11636   0.96584   0.00000  Uiso   1.00
O705   O     0.04353   0.11760   0.51861   0.00000  Uiso   1.00
H706   H     0.03280   0.09201   0.53747   0.00000  Uiso   1.00
O707   O     0.18016   0.20009   0.59240   0.00000  Uiso   1.00
H708   H     0.20289   0.18313   0.60243   0.00000  Uiso   1.00
O709   O     0.14896   0.23834   0.91891   0.00000  Uiso   1.00
H710   H     0.18137   0.25252   0.91163   0.00000  Uiso   1.00
O711   O     0.24878   0.04069   0.75258   0.00000  Uiso   1.00
H712   H     0.22635   0.02178   0.74491   0.00000  Uiso   1.00
O713   O     0.08499   0.29497   0.74914   0.00000  Uiso   1.00
H714   H     0.07624   0.27870   0.77785   0.00000  Uiso   1.00
Cl715  Cl    0.22963   0.28622   0.78496   0.00000  Uiso   1.00
Cl716  Cl    0.10368   0.04576   0.72035   0.00000  Uiso   1.00
Cl717  Cl    0.19623   0.10328   0.81219   0.00000  Uiso   1.00
Cl718  Cl    0.13765   0.23029   0.68885   0.00000  Uiso   1.00
Cl719  Cl    0.08965   0.10252   0.81188   0.00000  Uiso   1.00
Cl720  Cl    0.24513   0.22848   0.68556   0.00000  Uiso   1.00
C721   C     0.33392   0.08760   0.74779   0.00000  Uiso   1.00
C722   C     0.66592   0.24563   0.75275   0.00000  Uiso   1.00
C723   C     0.52848   0.20227   0.54660   0.00000  Uiso   1.00
C724   C     0.47304   0.21520   0.95830   0.00000  Uiso   1.00
C725   C     0.57767   0.19560   0.52112   0.00000  Uiso   1.00
C726   C     0.42753   0.19458   0.97890   0.00000  Uiso   1.00
C727   C     0.62324   0.02041   0.75343   0.00000  Uiso   1.00
C728   C     0.37614   0.31295   0.74802   0.00000  Uiso   1.00
C729   C     0.62149   0.31122   0.76137   0.00000  Uiso   1.00
C730   C     0.37790   0.02168   0.74017   0.00000  Uiso   1.00
C731   C     0.66529   0.29032   0.75555   0.00000  Uiso   1.00
C732   C     0.33419   0.04276   0.74609   0.00000  Uiso   1.00
C733   C     0.51421   0.13939   0.77697   0.00000  Uiso   1.00
C734   C     0.48598   0.19386   0.72319   0.00000  Uiso   1.00
C735   C     0.46506   0.13924   0.77684   0.00000  Uiso   1.00
C736   C     0.53526   0.19362   0.72270   0.00000  Uiso   1.00
C737   C     0.63761   0.16712   0.83607   0.00000  Uiso   1.00
C738   C     0.36203   0.16812   0.66442   0.00000  Uiso   1.00
C739   C     0.61895   0.17083   0.88526   0.00000  Uiso   1.00
C740   C     0.38057   0.17132   0.61581   0.00000  Uiso   1.00
C741   C     0.63080   0.16338   0.95649   0.00000  Uiso   1.00
C742   C     0.38129   0.14889   0.54430   0.00000  Uiso   1.00
C743   C     0.64920   0.16136   0.91036   0.00000  Uiso   1.00
C744   C     0.36213   0.14497   0.59141   0.00000  Uiso   1.00
C745   C     0.56981   0.18106   0.90858   0.00000  Uiso   1.00
C746   C     0.41922   0.19930   0.59355   0.00000  Uiso   1.00
C747   C     0.55665   0.19402   0.95310   0.00000  Uiso   1.00
C748   C     0.44249   0.19760   0.54786   0.00000  Uiso   1.00
C749   C     0.58942   0.18602   0.97641   0.00000  Uiso   1.00
C750   C     0.41558   0.18069   0.52362   0.00000  Uiso   1.00
C751   C     0.50930   0.20773   0.97774   0.00000  Uiso   1.00
C752   C     0.49336   0.20574   0.52499   0.00000  Uiso   1.00
Cu753  Cu    0.38022   0.16667   0.75000   0.00000  Uiso   1.00
Cu754  Cu    0.61978   0.16666   0.75000   0.00000  Uiso   1.00
N755   N     0.45069   0.16668   0.74999   0.00000  Uiso   1.00
N756   N     0.54931   0.16666   0.75001   0.00000  Uiso   1.00
O757   O     0.37291   0.10655   0.75000   0.00000  Uiso   1.00
O758   O     0.62709   0.22678   0.75000   0.00000  Uiso   1.00
O759   O     0.62706   0.10654   0.75000   0.00000  Uiso   1.00
O760   O     0.37294   0.22679   0.75000   0.00000  Uiso   1.00
O761   O     0.35186   0.16668   0.81491   0.00000  Uiso   1.00
O762   O     0.64814   0.16666   0.68508   0.00000  Uiso   1.00
O763   O     0.60600   0.16667   0.81492   0.00000  Uiso   1.00
O764   O     0.39400   0.16667   0.68508   0.00000  Uiso   1.00
O765   O     0.61441   0.19594   0.53961   0.00000  Uiso   1.00
H766   H     0.60515   0.21410   0.56478   0.00000  Uiso   1.00
O767   O     0.39389   0.19006   0.95768   0.00000  Uiso   1.00
H768   H     0.40764   0.20249   0.92707   0.00000  Uiso   1.00
Cl769  Cl    0.42337   0.24625   0.61672   0.00000  Uiso   1.00
Cl770  Cl    0.52385   0.16353   0.88821   0.00000  Uiso   1.00
O771   O     0.65894   0.11649   0.61408   0.00000  Uiso   1.00
H772   H     0.64010   0.10954   0.59457   0.00000  Uiso   1.00
O773   O     0.36101   0.14511   0.89155   0.00000  Uiso   1.00
H774   H     0.38295   0.16838   0.87526   0.00000  Uiso   1.00
O775   O     0.64846   0.13886   0.98328   0.00000  Uiso   1.00
H776   H     0.66651   0.11636   0.96584   0.00000  Uiso   1.00
O777   O     0.37686   0.11760   0.51861   0.00000  Uiso   1.00
H778   H     0.36613   0.09201   0.53747   0.00000  Uiso   1.00
O779   O     0.51349   0.20009   0.59240   0.00000  Uiso   1.00
H780   H     0.53623   0.18313   0.60243   0.00000  Uiso   1.00
O781   O     0.48229   0.23834   0.91891   0.00000  Uiso   1.00
H782   H     0.51471   0.25252   0.91163   0.00000  Uiso   1.00
O783   O     0.58212   0.04069   0.75258   0.00000  Uiso   1.00
H784   H     0.55968   0.02178   0.74491   0.00000  Uiso   1.00
O785   O     0.41832   0.29497   0.74914   0.00000  Uiso   1.00
H786   H     0.40958   0.27870   0.77785   0.00000  Uiso   1.00
Cl787  Cl    0.56297   0.28622   0.78496   0.00000  Uiso   1.00
Cl788  Cl    0.43701   0.04576   0.72035   0.00000  Uiso   1.00
Cl789  Cl    0.52957   0.10328   0.81219   0.00000  Uiso   1.00
Cl790  Cl    0.47098   0.23029   0.68885   0.00000  Uiso   1.00
Cl791  Cl    0.42298   0.10252   0.81188   0.00000  Uiso   1.00
Cl792  Cl    0.57846   0.22848   0.68556   0.00000  Uiso   1.00
C793   C     0.66725   0.08760   0.74779   0.00000  Uiso   1.00
C794   C     0.99925   0.24563   0.75275   0.00000  Uiso   1.00
C795   C     0.86181   0.20227   0.54660   0.00000  Uiso   1.00
C796   C     0.80637   0.21520   0.95830   0.00000  Uiso   1.00
C797   C     0.91100   0.19560   0.52112   0.00000  Uiso   1.00
C798   C     0.76086   0.19458   0.97890   0.00000  Uiso   1.00
C799   C     0.95657   0.02041   0.75343   0.00000  Uiso   1.00
C800   C     0.70948   0.31295   0.74802   0.00000  Uiso   1.00
C801   C     0.95482   0.31122   0.76137   0.00000  Uiso   1.00
C802   C     0.71123   0.02168   0.74017   0.00000  Uiso   1.00
C803   C     0.99863   0.29032   0.75555   0.00000  Uiso   1.00
C804   C     0.66752   0.04276   0.74609   0.00000  Uiso   1.00
C805   C     0.84755   0.13939   0.77697   0.00000  Uiso   1.00
C806   C     0.81931   0.19386   0.72319   0.00000  Uiso   1.00
C807   C     0.79840   0.13924   0.77684   0.00000  Uiso   1.00
C808   C     0.86859   0.19362   0.72270   0.00000  Uiso   1.00
C809   C     0.97094   0.16712   0.83607   0.00000  Uiso   1.00
C810   C     0.69536   0.16812   0.66442   0.00000  Uiso   1.00
C811   C     0.95228   0.17083   0.88526   0.00000  Uiso   1.00
C812   C     0.71390   0.17132   0.61581   0.00000  Uiso   1.00
C813   C     0.96413   0.16338   0.95649   0.00000  Uiso   1.00
C814   C     0.71462   0.14889   0.54430   0.00000  Uiso   1.00
C815   C     0.98253   0.16136   0.91036   0.00000  Uiso   1.00
C816   C     0.69546   0.14497   0.59141   0.00000  Uiso   1.00
C817   C     0.90314   0.18106   0.90858   0.00000  Uiso   1.00
C818   C     0.75255   0.19930   0.59355   0.00000  Uiso   1.00
C819   C     0.88998   0.19402   0.95310   0.00000  Uiso   1.00
C820   C     0.77582   0.19760   0.54786   0.00000  Uiso   1.00
C821   C     0.92276   0.18602   0.97641   0.00000  Uiso   1.00
C822   C     0.74891   0.18069   0.52362   0.00000  Uiso   1.00
C823   C     0.84264   0.20773   0.97774   0.00000  Uiso   1.00
C824   C     0.82669   0.20574   0.52499   0.00000  Uiso   1.00
Cu825  Cu    0.71355   0.16667   0.75000   0.00000  Uiso   1.00
Cu826  Cu    0.95311   0.16666   0.75000   0.00000  Uiso   1.00
N827   N     0.78403   0.16668   0.74999   0.00000  Uiso   1.00
N828   N     0.88264   0.16666   0.75001   0.00000  Uiso   1.00
O829   O     0.70625   0.10655   0.75000   0.00000  Uiso   1.00
O830   O     0.96042   0.22678   0.75000   0.00000  Uiso   1.00
O831   O     0.96039   0.10654   0.75000   0.00000  Uiso   1.00
O832   O     0.70628   0.22679   0.75000   0.00000  Uiso   1.00
O833   O     0.68519   0.16668   0.81491   0.00000  Uiso   1.00
O834   O     0.98148   0.16666   0.68508   0.00000  Uiso   1.00
O835   O     0.93933   0.16667   0.81492   0.00000  Uiso   1.00
O836   O     0.72733   0.16667   0.68508   0.00000  Uiso   1.00
O837   O     0.94775   0.19594   0.53961   0.00000  Uiso   1.00
H838   H     0.93848   0.21410   0.56478   0.00000  Uiso   1.00
O839   O     0.72723   0.19006   0.95768   0.00000  Uiso   1.00
H840   H     0.74097   0.20249   0.92707   0.00000  Uiso   1.00
Cl841  Cl    0.75671   0.24625   0.61672   0.00000  Uiso   1.00
Cl842  Cl    0.85718   0.16353   0.88821   0.00000  Uiso   1.00
O843   O     0.99227   0.11649   0.61408   0.00000  Uiso   1.00
H844   H     0.97343   0.10954   0.59457   0.00000  Uiso   1.00
O845   O     0.69434   0.14511   0.89155   0.00000  Uiso   1.00
H846   H     0.71628   0.16838   0.87526   0.00000  Uiso   1.00
O847   O     0.98179   0.13886   0.98328   0.00000  Uiso   1.00
H848   H     0.99984   0.11636   0.96584   0.00000  Uiso   1.00
O849   O     0.71020   0.11760   0.51861   0.00000  Uiso   1.00
H850   H     0.69946   0.09201   0.53747   0.00000  Uiso   1.00
O851   O     0.84682   0.20009   0.59240   0.00000  Uiso   1.00
H852   H     0.86956   0.18313   0.60243   0.00000  Uiso   1.00
O853   O     0.81563   0.23834   0.91891   0.00000  Uiso   1.00
H854   H     0.84804   0.25252   0.91163   0.00000  Uiso   1.00
O855   O     0.91545   0.04069   0.75258   0.00000  Uiso   1.00
H856   H     0.89301   0.02178   0.74491   0.00000  Uiso   1.00
O857   O     0.75165   0.29497   0.74914   0.00000  Uiso   1.00
H858   H     0.74291   0.27870   0.77785   0.00000  Uiso   1.00
Cl859  Cl    0.89630   0.28622   0.78496   0.00000  Uiso   1.00
Cl860  Cl    0.77034   0.04576   0.72035   0.00000  Uiso   1.00
Cl861  Cl    0.86290   0.10328   0.81219   0.00000  Uiso   1.00
Cl862  Cl    0.80431   0.23029   0.68885   0.00000  Uiso   1.00
Cl863  Cl    0.75631   0.10252   0.81188   0.00000  Uiso   1.00
Cl864  Cl    0.91179   0.22848   0.68556   0.00000  Uiso   1.00
C865   C     0.00058   0.42093   0.74779   0.00000  Uiso   1.00
C866   C     0.33259   0.57897   0.75275   0.00000  Uiso   1.00
C867   C     0.19514   0.53561   0.54660   0.00000  Uiso   1.00
C868   C     0.13970   0.54854   0.95830   0.00000  Uiso   1.00
C869   C     0.24433   0.52894   0.52112   0.00000  Uiso   1.00
C870   C     0.09419   0.52791   0.97890   0.00000  Uiso   1.00
C871   C     0.28991   0.35374   0.75343   0.00000  Uiso   1.00
C872   C     0.04281   0.64628   0.74802   0.00000  Uiso   1.00
C873   C     0.28815   0.64455   0.76137   0.00000  Uiso   1.00
C874   C     0.04456   0.35502   0.74017   0.00000  Uiso   1.00
C875   C     0.33196   0.62365   0.75555   0.00000  Uiso   1.00
C876   C     0.00086   0.37609   0.74609   0.00000  Uiso   1.00
C877   C     0.18088   0.47273   0.77697   0.00000  Uiso   1.00
C878   C     0.15264   0.52719   0.72319   0.00000  Uiso   1.00
C879   C     0.13173   0.47257   0.77684   0.00000  Uiso   1.00
C880   C     0.20192   0.52695   0.72270   0.00000  Uiso   1.00
C881   C     0.30428   0.50045   0.83607   0.00000  Uiso   1.00
C882   C     0.02870   0.50145   0.66442   0.00000  Uiso   1.00
C883   C     0.28561   0.50416   0.88526   0.00000  Uiso   1.00
C884   C     0.04724   0.50465   0.61581   0.00000  Uiso   1.00
C885   C     0.29747   0.49671   0.95649   0.00000  Uiso   1.00
C886   C     0.04796   0.48223   0.54430   0.00000  Uiso   1.00
C887   C     0.31587   0.49469   0.91036   0.00000  Uiso   1.00
C888   C     0.02880   0.47830   0.59141   0.00000  Uiso   1.00
C889   C     0.23648   0.51439   0.90858   0.00000  Uiso   1.00
C890   C     0.08589   0.53263   0.59355   0.00000  Uiso   1.00
C891   C     0.22332   0.52736   0.95310   0.00000  Uiso   1.00
C892   C     0.10915   0.53094   0.54786   0.00000  Uiso   1.00
C893   C     0.25609   0.51935   0.97641   0.00000  Uiso   1.00
C894   C     0.08224   0.51402   0.52362   0.00000  Uiso   1.00
C895   C     0.17597   0.54106   0.97774   0.00000  Uiso   1.00
C896   C     0.16002   0.53907   0.52499   0.00000  Uiso   1.00
Cu897  Cu    0.04689   0.50001   0.75000   0.00000  Uiso   1.00
Cu898  Cu    0.28645   0.49999   0.75000   0.00000  Uiso   1.00
N899   N     0.11736   0.50001   0.74999   0.00000  Uiso   1.00
N900   N     0.21597   0.49999   0.75001   0.00000  Uiso   1.00
O901   O     0.03958   0.43989   0.75000   0.00000  Uiso   1.00
O902   O     0.29375   0.56011   0.75000   0.00000  Uiso   1.00
O903   O     0.29372   0.43988   0.75000   0.00000  Uiso   1.00
O904   O     0.03961   0.56012   0.75000   0.00000  Uiso   1.00
O905   O     0.01852   0.50001   0.81491   0.00000  Uiso   1.00
O906   O     0.31481   0.49999   0.68508   0.00000  Uiso   1.00
O907   O     0.27267   0.50000   0.81492   0.00000  Uiso   1.00
O908   O     0.06067   0.50000   0.68508   0.00000  Uiso   1.00
O909   O     0.28108   0.52927   0.53961   0.00000  Uiso   1.00
H910   H     0.27181   0.54743   0.56478   0.00000  Uiso   1.00
O911   O     0.06056   0.52339   0.95768   0.00000  Uiso   1.00
H912   H     0.07430   0.53582   0.92707   0.00000  Uiso   1.00
Cl913  Cl    0.09004   0.57958   0.61672   0.00000  Uiso   1.00
Cl914  Cl    0.19051   0.49687   0.88821   0.00000  Uiso   1.00
O915   O     0.32561   0.44983   0.61408   0.00000  Uiso   1.00
H916   H     0.30677   0.44287   0.59457   0.00000  Uiso   1.00
O917   O     0.02767   0.47844   0.89155   0.00000  Uiso   1.00
H918   H     0.04961   0.50172   0.87526   0.00000  Uiso   1.00
O919   O     0.31513   0.47219   0.98328   0.00000  Uiso   1.00
H920   H     0.33317   0.44969   0.96584   0.00000  Uiso   1.00
O921   O     0.04353   0.45093   0.51861   0.00000  Uiso   1.00
H922   H     0.03280   0.42535   0.53747   0.00000  Uiso   1.00
O923   O     0.18016   0.53342   0.59240   0.00000  Uiso   1.00
H924   H     0.20289   0.51647   0.60243   0.00000  Uiso   1.00
O925   O     0.14896   0.57168   0.91891   0.00000  Uiso   1.00
H926   H     0.18137   0.58585   0.91163   0.00000  Uiso   1.00
O927   O     0.24878   0.37402   0.75258   0.00000  Uiso   1.00
H928   H     0.22635   0.35511   0.74491   0.00000  Uiso   1.00
O929   O     0.08499   0.62830   0.74914   0.00000  Uiso   1.00
H930   H     0.07624   0.61203   0.77785   0.00000  Uiso   1.00
Cl931  Cl    0.22963   0.61956   0.78496   0.00000  Uiso   1.00
Cl932  Cl    0.10368   0.37909   0.72035   0.00000  Uiso   1.00
Cl933  Cl    0.19623   0.43661   0.81219   0.00000  Uiso   1.00
Cl934  Cl    0.13765   0.56362   0.68885   0.00000  Uiso   1.00
Cl935  Cl    0.08965   0.43585   0.81188   0.00000  Uiso   1.00
Cl936  Cl    0.24513   0.56182   0.68556   0.00000  Uiso   1.00
C937   C     0.33392   0.42093   0.74779   0.00000  Uiso   1.00
C938   C     0.66592   0.57897   0.75275   0.00000  Uiso   1.00
C939   C     0.52848   0.53561   0.54660   0.00000  Uiso   1.00
C940   C     0.47304   0.54854   0.95830   0.00000  Uiso   1.00
C941   C     0.57767   0.52894   0.52112   0.00000  Uiso   1.00
C942   C     0.42753   0.52791   0.97890   0.00000  Uiso   1.00
C943   C     0.62324   0.35374   0.75343   0.00000  Uiso   1.00
C944   C     0.37614   0.64628   0.74802   0.00000  Uiso   1.00
C945   C     0.62149   0.64455   0.76137   0.00000  Uiso   1.00
C946   C     0.37790   0.35502   0.74017   0.00000  Uiso   1.00
C947   C     0.66529   0.62365   0.75555   0.00000  Uiso   1.00
C948   C     0.33419   0.37609   0.74609   0.00000  Uiso   1.00
C949   C     0.51421   0.47273   0.77697   0.00000  Uiso   1.00
C950   C     0.48598   0.52719   0.72319   0.00000  Uiso   1.00
C951   C     0.46506   0.47257   0.77684   0.00000  Uiso   1.00
C952   C     0.53526   0.52695   0.72270   0.00000  Uiso   1.00
C953   C     0.63761   0.50045   0.83607   0.00000  Uiso   1.00
C954   C     0.36203   0.50145   0.66442   0.00000  Uiso   1.00
C955   C     0.61895   0.50416   0.88526   0.00000  Uiso   1.00
C956   C     0.38057   0.50465   0.61581   0.00000  Uiso   1.00
C957   C     0.63080   0.49671   0.95649   0.00000  Uiso   1.00
C958   C     0.38129   0.48223   0.54430   0.00000  Uiso   1.00
C959   C     0.64920   0.49469   0.91036   0.00000  Uiso   1.00
C960   C     0.36213   0.47830   0.59141   0.00000  Uiso   1.00
C961   C     0.56981   0.51439   0.90858   0.00000  Uiso   1.00
C962   C     0.41922   0.53263   0.59355   0.00000  Uiso   1.00
C963   C     0.55665   0.52736   0.95310   0.00000  Uiso   1.00
C964   C     0.44249   0.53094   0.54786   0.00000  Uiso   1.00
C965   C     0.58942   0.51935   0.97641   0.00000  Uiso   1.00
C966   C     0.41558   0.51402   0.52362   0.00000  Uiso   1.00
C967   C     0.50930   0.54106   0.97774   0.00000  Uiso   1.00
C968   C     0.49336   0.53907   0.52499   0.00000  Uiso   1.00
Cu969  Cu    0.38022   0.50001   0.75000   0.00000  Uiso   1.00
Cu970  Cu    0.61978   0.49999   0.75000   0.00000  Uiso   1.00
N971   N     0.45069   0.50001   0.74999   0.00000  Uiso   1.00
N972   N     0.54931   0.49999   0.75001   0.00000  Uiso   1.00
O973   O     0.37291   0.43989   0.75000   0.00000  Uiso   1.00
O974   O     0.62709   0.56011   0.75000   0.00000  Uiso   1.00
O975   O     0.62706   0.43988   0.75000   0.00000  Uiso   1.00
O976   O     0.37294   0.56012   0.75000   0.00000  Uiso   1.00
O977   O     0.35186   0.50001   0.81491   0.00000  Uiso   1.00
O978   O     0.64814   0.49999   0.68508   0.00000  Uiso   1.00
O979   O     0.60600   0.50000   0.81492   0.00000  Uiso   1.00
O980   O     0.39400   0.50000   0.68508   0.00000  Uiso   1.00
O981   O     0.61441   0.52927   0.53961   0.00000  Uiso   1.00
H982   H     0.60515   0.54743   0.56478   0.00000  Uiso   1.00
O983   O     0.39389   0.52339   0.95768   0.00000  Uiso   1.00
H984   H     0.40764   0.53582   0.92707   0.00000  Uiso   1.00
Cl985  Cl    0.42337   0.57958   0.61672   0.00000  Uiso   1.00
Cl986  Cl    0.52385   0.49687   0.88821   0.00000  Uiso   1.00
O987   O     0.65894   0.44983   0.61408   0.00000  Uiso   1.00
H988   H     0.64010   0.44287   0.59457   0.00000  Uiso   1.00
O989   O     0.36101   0.47844   0.89155   0.00000  Uiso   1.00
H990   H     0.38295   0.50172   0.87526   0.00000  Uiso   1.00
O991   O     0.64846   0.47219   0.98328   0.00000  Uiso   1.00
H992   H     0.66651   0.44969   0.96584   0.00000  Uiso   1.00
O993   O     0.37686   0.45093   0.51861   0.00000  Uiso   1.00
H994   H     0.36613   0.42535   0.53747   0.00000  Uiso   1.00
O995   O     0.51349   0.53342   0.59240   0.00000  Uiso   1.00
H996   H     0.53623   0.51647   0.60243   0.00000  Uiso   1.00
O997   O     0.48229   0.57168   0.91891   0.00000  Uiso   1.00
H998   H     0.51471   0.58585   0.91163   0.00000  Uiso   1.00
O999   O     0.58212   0.37402   0.75258   0.00000  Uiso   1.00
H1000  H     0.55968   0.35511   0.74491   0.00000  Uiso   1.00
O1001  O     0.41832   0.62830   0.74914   0.00000  Uiso   1.00
H1002  H     0.40958   0.61203   0.77785   0.00000  Uiso   1.00
Cl1003 Cl    0.56297   0.61956   0.78496   0.00000  Uiso   1.00
Cl1004 Cl    0.43701   0.37909   0.72035   0.00000  Uiso   1.00
Cl1005 Cl    0.52957   0.43661   0.81219   0.00000  Uiso   1.00
Cl1006 Cl    0.47098   0.56362   0.68885   0.00000  Uiso   1.00
Cl1007 Cl    0.42298   0.43585   0.81188   0.00000  Uiso   1.00
Cl1008 Cl    0.57846   0.56182   0.68556   0.00000  Uiso   1.00
C1009  C     0.66725   0.42093   0.74779   0.00000  Uiso   1.00
C1010  C     0.99925   0.57897   0.75275   0.00000  Uiso   1.00
C1011  C     0.86181   0.53561   0.54660   0.00000  Uiso   1.00
C1012  C     0.80637   0.54854   0.95830   0.00000  Uiso   1.00
C1013  C     0.91100   0.52894   0.52112   0.00000  Uiso   1.00
C1014  C     0.76086   0.52791   0.97890   0.00000  Uiso   1.00
C1015  C     0.95657   0.35374   0.75343   0.00000  Uiso   1.00
C1016  C     0.70948   0.64628   0.74802   0.00000  Uiso   1.00
C1017  C     0.95482   0.64455   0.76137   0.00000  Uiso   1.00
C1018  C     0.71123   0.35502   0.74017   0.00000  Uiso   1.00
C1019  C     0.99863   0.62365   0.75555   0.00000  Uiso   1.00
C1020  C     0.66752   0.37609   0.74609   0.00000  Uiso   1.00
C1021  C     0.84755   0.47273   0.77697   0.00000  Uiso   1.00
C1022  C     0.81931   0.52719   0.72319   0.00000  Uiso   1.00
C1023  C     0.79840   0.47257   0.77684   0.00000  Uiso   1.00
C1024  C     0.86859   0.52695   0.72270   0.00000  Uiso   1.00
C1025  C     0.97094   0.50045   0.83607   0.00000  Uiso   1.00
C1026  C     0.69536   0.50145   0.66442   0.00000  Uiso   1.00
C1027  C     0.95228   0.50416   0.88526   0.00000  Uiso   1.00
C1028  C     0.71390   0.50465   0.61581   0.00000  Uiso   1.00
C1029  C     0.96413   0.49671   0.95649   0.00000  Uiso   1.00
C1030  C     0.71462   0.48223   0.54430   0.00000  Uiso   1.00
C1031  C     0.98253   0.49469   0.91036   0.00000  Uiso   1.00
C1032  C     0.69546   0.47830   0.59141   0.00000  Uiso   1.00
C1033  C     0.90314   0.51439   0.90858   0.00000  Uiso   1.00
C1034  C     0.75255   0.53263   0.59355   0.00000  Uiso   1.00
C1035  C     0.88998   0.52736   0.95310   0.00000  Uiso   1.00
C1036  C     0.77582   0.53094   0.54786   0.00000  Uiso   1.00
C1037  C     0.92276   0.51935   0.97641   0.00000  Uiso   1.00
C1038  C     0.74891   0.51402   0.52362   0.00000  Uiso   1.00
C1039  C     0.84264   0.54106   0.97774   0.00000  Uiso   1.00
C1040  C     0.82669   0.53907   0.52499   0.00000  Uiso   1.00
Cu1041 Cu    0.71355   0.50001   0.75000   0.00000  Uiso   1.00
Cu1042 Cu    0.95311   0.49999   0.75000   0.00000  Uiso   1.00
N1043  N     0.78403   0.50001   0.74999   0.00000  Uiso   1.00
N1044  N     0.88264   0.49999   0.75001   0.00000  Uiso   1.00
O1045  O     0.70625   0.43989   0.75000   0.00000  Uiso   1.00
O1046  O     0.96042   0.56011   0.75000   0.00000  Uiso   1.00
O1047  O     0.96039   0.43988   0.75000   0.00000  Uiso   1.00
O1048  O     0.70628   0.56012   0.75000   0.00000  Uiso   1.00
O1049  O     0.68519   0.50001   0.81491   0.00000  Uiso   1.00
O1050  O     0.98148   0.49999   0.68508   0.00000  Uiso   1.00
O1051  O     0.93933   0.50000   0.81492   0.00000  Uiso   1.00
O1052  O     0.72733   0.50000   0.68508   0.00000  Uiso   1.00
O1053  O     0.94775   0.52927   0.53961   0.00000  Uiso   1.00
H1054  H     0.93848   0.54743   0.56478   0.00000  Uiso   1.00
O1055  O     0.72723   0.52339   0.95768   0.00000  Uiso   1.00
H1056  H     0.74097   0.53582   0.92707   0.00000  Uiso   1.00
Cl1057 Cl    0.75671   0.57958   0.61672   0.00000  Uiso   1.00
Cl1058 Cl    0.85718   0.49687   0.88821   0.00000  Uiso   1.00
O1059  O     0.99227   0.44983   0.61408   0.00000  Uiso   1.00
H1060  H     0.97343   0.44287   0.59457   0.00000  Uiso   1.00
O1061  O     0.69434   0.47844   0.89155   0.00000  Uiso   1.00
H1062  H     0.71628   0.50172   0.87526   0.00000  Uiso   1.00
O1063  O     0.98179   0.47219   0.98328   0.00000  Uiso   1.00
H1064  H     0.99984   0.44969   0.96584   0.00000  Uiso   1.00
O1065  O     0.71020   0.45093   0.51861   0.00000  Uiso   1.00
H1066  H     0.69946   0.42535   0.53747   0.00000  Uiso   1.00
O1067  O     0.84682   0.53342   0.59240   0.00000  Uiso   1.00
H1068  H     0.86956   0.51647   0.60243   0.00000  Uiso   1.00
O1069  O     0.81563   0.57168   0.91891   0.00000  Uiso   1.00
H1070  H     0.84804   0.58585   0.91163   0.00000  Uiso   1.00
O1071  O     0.91545   0.37402   0.75258   0.00000  Uiso   1.00
H1072  H     0.89301   0.35511   0.74491   0.00000  Uiso   1.00
O1073  O     0.75165   0.62830   0.74914   0.00000  Uiso   1.00
H1074  H     0.74291   0.61203   0.77785   0.00000  Uiso   1.00
Cl1075 Cl    0.89630   0.61956   0.78496   0.00000  Uiso   1.00
Cl1076 Cl    0.77034   0.37909   0.72035   0.00000  Uiso   1.00
Cl1077 Cl    0.86290   0.43661   0.81219   0.00000  Uiso   1.00
Cl1078 Cl    0.80431   0.56362   0.68885   0.00000  Uiso   1.00
Cl1079 Cl    0.75631   0.43585   0.81188   0.00000  Uiso   1.00
Cl1080 Cl    0.91179   0.56182   0.68556   0.00000  Uiso   1.00
C1081  C     0.00058   0.75426   0.74779   0.00000  Uiso   1.00
C1082  C     0.33259   0.91230   0.75275   0.00000  Uiso   1.00
C1083  C     0.19514   0.86894   0.54660   0.00000  Uiso   1.00
C1084  C     0.13970   0.88187   0.95830   0.00000  Uiso   1.00
C1085  C     0.24433   0.86227   0.52112   0.00000  Uiso   1.00
C1086  C     0.09419   0.86124   0.97890   0.00000  Uiso   1.00
C1087  C     0.28991   0.68708   0.75343   0.00000  Uiso   1.00
C1088  C     0.04281   0.97961   0.74802   0.00000  Uiso   1.00
C1089  C     0.28815   0.97789   0.76137   0.00000  Uiso   1.00
C1090  C     0.04456   0.68835   0.74017   0.00000  Uiso   1.00
C1091  C     0.33196   0.95699   0.75555   0.00000  Uiso   1.00
C1092  C     0.00086   0.70943   0.74609   0.00000  Uiso   1.00
C1093  C     0.18088   0.80606   0.77697   0.00000  Uiso   1.00
C1094  C     0.15264   0.86052   0.72319   0.00000  Uiso   1.00
C1095  C     0.13173   0.80591   0.77684   0.00000  Uiso   1.00
C1096  C     0.20192   0.86028   0.72270   0.00000  Uiso   1.00
C1097  C     0.30428   0.83379   0.83607   0.00000  Uiso   1.00
C1098  C     0.02870   0.83478   0.66442   0.00000  Uiso   1.00
C1099  C     0.28561   0.83750   0.88526   0.00000  Uiso   1.00
C1100  C     0.04724   0.83798   0.61581   0.00000  Uiso   1.00
C1101  C     0.29747   0.83004   0.95649   0.00000  Uiso   1.00
C1102  C     0.04796   0.81556   0.54430   0.00000  Uiso   1.00
C1103  C     0.31587   0.82803   0.91036   0.00000  Uiso   1.00
C1104  C     0.02880   0.81164   0.59141   0.00000  Uiso   1.00
C1105  C     0.23648   0.84773   0.90858   0.00000  Uiso   1.00
C1106  C     0.08589   0.86596   0.59355   0.00000  Uiso   1.00
C1107  C     0.22332   0.86069   0.95310   0.00000  Uiso   1.00
C1108  C     0.10915   0.86427   0.54786   0.00000  Uiso   1.00
C1109  C     0.25609   0.85268   0.97641   0.00000  Uiso   1.00
C1110  C     0.08224   0.84736   0.52362   0.00000  Uiso   1.00
C1111  C     0.17597   0.87440   0.97774   0.00000  Uiso   1.00
C1112  C     0.16002   0.87240   0.52499   0.00000  Uiso   1.00
Cu1113 Cu    0.04689   0.83334   0.75000   0.00000  Uiso   1.00
Cu1114 Cu    0.28645   0.83333   0.75000   0.00000  Uiso   1.00
N1115  N     0.11736   0.83334   0.74999   0.00000  Uiso   1.00
N1116  N     0.21597   0.83332   0.75001   0.00000  Uiso   1.00
O1117  O     0.03958   0.77322   0.75000   0.00000  Uiso   1.00
O1118  O     0.29375   0.89345   0.75000   0.00000  Uiso   1.00
O1119  O     0.29372   0.77321   0.75000   0.00000  Uiso   1.00
O1120  O     0.03961   0.89346   0.75000   0.00000  Uiso   1.00
O1121  O     0.01852   0.83334   0.81491   0.00000  Uiso   1.00
O1122  O     0.31481   0.83332   0.68508   0.00000  Uiso   1.00
O1123  O     0.27267   0.83333   0.81492   0.00000  Uiso   1.00
O1124  O     0.06067   0.83333   0.68508   0.00000  Uiso   1.00
O1125  O     0.28108   0.86260   0.53961   0.00000  Uiso   1.00
H1126  H     0.27181   0.88076   0.56478   0.00000  Uiso   1.00
O1127  O     0.06056   0.85672   0.95768   0.00000  Uiso   1.00
H1128  H     0.07430   0.86916   0.92707   0.00000  Uiso   1.00
Cl1129 Cl    0.09004   0.91292   0.61672   0.00000  Uiso   1.00
Cl1130 Cl    0.19051   0.83020   0.88821   0.00000  Uiso   1.00
O1131  O     0.32561   0.78316   0.61408   0.00000  Uiso   1.00
H1132  H     0.30677   0.77621   0.59457   0.00000  Uiso   1.00
O1133  O     0.02767   0.81177   0.89155   0.00000  Uiso   1.00
H1134  H     0.04961   0.83505   0.87526   0.00000  Uiso   1.00
O1135  O     0.31513   0.80553   0.98328   0.00000  Uiso   1.00
H1136  H     0.33317   0.78302   0.96584   0.00000  Uiso   1.00
O1137  O     0.04353   0.78427   0.51861   0.00000  Uiso   1.00
H1138  H     0.03280   0.75868   0.53747   0.00000  Uiso   1.00
O1139  O     0.18016   0.86676   0.59240   0.00000  Uiso   1.00
H1140  H     0.20289   0.84980   0.60243   0.00000  Uiso   1.00
O1141  O     0.14896   0.90501   0.91891   0.00000  Uiso   1.00
H1142  H     0.18137   0.91918   0.91163   0.00000  Uiso   1.00
O1143  O     0.24878   0.70736   0.75258   0.00000  Uiso   1.00
H1144  H     0.22635   0.68844   0.74491   0.00000  Uiso   1.00
O1145  O     0.08499   0.96163   0.74914   0.00000  Uiso   1.00
H1146  H     0.07624   0.94537   0.77785   0.00000  Uiso   1.00
Cl1147 Cl    0.22963   0.95289   0.78496   0.00000  Uiso   1.00
Cl1148 Cl    0.10368   0.71242   0.72035   0.00000  Uiso   1.00
Cl1149 Cl    0.19623   0.76995   0.81219   0.00000  Uiso   1.00
Cl1150 Cl    0.13765   0.89696   0.68885   0.00000  Uiso   1.00
Cl1151 Cl    0.08965   0.76918   0.81188   0.00000  Uiso   1.00
Cl1152 Cl    0.24513   0.89515   0.68556   0.00000  Uiso   1.00
C1153  C     0.33392   0.75426   0.74779   0.00000  Uiso   1.00
C1154  C     0.66592   0.91230   0.75275   0.00000  Uiso   1.00
C1155  C     0.52848   0.86894   0.54660   0.00000  Uiso   1.00
C1156  C     0.47304   0.88187   0.95830   0.00000  Uiso   1.00
C1157  C     0.57767   0.86227   0.52112   0.00000  Uiso   1.00
C1158  C     0.42753   0.86124   0.97890   0.00000  Uiso   1.00
C1159  C     0.62324   0.68708   0.75343   0.00000  Uiso   1.00
C1160  C     0.37614   0.97961   0.74802   0.00000  Uiso   1.00
C1161  C     0.62149   0.97789   0.76137   0.00000  Uiso   1.00
C1162  C     0.37790   0.68835   0.74017   0.00000  Uiso   1.00
C1163  C     0.66529   0.95699   0.75555   0.00000  Uiso   1.00
C1164  C     0.33419   0.70943   0.74609   0.00000  Uiso   1.00
C1165  C     0.51421   0.80606   0.77697   0.00000  Uiso   1.00
C1166  C     0.48598   0.86052   0.72319   0.00000  Uiso   1.00
C1167  C     0.46506   0.80591   0.77684   0.00000  Uiso   1.00
C1168  C     0.53526   0.86028   0.72270   0.00000  Uiso   1.00
C1169  C     0.63761   0.83379   0.83607   0.00000  Uiso   1.00
C1170  C     0.36203   0.83478   0.66442   0.00000  Uiso   1.00
C1171  C     0.61895   0.83750   0.88526   0.00000  Uiso   1.00
C1172  C     0.38057   0.83798   0.61581   0.00000  Uiso   1.00
C1173  C     0.63080   0.83004   0.95649   0.00000  Uiso   1.00
C1174  C     0.38129   0.81556   0.54430   0.00000  Uiso   1.00
C1175  C     0.64920   0.82803   0.91036   0.00000  Uiso   1.00
C1176  C     0.36213   0.81164   0.59141   0.00000  Uiso   1.00
C1177  C     0.56981   0.84773   0.90858   0.00000  Uiso   1.00
C1178  C     0.41922   0.86596   0.59355   0.00000  Uiso   1.00
C1179  C     0.55665   0.86069   0.95310   0.00000  Uiso   1.00
C1180  C     0.44249   0.86427   0.54786   0.00000  Uiso   1.00
C1181  C     0.58942   0.85268   0.97641   0.00000  Uiso   1.00
C1182  C     0.41558   0.84736   0.52362   0.00000  Uiso   1.00
C1183  C     0.50930   0.87440   0.97774   0.00000  Uiso   1.00
C1184  C     0.49336   0.87240   0.52499   0.00000  Uiso   1.00
Cu1185 Cu    0.38022   0.83334   0.75000   0.00000  Uiso   1.00
Cu1186 Cu    0.61978   0.83333   0.75000   0.00000  Uiso   1.00
N1187  N     0.45069   0.83334   0.74999   0.00000  Uiso   1.00
N1188  N     0.54931   0.83332   0.75001   0.00000  Uiso   1.00
O1189  O     0.37291   0.77322   0.75000   0.00000  Uiso   1.00
O1190  O     0.62709   0.89345   0.75000   0.00000  Uiso   1.00
O1191  O     0.62706   0.77321   0.75000   0.00000  Uiso   1.00
O1192  O     0.37294   0.89346   0.75000   0.00000  Uiso   1.00
O1193  O     0.35186   0.83334   0.81491   0.00000  Uiso   1.00
O1194  O     0.64814   0.83332   0.68508   0.00000  Uiso   1.00
O1195  O     0.60600   0.83333   0.81492   0.00000  Uiso   1.00
O1196  O     0.39400   0.83333   0.68508   0.00000  Uiso   1.00
O1197  O     0.61441   0.86260   0.53961   0.00000  Uiso   1.00
H1198  H     0.60515   0.88076   0.56478   0.00000  Uiso   1.00
O1199  O     0.39389   0.85672   0.95768   0.00000  Uiso   1.00
H1200  H     0.40764   0.86916   0.92707   0.00000  Uiso   1.00
Cl1201 Cl    0.42337   0.91292   0.61672   0.00000  Uiso   1.00
Cl1202 Cl    0.52385   0.83020   0.88821   0.00000  Uiso   1.00
O1203  O     0.65894   0.78316   0.61408   0.00000  Uiso   1.00
H1204  H     0.64010   0.77621   0.59457   0.00000  Uiso   1.00
O1205  O     0.36101   0.81177   0.89155   0.00000  Uiso   1.00
H1206  H     0.38295   0.83505   0.87526   0.00000  Uiso   1.00
O1207  O     0.64846   0.80553   0.98328   0.00000  Uiso   1.00
H1208  H     0.66651   0.78302   0.96584   0.00000  Uiso   1.00
O1209  O     0.37686   0.78427   0.51861   0.00000  Uiso   1.00
H1210  H     0.36613   0.75868   0.53747   0.00000  Uiso   1.00
O1211  O     0.51349   0.86676   0.59240   0.00000  Uiso   1.00
H1212  H     0.53623   0.84980   0.60243   0.00000  Uiso   1.00
O1213  O     0.48229   0.90501   0.91891   0.00000  Uiso   1.00
H1214  H     0.51471   0.91918   0.91163   0.00000  Uiso   1.00
O1215  O     0.58212   0.70736   0.75258   0.00000  Uiso   1.00
H1216  H     0.55968   0.68844   0.74491   0.00000  Uiso   1.00
O1217  O     0.41832   0.96163   0.74914   0.00000  Uiso   1.00
H1218  H     0.40958   0.94537   0.77785   0.00000  Uiso   1.00
Cl1219 Cl    0.56297   0.95289   0.78496   0.00000  Uiso   1.00
Cl1220 Cl    0.43701   0.71242   0.72035   0.00000  Uiso   1.00
Cl1221 Cl    0.52957   0.76995   0.81219   0.00000  Uiso   1.00
Cl1222 Cl    0.47098   0.89696   0.68885   0.00000  Uiso   1.00
Cl1223 Cl    0.42298   0.76918   0.81188   0.00000  Uiso   1.00
Cl1224 Cl    0.57846   0.89515   0.68556   0.00000  Uiso   1.00
C1225  C     0.66725   0.75426   0.74779   0.00000  Uiso   1.00
C1226  C     0.99925   0.91230   0.75275   0.00000  Uiso   1.00
C1227  C     0.86181   0.86894   0.54660   0.00000  Uiso   1.00
C1228  C     0.80637   0.88187   0.95830   0.00000  Uiso   1.00
C1229  C     0.91100   0.86227   0.52112   0.00000  Uiso   1.00
C1230  C     0.76086   0.86124   0.97890   0.00000  Uiso   1.00
C1231  C     0.95657   0.68708   0.75343   0.00000  Uiso   1.00
C1232  C     0.70948   0.97961   0.74802   0.00000  Uiso   1.00
C1233  C     0.95482   0.97789   0.76137   0.00000  Uiso   1.00
C1234  C     0.71123   0.68835   0.74017   0.00000  Uiso   1.00
C1235  C     0.99863   0.95699   0.75555   0.00000  Uiso   1.00
C1236  C     0.66752   0.70943   0.74609   0.00000  Uiso   1.00
C1237  C     0.84755   0.80606   0.77697   0.00000  Uiso   1.00
C1238  C     0.81931   0.86052   0.72319   0.00000  Uiso   1.00
C1239  C     0.79840   0.80591   0.77684   0.00000  Uiso   1.00
C1240  C     0.86859   0.86028   0.72270   0.00000  Uiso   1.00
C1241  C     0.97094   0.83379   0.83607   0.00000  Uiso   1.00
C1242  C     0.69536   0.83478   0.66442   0.00000  Uiso   1.00
C1243  C     0.95228   0.83750   0.88526   0.00000  Uiso   1.00
C1244  C     0.71390   0.83798   0.61581   0.00000  Uiso   1.00
C1245  C     0.96413   0.83004   0.95649   0.00000  Uiso   1.00
C1246  C     0.71462   0.81556   0.54430   0.00000  Uiso   1.00
C1247  C     0.98253   0.82803   0.91036   0.00000  Uiso   1.00
C1248  C     0.69546   0.81164   0.59141   0.00000  Uiso   1.00
C1249  C     0.90314   0.84773   0.90858   0.00000  Uiso   1.00
C1250  C     0.75255   0.86596   0.59355   0.00000  Uiso   1.00
C1251  C     0.88998   0.86069   0.95310   0.00000  Uiso   1.00
C1252  C     0.77582   0.86427   0.54786   0.00000  Uiso   1.00
C1253  C     0.92276   0.85268   0.97641   0.00000  Uiso   1.00
C1254  C     0.74891   0.84736   0.52362   0.00000  Uiso   1.00
C1255  C     0.84264   0.87440   0.97774   0.00000  Uiso   1.00
C1256  C     0.82669   0.87240   0.52499   0.00000  Uiso   1.00
Cu1257 Cu    0.71355   0.83334   0.75000   0.00000  Uiso   1.00
Cu1258 Cu    0.95311   0.83333   0.75000   0.00000  Uiso   1.00
N1259  N     0.78403   0.83334   0.74999   0.00000  Uiso   1.00
N1260  N     0.88264   0.83332   0.75001   0.00000  Uiso   1.00
O1261  O     0.70625   0.77322   0.75000   0.00000  Uiso   1.00
O1262  O     0.96042   0.89345   0.75000   0.00000  Uiso   1.00
O1263  O     0.96039   0.77321   0.75000   0.00000  Uiso   1.00
O1264  O     0.70628   0.89346   0.75000   0.00000  Uiso   1.00
O1265  O     0.68519   0.83334   0.81491   0.00000  Uiso   1.00
O1266  O     0.98148   0.83332   0.68508   0.00000  Uiso   1.00
O1267  O     0.93933   0.83333   0.81492   0.00000  Uiso   1.00
O1268  O     0.72733   0.83333   0.68508   0.00000  Uiso   1.00
O1269  O     0.94775   0.86260   0.53961   0.00000  Uiso   1.00
H1270  H     0.93848   0.88076   0.56478   0.00000  Uiso   1.00
O1271  O     0.72723   0.85672   0.95768   0.00000  Uiso   1.00
H1272  H     0.74097   0.86916   0.92707   0.00000  Uiso   1.00
Cl1273 Cl    0.75671   0.91292   0.61672   0.00000  Uiso   1.00
Cl1274 Cl    0.85718   0.83020   0.88821   0.00000  Uiso   1.00
O1275  O     0.99227   0.78316   0.61408   0.00000  Uiso   1.00
H1276  H     0.97343   0.77621   0.59457   0.00000  Uiso   1.00
O1277  O     0.69434   0.81177   0.89155   0.00000  Uiso   1.00
H1278  H     0.71628   0.83505   0.87526   0.00000  Uiso   1.00
O1279  O     0.98179   0.80553   0.98328   0.00000  Uiso   1.00
H1280  H     0.99984   0.78302   0.96584   0.00000  Uiso   1.00
O1281  O     0.71020   0.78427   0.51861   0.00000  Uiso   1.00
H1282  H     0.69946   0.75868   0.53747   0.00000  Uiso   1.00
O1283  O     0.84682   0.86676   0.59240   0.00000  Uiso   1.00
H1284  H     0.86956   0.84980   0.60243   0.00000  Uiso   1.00
O1285  O     0.81563   0.90501   0.91891   0.00000  Uiso   1.00
H1286  H     0.84804   0.91918   0.91163   0.00000  Uiso   1.00
O1287  O     0.91545   0.70736   0.75258   0.00000  Uiso   1.00
H1288  H     0.89301   0.68844   0.74491   0.00000  Uiso   1.00
O1289  O     0.75165   0.96163   0.74914   0.00000  Uiso   1.00
H1290  H     0.74291   0.94537   0.77785   0.00000  Uiso   1.00
Cl1291 Cl    0.89630   0.95289   0.78496   0.00000  Uiso   1.00
Cl1292 Cl    0.77034   0.71242   0.72035   0.00000  Uiso   1.00
Cl1293 Cl    0.86290   0.76995   0.81219   0.00000  Uiso   1.00
Cl1294 Cl    0.80431   0.89696   0.68885   0.00000  Uiso   1.00
Cl1295 Cl    0.75631   0.76918   0.81188   0.00000  Uiso   1.00
Cl1296 Cl    0.91179   0.89515   0.68556   0.00000  Uiso   1.00
loop_
_geom_bond_atom_site_label_1
_geom_bond_atom_site_label_2
_geom_bond_distance
_geom_bond_site_symmetry_2
_ccdc_geom_bond_type
C1     O37     1.308   .     A
C1     C12     1.472   .     S
C1     O183    1.311   1_455 S
C2     O38     1.308   .     A
C2     C11     1.471   .     S
C2     O112    1.310   .     S
C3     C5      1.412   .     A
C3     C32     1.414   .     A
C3     O59     1.380   .     S
C4     C31     1.410   .     A
C4     C6      1.407   .     A
C4     O61     1.382   .     S
C5     O45     1.383   .     S
C5     C677    1.409   1_554 S
C6     O47     1.374   .     S
C6     C678    1.405   .     S
C7     O63     1.381   .     S
C7     C441    1.400   1_545 S
C7     C84     1.413   .     S
C8     O65     1.376   .     S
C8     C226    1.385   .     S
C8     C155    1.414   1_455 S
C9     Cl67    1.778   .     S
C9     C11     1.413   .     A
C9     C223    1.400   .     S
C10    Cl68    1.774   .     S
C10    C12     1.413   .     A
C10    C440    1.385   1_545 S
C11    C80     1.414   .     S
C12    C151    1.413   1_455 S
C13    C15     1.428   .     A
C13    N36     1.374   .     A
C13    Cl69    1.758   .     S
C14    Cl70    1.740   .     S
C14    C16     1.425   .     A
C14    N35     1.373   .     A
C15    Cl71    1.761   .     S
C15    N35     1.377   .     A
C16    Cl72    1.764   .     S
C16    N36     1.372   .     A
C17    C19     1.496   .     S
C17    O43     1.311   .     A
C17    O113    1.318   .     S
C18    O44     1.308   .     A
C18    C20     1.464   .     S
C18    O186    1.305   1_455 S
C19    C23     1.404   .     A
C19    C25     1.423   .     A
C20    C24     1.406   .     A
C20    C26     1.405   .     A
C21    C29     1.398   .     A
C21    C23     1.397   .     A
C21    O55     1.372   .     S
C22    O57     1.376   .     S
C22    C24     1.420   .     A
C22    C30     1.405   .     A
C23    O125    1.372   .     S
C24    O195    1.381   1_455 S
C25    C27     1.434   .     A
C25    Cl50    1.771   .     S
C26    C28     1.394   .     A
C26    Cl49    1.760   .     S
C27    C29     1.413   .     A
C27    C31     1.426   .     A
C28    C30     1.399   .     A
C28    C32     1.424   .     A
C29    C653    1.409   .     S
C30    C654    1.405   1_554 S
C31    C680    1.424   .     S
C32    C679    1.424   1_554 S
Cu33   O40     1.983   .     S
Cu33   O41     1.962   .     S
Cu33   N35     2.045   .     S
Cu33   O44     1.981   .     S
Cu33   O37     1.977   .     S
Cu33   Cu178   2.721   1_455 S
Cu34   N36     2.045   .     S
Cu34   O39     1.983   .     S
Cu34   O38     1.977   .     S
Cu34   O43     1.981   .     S
Cu34   O42     1.962   .     S
Cu34   Cu105   2.721   .     S
O39    C73     1.311   .     S
O40    C146    1.310   1_455 S
O41    C161    1.318   1_455 S
O42    C90     1.305   .     S
O45    H46     0.991   .     S
O47    H48     0.990   .     S
O51    H52     0.991   .     S
O51    C96     1.381   .     S
O53    H54     0.991   .     S
O53    C167    1.372   1_455 S
O55    H56     0.992   .     S
O57    H58     0.990   .     S
O59    H60     0.991   .     S
O61    H62     0.992   .     S
O63    H64     0.990   .     S
O65    H66     0.992   .     S
C73    O109    1.308   .     A
C73    C84     1.472   .     S
C74    O110    1.308   .     A
C74    C83     1.471   .     S
C74    O184    1.310   .     S
C75    C77     1.412   .     A
C75    C104    1.414   .     A
C75    O131    1.380   .     S
C76    C103    1.410   .     A
C76    C78     1.407   .     A
C76    O133    1.382   .     S
C77    O117    1.383   .     S
C77    C749    1.409   1_554 S
C78    O119    1.374   .     S
C78    C750    1.405   .     S
C79    O135    1.381   .     S
C79    C513    1.400   1_545 S
C79    C156    1.413   .     S
C80    O137    1.376   .     S
C80    C298    1.385   .     S
C81    Cl139   1.778   .     S
C81    C83     1.413   .     A
C81    C295    1.400   .     S
C82    Cl140   1.774   .     S
C82    C84     1.413   .     A
C82    C512    1.385   1_545 S
C83    C152    1.414   .     S
C85    C87     1.428   .     A
C85    N108    1.374   .     A
C85    Cl141   1.758   .     S
C86    Cl142   1.740   .     S
C86    C88     1.425   .     A
C86    N107    1.373   .     A
C87    Cl143   1.761   .     S
C87    N107    1.377   .     A
C88    Cl144   1.764   .     S
C88    N108    1.372   .     A
C89    C91     1.496   .     S
C89    O115    1.311   .     A
C89    O185    1.318   .     S
C90    O116    1.308   .     A
C90    C92     1.464   .     S
C91    C95     1.404   .     A
C91    C97     1.423   .     A
C92    C96     1.406   .     A
C92    C98     1.405   .     A
C93    C101    1.398   .     A
C93    C95     1.397   .     A
C93    O127    1.372   .     S
C94    O129    1.376   .     S
C94    C96     1.420   .     A
C94    C102    1.405   .     A
C95    O197    1.372   .     S
C97    C99     1.434   .     A
C97    Cl122   1.771   .     S
C98    C100    1.394   .     A
C98    Cl121   1.760   .     S
C99    C101    1.413   .     A
C99    C103    1.426   .     A
C100   C102    1.399   .     A
C100   C104    1.424   .     A
C101   C725    1.409   .     S
C102   C726    1.405   1_554 S
C103   C752    1.424   .     S
C104   C751    1.424   1_554 S
Cu105  O112    1.983   .     S
Cu105  O113    1.962   .     S
Cu105  N107    2.045   .     S
Cu105  O116    1.981   .     S
Cu105  O109    1.977   .     S
Cu106  N108    2.045   .     S
Cu106  O111    1.983   .     S
Cu106  O110    1.977   .     S
Cu106  O115    1.981   .     S
Cu106  O114    1.962   .     S
Cu106  Cu177   2.721   .     S
O111   C145    1.311   .     S
O114   C162    1.305   .     S
O117   H118    0.991   .     S
O119   H120    0.990   .     S
O123   H124    0.991   .     S
O123   C168    1.381   .     S
O125   H126    0.991   .     S
O127   H128    0.992   .     S
O129   H130    0.990   .     S
O131   H132    0.991   .     S
O133   H134    0.992   .     S
O135   H136    0.990   .     S
O137   H138    0.992   .     S
C145   O181    1.308   .     A
C145   C156    1.472   .     S
C146   O182    1.308   .     A
C146   C155    1.471   .     S
C146   O40     1.310   1_655 S
C147   C149    1.412   .     A
C147   C176    1.414   .     A
C147   O203    1.380   .     S
C148   C175    1.410   .     A
C148   C150    1.407   .     A
C148   O205    1.382   .     S
C149   O189    1.383   .     S
C149   C821    1.409   1_554 S
C150   O191    1.374   .     S
C150   C822    1.405   .     S
C151   O207    1.381   .     S
C151   C585    1.400   1_545 S
C151   C12     1.413   1_655 S
C152   O209    1.376   .     S
C152   C370    1.385   .     S
C153   Cl211   1.778   .     S
C153   C155    1.413   .     A
C153   C367    1.400   .     S
C154   Cl212   1.774   .     S
C154   C156    1.413   .     A
C154   C584    1.385   1_545 S
C155   C8      1.414   1_655 S
C157   C159    1.428   .     A
C157   N180    1.374   .     A
C157   Cl213   1.758   .     S
C158   Cl214   1.740   .     S
C158   C160    1.425   .     A
C158   N179    1.373   .     A
C159   Cl215   1.761   .     S
C159   N179    1.377   .     A
C160   Cl216   1.764   .     S
C160   N180    1.372   .     A
C161   C163    1.496   .     S
C161   O187    1.311   .     A
C161   O41     1.318   1_655 S
C162   O188    1.308   .     A
C162   C164    1.464   .     S
C163   C167    1.404   .     A
C163   C169    1.423   .     A
C164   C168    1.406   .     A
C164   C170    1.405   .     A
C165   C173    1.398   .     A
C165   C167    1.397   .     A
C165   O199    1.372   .     S
C166   O201    1.376   .     S
C166   C168    1.420   .     A
C166   C174    1.405   .     A
C167   O53     1.372   1_655 S
C169   C171    1.434   .     A
C169   Cl194   1.771   .     S
C170   C172    1.394   .     A
C170   Cl193   1.760   .     S
C171   C173    1.413   .     A
C171   C175    1.426   .     A
C172   C174    1.399   .     A
C172   C176    1.424   .     A
C173   C797    1.409   .     S
C174   C798    1.405   1_554 S
C175   C824    1.424   .     S
C176   C823    1.424   1_554 S
Cu177  O184    1.983   .     S
Cu177  O185    1.962   .     S
Cu177  N179    2.045   .     S
Cu177  O188    1.981   .     S
Cu177  O181    1.977   .     S
Cu178  N180    2.045   .     S
Cu178  O183    1.983   .     S
Cu178  O182    1.977   .     S
Cu178  O187    1.981   .     S
Cu178  O186    1.962   .     S
Cu178  Cu33    2.721   1_655 S
O183   C1      1.311   1_655 S
O186   C18     1.305   1_655 S
O189   H190    0.991   .     S
O191   H192    0.990   .     S
O195   H196    0.991   .     S
O195   C24     1.381   1_655 S
O197   H198    0.991   .     S
O199   H200    0.992   .     S
O201   H202    0.990   .     S
O203   H204    0.991   .     S
O205   H206    0.992   .     S
O207   H208    0.990   .     S
O209   H210    0.992   .     S
C217   O253    1.308   .     A
C217   C228    1.472   .     S
C217   O399    1.311   1_455 S
C218   O254    1.308   .     A
C218   C227    1.471   .     S
C218   O328    1.310   .     S
C219   C221    1.412   .     A
C219   C248    1.414   .     A
C219   O275    1.380   .     S
C220   C247    1.410   .     A
C220   C222    1.407   .     A
C220   O277    1.382   .     S
C221   O261    1.383   .     S
C221   C893    1.409   1_554 S
C222   O263    1.374   .     S
C222   C894    1.405   .     S
C223   O279    1.381   .     S
C223   C300    1.413   .     S
C224   O281    1.376   .     S
C224   C442    1.385   .     S
C224   C371    1.414   1_455 S
C225   Cl283   1.778   .     S
C225   C227    1.413   .     A
C225   C439    1.400   .     S
C226   Cl284   1.774   .     S
C226   C228    1.413   .     A
C227   C296    1.414   .     S
C228   C367    1.413   1_455 S
C229   C231    1.428   .     A
C229   N252    1.374   .     A
C229   Cl285   1.758   .     S
C230   Cl286   1.740   .     S
C230   C232    1.425   .     A
C230   N251    1.373   .     A
C231   Cl287   1.761   .     S
C231   N251    1.377   .     A
C232   Cl288   1.764   .     S
C232   N252    1.372   .     A
C233   C235    1.496   .     S
C233   O259    1.311   .     A
C233   O329    1.318   .     S
C234   O260    1.308   .     A
C234   C236    1.464   .     S
C234   O402    1.305   1_455 S
C235   C239    1.404   .     A
C235   C241    1.423   .     A
C236   C240    1.406   .     A
C236   C242    1.405   .     A
C237   C245    1.398   .     A
C237   C239    1.397   .     A
C237   O271    1.372   .     S
C238   O273    1.376   .     S
C238   C240    1.420   .     A
C238   C246    1.405   .     A
C239   O341    1.372   .     S
C240   O411    1.381   1_455 S
C241   C243    1.434   .     A
C241   Cl266   1.771   .     S
C242   C244    1.394   .     A
C242   Cl265   1.760   .     S
C243   C245    1.413   .     A
C243   C247    1.426   .     A
C244   C246    1.399   .     A
C244   C248    1.424   .     A
C245   C869    1.409   .     S
C246   C870    1.405   1_554 S
C247   C896    1.424   .     S
C248   C895    1.424   1_554 S
Cu249  O256    1.983   .     S
Cu249  O257    1.962   .     S
Cu249  N251    2.045   .     S
Cu249  O260    1.981   .     S
Cu249  O253    1.977   .     S
Cu249  Cu394   2.721   1_455 S
Cu250  N252    2.045   .     S
Cu250  O255    1.983   .     S
Cu250  O254    1.977   .     S
Cu250  O259    1.981   .     S
Cu250  O258    1.962   .     S
Cu250  Cu321   2.721   .     S
O255   C289    1.311   .     S
O256   C362    1.310   1_455 S
O257   C377    1.318   1_455 S
O258   C306    1.305   .     S
O261   H262    0.991   .     S
O263   H264    0.990   .     S
O267   H268    0.991   .     S
O267   C312    1.381   .     S
O269   H270    0.991   .     S
O269   C383    1.372   1_455 S
O271   H272    0.992   .     S
O273   H274    0.990   .     S
O275   H276    0.991   .     S
O277   H278    0.992   .     S
O279   H280    0.990   .     S
O281   H282    0.992   .     S
C289   O325    1.308   .     A
C289   C300    1.472   .     S
C290   O326    1.308   .     A
C290   C299    1.471   .     S
C290   O400    1.310   .     S
C291   C293    1.412   .     A
C291   C320    1.414   .     A
C291   O347    1.380   .     S
C292   C319    1.410   .     A
C292   C294    1.407   .     A
C292   O349    1.382   .     S
C293   O333    1.383   .     S
C293   C965    1.409   1_554 S
C294   O335    1.374   .     S
C294   C966    1.405   .     S
C295   O351    1.381   .     S
C295   C372    1.413   .     S
C296   O353    1.376   .     S
C296   C514    1.385   .     S
C297   Cl355   1.778   .     S
C297   C299    1.413   .     A
C297   C511    1.400   .     S
C298   Cl356   1.774   .     S
C298   C300    1.413   .     A
C299   C368    1.414   .     S
C301   C303    1.428   .     A
C301   N324    1.374   .     A
C301   Cl357   1.758   .     S
C302   Cl358   1.740   .     S
C302   C304    1.425   .     A
C302   N323    1.373   .     A
C303   Cl359   1.761   .     S
C303   N323    1.377   .     A
C304   Cl360   1.764   .     S
C304   N324    1.372   .     A
C305   C307    1.496   .     S
C305   O331    1.311   .     A
C305   O401    1.318   .     S
C306   O332    1.308   .     A
C306   C308    1.464   .     S
C307   C311    1.404   .     A
C307   C313    1.423   .     A
C308   C312    1.406   .     A
C308   C314    1.405   .     A
C309   C317    1.398   .     A
C309   C311    1.397   .     A
C309   O343    1.372   .     S
C310   O345    1.376   .     S
C310   C312    1.420   .     A
C310   C318    1.405   .     A
C311   O413    1.372   .     S
C313   C315    1.434   .     A
C313   Cl338   1.771   .     S
C314   C316    1.394   .     A
C314   Cl337   1.760   .     S
C315   C317    1.413   .     A
C315   C319    1.426   .     A
C316   C318    1.399   .     A
C316   C320    1.424   .     A
C317   C941    1.409   .     S
C318   C942    1.405   1_554 S
C319   C968    1.424   .     S
C320   C967    1.424   1_554 S
Cu321  O328    1.983   .     S
Cu321  O329    1.962   .     S
Cu321  N323    2.045   .     S
Cu321  O332    1.981   .     S
Cu321  O325    1.977   .     S
Cu322  N324    2.045   .     S
Cu322  O327    1.983   .     S
Cu322  O326    1.977   .     S
Cu322  O331    1.981   .     S
Cu322  O330    1.962   .     S
Cu322  Cu393   2.721   .     S
O327   C361    1.311   .     S
O330   C378    1.305   .     S
O333   H334    0.991   .     S
O335   H336    0.990   .     S
O339   H340    0.991   .     S
O339   C384    1.381   .     S
O341   H342    0.991   .     S
O343   H344    0.992   .     S
O345   H346    0.990   .     S
O347   H348    0.991   .     S
O349   H350    0.992   .     S
O351   H352    0.990   .     S
O353   H354    0.992   .     S
C361   O397    1.308   .     A
C361   C372    1.472   .     S
C362   O398    1.308   .     A
C362   C371    1.471   .     S
C362   O256    1.310   1_655 S
C363   C365    1.412   .     A
C363   C392    1.414   .     A
C363   O419    1.380   .     S
C364   C391    1.410   .     A
C364   C366    1.407   .     A
C364   O421    1.382   .     S
C365   O405    1.383   .     S
C365   C1037   1.409   1_554 S
C366   O407    1.374   .     S
C366   C1038   1.405   .     S
C367   O423    1.381   .     S
C367   C228    1.413   1_655 S
C368   O425    1.376   .     S
C368   C586    1.385   .     S
C369   Cl427   1.778   .     S
C369   C371    1.413   .     A
C369   C583    1.400   .     S
C370   Cl428   1.774   .     S
C370   C372    1.413   .     A
C371   C224    1.414   1_655 S
C373   C375    1.428   .     A
C373   N396    1.374   .     A
C373   Cl429   1.758   .     S
C374   Cl430   1.740   .     S
C374   C376    1.425   .     A
C374   N395    1.373   .     A
C375   Cl431   1.761   .     S
C375   N395    1.377   .     A
C376   Cl432   1.764   .     S
C376   N396    1.372   .     A
C377   C379    1.496   .     S
C377   O403    1.311   .     A
C377   O257    1.318   1_655 S
C378   O404    1.308   .     A
C378   C380    1.464   .     S
C379   C383    1.404   .     A
C379   C385    1.423   .     A
C380   C384    1.406   .     A
C380   C386    1.405   .     A
C381   C389    1.398   .     A
C381   C383    1.397   .     A
C381   O415    1.372   .     S
C382   O417    1.376   .     S
C382   C384    1.420   .     A
C382   C390    1.405   .     A
C383   O269    1.372   1_655 S
C385   C387    1.434   .     A
C385   Cl410   1.771   .     S
C386   C388    1.394   .     A
C386   Cl409   1.760   .     S
C387   C389    1.413   .     A
C387   C391    1.426   .     A
C388   C390    1.399   .     A
C388   C392    1.424   .     A
C389   C1013   1.409   .     S
C390   C1014   1.405   1_554 S
C391   C1040   1.424   .     S
C392   C1039   1.424   1_554 S
Cu393  O400    1.983   .     S
Cu393  O401    1.962   .     S
Cu393  N395    2.045   .     S
Cu393  O404    1.981   .     S
Cu393  O397    1.977   .     S
Cu394  N396    2.045   .     S
Cu394  O399    1.983   .     S
Cu394  O398    1.977   .     S
Cu394  O403    1.981   .     S
Cu394  O402    1.962   .     S
Cu394  Cu249   2.721   1_655 S
O399   C217    1.311   1_655 S
O402   C234    1.305   1_655 S
O405   H406    0.991   .     S
O407   H408    0.990   .     S
O411   H412    0.991   .     S
O411   C240    1.381   1_655 S
O413   H414    0.991   .     S
O415   H416    0.992   .     S
O417   H418    0.990   .     S
O419   H420    0.991   .     S
O421   H422    0.992   .     S
O423   H424    0.990   .     S
O425   H426    0.992   .     S
C433   O469    1.308   .     A
C433   C444    1.472   .     S
C433   O615    1.311   1_455 S
C434   O470    1.308   .     A
C434   C443    1.471   .     S
C434   O544    1.310   .     S
C435   C437    1.412   .     A
C435   C464    1.414   .     A
C435   O491    1.380   .     S
C436   C463    1.410   .     A
C436   C438    1.407   .     A
C436   O493    1.382   .     S
C437   O477    1.383   .     S
C437   C1109   1.409   1_554 S
C438   O479    1.374   .     S
C438   C1110   1.405   .     S
C439   O495    1.381   .     S
C439   C516    1.413   .     S
C440   O497    1.376   .     S
C440   C10     1.385   1_565 S
C440   C587    1.414   1_455 S
C441   Cl499   1.778   .     S
C441   C443    1.413   .     A
C441   C7      1.400   1_565 S
C442   Cl500   1.774   .     S
C442   C444    1.413   .     A
C443   C512    1.414   .     S
C444   C583    1.413   1_455 S
C445   C447    1.428   .     A
C445   N468    1.374   .     A
C445   Cl501   1.758   .     S
C446   Cl502   1.740   .     S
C446   C448    1.425   .     A
C446   N467    1.373   .     A
C447   Cl503   1.761   .     S
C447   N467    1.377   .     A
C448   Cl504   1.764   .     S
C448   N468    1.372   .     A
C449   C451    1.496   .     S
C449   O475    1.311   .     A
C449   O545    1.318   .     S
C450   O476    1.308   .     A
C450   C452    1.464   .     S
C450   O618    1.305   1_455 S
C451   C455    1.404   .     A
C451   C457    1.423   .     A
C452   C456    1.406   .     A
C452   C458    1.405   .     A
C453   C461    1.398   .     A
C453   C455    1.397   .     A
C453   O487    1.372   .     S
C454   O489    1.376   .     S
C454   C456    1.420   .     A
C454   C462    1.405   .     A
C455   O557    1.372   .     S
C456   O627    1.381   1_455 S
C457   C459    1.434   .     A
C457   Cl482   1.771   .     S
C458   C460    1.394   .     A
C458   Cl481   1.760   .     S
C459   C461    1.413   .     A
C459   C463    1.426   .     A
C460   C462    1.399   .     A
C460   C464    1.424   .     A
C461   C1085   1.409   .     S
C462   C1086   1.405   1_554 S
C463   C1112   1.424   .     S
C464   C1111   1.424   1_554 S
Cu465  O472    1.983   .     S
Cu465  O473    1.962   .     S
Cu465  N467    2.045   .     S
Cu465  O476    1.981   .     S
Cu465  O469    1.977   .     S
Cu465  Cu610   2.721   1_455 S
Cu466  N468    2.045   .     S
Cu466  O471    1.983   .     S
Cu466  O470    1.977   .     S
Cu466  O475    1.981   .     S
Cu466  O474    1.962   .     S
Cu466  Cu537   2.721   .     S
O471   C505    1.311   .     S
O472   C578    1.310   1_455 S
O473   C593    1.318   1_455 S
O474   C522    1.305   .     S
O477   H478    0.991   .     S
O479   H480    0.990   .     S
O483   H484    0.991   .     S
O483   C528    1.381   .     S
O485   H486    0.991   .     S
O485   C599    1.372   1_455 S
O487   H488    0.992   .     S
O489   H490    0.990   .     S
O491   H492    0.991   .     S
O493   H494    0.992   .     S
O495   H496    0.990   .     S
O497   H498    0.992   .     S
C505   O541    1.308   .     A
C505   C516    1.472   .     S
C506   O542    1.308   .     A
C506   C515    1.471   .     S
C506   O616    1.310   .     S
C507   C509    1.412   .     A
C507   C536    1.414   .     A
C507   O563    1.380   .     S
C508   C535    1.410   .     A
C508   C510    1.407   .     A
C508   O565    1.382   .     S
C509   O549    1.383   .     S
C509   C1181   1.409   1_554 S
C510   O551    1.374   .     S
C510   C1182   1.405   .     S
C511   O567    1.381   .     S
C511   C588    1.413   .     S
C512   O569    1.376   .     S
C512   C82     1.385   1_565 S
C513   Cl571   1.778   .     S
C513   C515    1.413   .     A
C513   C79     1.400   1_565 S
C514   Cl572   1.774   .     S
C514   C516    1.413   .     A
C515   C584    1.414   .     S
C517   C519    1.428   .     A
C517   N540    1.374   .     A
C517   Cl573   1.758   .     S
C518   Cl574   1.740   .     S
C518   C520    1.425   .     A
C518   N539    1.373   .     A
C519   Cl575   1.761   .     S
C519   N539    1.377   .     A
C520   Cl576   1.764   .     S
C520   N540    1.372   .     A
C521   C523    1.496   .     S
C521   O547    1.311   .     A
C521   O617    1.318   .     S
C522   O548    1.308   .     A
C522   C524    1.464   .     S
C523   C527    1.404   .     A
C523   C529    1.423   .     A
C524   C528    1.406   .     A
C524   C530    1.405   .     A
C525   C533    1.398   .     A
C525   C527    1.397   .     A
C525   O559    1.372   .     S
C526   O561    1.376   .     S
C526   C528    1.420   .     A
C526   C534    1.405   .     A
C527   O629    1.372   .     S
C529   C531    1.434   .     A
C529   Cl554   1.771   .     S
C530   C532    1.394   .     A
C530   Cl553   1.760   .     S
C531   C533    1.413   .     A
C531   C535    1.426   .     A
C532   C534    1.399   .     A
C532   C536    1.424   .     A
C533   C1157   1.409   .     S
C534   C1158   1.405   1_554 S
C535   C1184   1.424   .     S
C536   C1183   1.424   1_554 S
Cu537  O544    1.983   .     S
Cu537  O545    1.962   .     S
Cu537  N539    2.045   .     S
Cu537  O548    1.981   .     S
Cu537  O541    1.977   .     S
Cu538  N540    2.045   .     S
Cu538  O543    1.983   .     S
Cu538  O542    1.977   .     S
Cu538  O547    1.981   .     S
Cu538  O546    1.962   .     S
Cu538  Cu609   2.721   .     S
O543   C577    1.311   .     S
O546   C594    1.305   .     S
O549   H550    0.991   .     S
O551   H552    0.990   .     S
O555   H556    0.991   .     S
O555   C600    1.381   .     S
O557   H558    0.991   .     S
O559   H560    0.992   .     S
O561   H562    0.990   .     S
O563   H564    0.991   .     S
O565   H566    0.992   .     S
O567   H568    0.990   .     S
O569   H570    0.992   .     S
C577   O613    1.308   .     A
C577   C588    1.472   .     S
C578   O614    1.308   .     A
C578   C587    1.471   .     S
C578   O472    1.310   1_655 S
C579   C581    1.412   .     A
C579   C608    1.414   .     A
C579   O635    1.380   .     S
C580   C607    1.410   .     A
C580   C582    1.407   .     A
C580   O637    1.382   .     S
C581   O621    1.383   .     S
C581   C1253   1.409   1_554 S
C582   O623    1.374   .     S
C582   C1254   1.405   .     S
C583   O639    1.381   .     S
C583   C444    1.413   1_655 S
C584   O641    1.376   .     S
C584   C154    1.385   1_565 S
C585   Cl643   1.778   .     S
C585   C587    1.413   .     A
C585   C151    1.400   1_565 S
C586   Cl644   1.774   .     S
C586   C588    1.413   .     A
C587   C440    1.414   1_655 S
C589   C591    1.428   .     A
C589   N612    1.374   .     A
C589   Cl645   1.758   .     S
C590   Cl646   1.740   .     S
C590   C592    1.425   .     A
C590   N611    1.373   .     A
C591   Cl647   1.761   .     S
C591   N611    1.377   .     A
C592   Cl648   1.764   .     S
C592   N612    1.372   .     A
C593   C595    1.496   .     S
C593   O619    1.311   .     A
C593   O473    1.318   1_655 S
C594   O620    1.308   .     A
C594   C596    1.464   .     S
C595   C599    1.404   .     A
C595   C601    1.423   .     A
C596   C600    1.406   .     A
C596   C602    1.405   .     A
C597   C605    1.398   .     A
C597   C599    1.397   .     A
C597   O631    1.372   .     S
C598   O633    1.376   .     S
C598   C600    1.420   .     A
C598   C606    1.405   .     A
C599   O485    1.372   1_655 S
C601   C603    1.434   .     A
C601   Cl626   1.771   .     S
C602   C604    1.394   .     A
C602   Cl625   1.760   .     S
C603   C605    1.413   .     A
C603   C607    1.426   .     A
C604   C606    1.399   .     A
C604   C608    1.424   .     A
C605   C1229   1.409   .     S
C606   C1230   1.405   1_554 S
C607   C1256   1.424   .     S
C608   C1255   1.424   1_554 S
Cu609  O616    1.983   .     S
Cu609  O617    1.962   .     S
Cu609  N611    2.045   .     S
Cu609  O620    1.981   .     S
Cu609  O613    1.977   .     S
Cu610  N612    2.045   .     S
Cu610  O615    1.983   .     S
Cu610  O614    1.977   .     S
Cu610  O619    1.981   .     S
Cu610  O618    1.962   .     S
Cu610  Cu465   2.721   1_655 S
O615   C433    1.311   1_655 S
O618   C450    1.305   1_655 S
O621   H622    0.991   .     S
O623   H624    0.990   .     S
O627   H628    0.991   .     S
O627   C456    1.381   1_655 S
O629   H630    0.991   .     S
O631   H632    0.992   .     S
O633   H634    0.990   .     S
O635   H636    0.991   .     S
O637   H638    0.992   .     S
O639   H640    0.990   .     S
O641   H642    0.992   .     S
C649   O685    1.308   .     A
C649   C660    1.472   .     S
C649   O831    1.311   1_455 S
C650   O686    1.308   .     A
C650   C659    1.471   .     S
C650   O760    1.310   .     S
C651   C653    1.412   .     A
C651   C680    1.414   .     A
C651   O707    1.380   .     S
C652   C679    1.410   .     A
C652   C654    1.407   .     A
C652   O709    1.382   .     S
C653   O693    1.383   .     S
C654   O695    1.374   .     S
C654   C30     1.405   1_556 S
C655   O711    1.381   .     S
C655   C1089   1.400   1_545 S
C655   C732    1.413   .     S
C656   O713    1.376   .     S
C656   C874    1.385   .     S
C656   C803    1.414   1_455 S
C657   Cl715   1.778   .     S
C657   C659    1.413   .     A
C657   C871    1.400   .     S
C658   Cl716   1.774   .     S
C658   C660    1.413   .     A
C658   C1088   1.385   1_545 S
C659   C728    1.414   .     S
C660   C799    1.413   1_455 S
C661   C663    1.428   .     A
C661   N684    1.374   .     A
C661   Cl717   1.758   .     S
C662   Cl718   1.740   .     S
C662   C664    1.425   .     A
C662   N683    1.373   .     A
C663   Cl719   1.761   .     S
C663   N683    1.377   .     A
C664   Cl720   1.764   .     S
C664   N684    1.372   .     A
C665   C667    1.496   .     S
C665   O691    1.311   .     A
C665   O761    1.318   .     S
C666   O692    1.308   .     A
C666   C668    1.464   .     S
C666   O834    1.305   1_455 S
C667   C671    1.404   .     A
C667   C673    1.423   .     A
C668   C672    1.406   .     A
C668   C674    1.405   .     A
C669   C677    1.398   .     A
C669   C671    1.397   .     A
C669   O703    1.372   .     S
C670   O705    1.376   .     S
C670   C672    1.420   .     A
C670   C678    1.405   .     A
C671   O773    1.372   .     S
C672   O843    1.381   1_455 S
C673   C675    1.434   .     A
C673   Cl698   1.771   .     S
C674   C676    1.394   .     A
C674   Cl697   1.760   .     S
C675   C677    1.413   .     A
C675   C679    1.426   .     A
C676   C678    1.399   .     A
C676   C680    1.424   .     A
C677   C5      1.409   1_556 S
C679   C32     1.424   1_556 S
Cu681  O688    1.983   .     S
Cu681  O689    1.962   .     S
Cu681  N683    2.045   .     S
Cu681  O692    1.981   .     S
Cu681  O685    1.977   .     S
Cu681  Cu826   2.721   1_455 S
Cu682  N684    2.045   .     S
Cu682  O687    1.983   .     S
Cu682  O686    1.977   .     S
Cu682  O691    1.981   .     S
Cu682  O690    1.962   .     S
Cu682  Cu753   2.721   .     S
O687   C721    1.311   .     S
O688   C794    1.310   1_455 S
O689   C809    1.318   1_455 S
O690   C738    1.305   .     S
O693   H694    0.991   .     S
O695   H696    0.990   .     S
O699   H700    0.991   .     S
O699   C744    1.381   .     S
O701   H702    0.991   .     S
O701   C815    1.372   1_455 S
O703   H704    0.992   .     S
O705   H706    0.990   .     S
O707   H708    0.991   .     S
O709   H710    0.992   .     S
O711   H712    0.990   .     S
O713   H714    0.992   .     S
C721   O757    1.308   .     A
C721   C732    1.472   .     S
C722   O758    1.308   .     A
C722   C731    1.471   .     S
C722   O832    1.310   .     S
C723   C725    1.412   .     A
C723   C752    1.414   .     A
C723   O779    1.380   .     S
C724   C751    1.410   .     A
C724   C726    1.407   .     A
C724   O781    1.382   .     S
C725   O765    1.383   .     S
C726   O767    1.374   .     S
C726   C102    1.405   1_556 S
C727   O783    1.381   .     S
C727   C1161   1.400   1_545 S
C727   C804    1.413   .     S
C728   O785    1.376   .     S
C728   C946    1.385   .     S
C729   Cl787   1.778   .     S
C729   C731    1.413   .     A
C729   C943    1.400   .     S
C730   Cl788   1.774   .     S
C730   C732    1.413   .     A
C730   C1160   1.385   1_545 S
C731   C800    1.414   .     S
C733   C735    1.428   .     A
C733   N756    1.374   .     A
C733   Cl789   1.758   .     S
C734   Cl790   1.740   .     S
C734   C736    1.425   .     A
C734   N755    1.373   .     A
C735   Cl791   1.761   .     S
C735   N755    1.377   .     A
C736   Cl792   1.764   .     S
C736   N756    1.372   .     A
C737   C739    1.496   .     S
C737   O763    1.311   .     A
C737   O833    1.318   .     S
C738   O764    1.308   .     A
C738   C740    1.464   .     S
C739   C743    1.404   .     A
C739   C745    1.423   .     A
C740   C744    1.406   .     A
C740   C746    1.405   .     A
C741   C749    1.398   .     A
C741   C743    1.397   .     A
C741   O775    1.372   .     S
C742   O777    1.376   .     S
C742   C744    1.420   .     A
C742   C750    1.405   .     A
C743   O845    1.372   .     S
C745   C747    1.434   .     A
C745   Cl770   1.771   .     S
C746   C748    1.394   .     A
C746   Cl769   1.760   .     S
C747   C749    1.413   .     A
C747   C751    1.426   .     A
C748   C750    1.399   .     A
C748   C752    1.424   .     A
C749   C77     1.409   1_556 S
C751   C104    1.424   1_556 S
Cu753  O760    1.983   .     S
Cu753  O761    1.962   .     S
Cu753  N755    2.045   .     S
Cu753  O764    1.981   .     S
Cu753  O757    1.977   .     S
Cu754  N756    2.045   .     S
Cu754  O759    1.983   .     S
Cu754  O758    1.977   .     S
Cu754  O763    1.981   .     S
Cu754  O762    1.962   .     S
Cu754  Cu825   2.721   .     S
O759   C793    1.311   .     S
O762   C810    1.305   .     S
O765   H766    0.991   .     S
O767   H768    0.990   .     S
O771   H772    0.991   .     S
O771   C816    1.381   .     S
O773   H774    0.991   .     S
O775   H776    0.992   .     S
O777   H778    0.990   .     S
O779   H780    0.991   .     S
O781   H782    0.992   .     S
O783   H784    0.990   .     S
O785   H786    0.992   .     S
C793   O829    1.308   .     A
C793   C804    1.472   .     S
C794   O830    1.308   .     A
C794   C803    1.471   .     S
C794   O688    1.310   1_655 S
C795   C797    1.412   .     A
C795   C824    1.414   .     A
C795   O851    1.380   .     S
C796   C823    1.410   .     A
C796   C798    1.407   .     A
C796   O853    1.382   .     S
C797   O837    1.383   .     S
C798   O839    1.374   .     S
C798   C174    1.405   1_556 S
C799   O855    1.381   .     S
C799   C1233   1.400   1_545 S
C799   C660    1.413   1_655 S
C800   O857    1.376   .     S
C800   C1018   1.385   .     S
C801   Cl859   1.778   .     S
C801   C803    1.413   .     A
C801   C1015   1.400   .     S
C802   Cl860   1.774   .     S
C802   C804    1.413   .     A
C802   C1232   1.385   1_545 S
C803   C656    1.414   1_655 S
C805   C807    1.428   .     A
C805   N828    1.374   .     A
C805   Cl861   1.758   .     S
C806   Cl862   1.740   .     S
C806   C808    1.425   .     A
C806   N827    1.373   .     A
C807   Cl863   1.761   .     S
C807   N827    1.377   .     A
C808   Cl864   1.764   .     S
C808   N828    1.372   .     A
C809   C811    1.496   .     S
C809   O835    1.311   .     A
C809   O689    1.318   1_655 S
C810   O836    1.308   .     A
C810   C812    1.464   .     S
C811   C815    1.404   .     A
C811   C817    1.423   .     A
C812   C816    1.406   .     A
C812   C818    1.405   .     A
C813   C821    1.398   .     A
C813   C815    1.397   .     A
C813   O847    1.372   .     S
C814   O849    1.376   .     S
C814   C816    1.420   .     A
C814   C822    1.405   .     A
C815   O701    1.372   1_655 S
C817   C819    1.434   .     A
C817   Cl842   1.771   .     S
C818   C820    1.394   .     A
C818   Cl841   1.760   .     S
C819   C821    1.413   .     A
C819   C823    1.426   .     A
C820   C822    1.399   .     A
C820   C824    1.424   .     A
C821   C149    1.409   1_556 S
C823   C176    1.424   1_556 S
Cu825  O832    1.983   .     S
Cu825  O833    1.962   .     S
Cu825  N827    2.045   .     S
Cu825  O836    1.981   .     S
Cu825  O829    1.977   .     S
Cu826  N828    2.045   .     S
Cu826  O831    1.983   .     S
Cu826  O830    1.977   .     S
Cu826  O835    1.981   .     S
Cu826  O834    1.962   .     S
Cu826  Cu681   2.721   1_655 S
O831   C649    1.311   1_655 S
O834   C666    1.305   1_655 S
O837   H838    0.991   .     S
O839   H840    0.990   .     S
O843   H844    0.991   .     S
O843   C672    1.381   1_655 S
O845   H846    0.991   .     S
O847   H848    0.992   .     S
O849   H850    0.990   .     S
O851   H852    0.991   .     S
O853   H854    0.992   .     S
O855   H856    0.990   .     S
O857   H858    0.992   .     S
C865   O901    1.308   .     A
C865   C876    1.472   .     S
C865   O1047   1.311   1_455 S
C866   O902    1.308   .     A
C866   C875    1.471   .     S
C866   O976    1.310   .     S
C867   C869    1.412   .     A
C867   C896    1.414   .     A
C867   O923    1.380   .     S
C868   C895    1.410   .     A
C868   C870    1.407   .     A
C868   O925    1.382   .     S
C869   O909    1.383   .     S
C870   O911    1.374   .     S
C870   C246    1.405   1_556 S
C871   O927    1.381   .     S
C871   C948    1.413   .     S
C872   O929    1.376   .     S
C872   C1090   1.385   .     S
C872   C1019   1.414   1_455 S
C873   Cl931   1.778   .     S
C873   C875    1.413   .     A
C873   C1087   1.400   .     S
C874   Cl932   1.774   .     S
C874   C876    1.413   .     A
C875   C944    1.414   .     S
C876   C1015   1.413   1_455 S
C877   C879    1.428   .     A
C877   N900    1.374   .     A
C877   Cl933   1.758   .     S
C878   Cl934   1.740   .     S
C878   C880    1.425   .     A
C878   N899    1.373   .     A
C879   Cl935   1.761   .     S
C879   N899    1.377   .     A
C880   Cl936   1.764   .     S
C880   N900    1.372   .     A
C881   C883    1.496   .     S
C881   O907    1.311   .     A
C881   O977    1.318   .     S
C882   O908    1.308   .     A
C882   C884    1.464   .     S
C882   O1050   1.305   1_455 S
C883   C887    1.404   .     A
C883   C889    1.423   .     A
C884   C888    1.406   .     A
C884   C890    1.405   .     A
C885   C893    1.398   .     A
C885   C887    1.397   .     A
C885   O919    1.372   .     S
C886   O921    1.376   .     S
C886   C888    1.420   .     A
C886   C894    1.405   .     A
C887   O989    1.372   .     S
C888   O1059   1.381   1_455 S
C889   C891    1.434   .     A
C889   Cl914   1.771   .     S
C890   C892    1.394   .     A
C890   Cl913   1.760   .     S
C891   C893    1.413   .     A
C891   C895    1.426   .     A
C892   C894    1.399   .     A
C892   C896    1.424   .     A
C893   C221    1.409   1_556 S
C895   C248    1.424   1_556 S
Cu897  O904    1.983   .     S
Cu897  O905    1.962   .     S
Cu897  N899    2.045   .     S
Cu897  O908    1.981   .     S
Cu897  O901    1.977   .     S
Cu897  Cu1042  2.721   1_455 S
Cu898  N900    2.045   .     S
Cu898  O903    1.983   .     S
Cu898  O902    1.977   .     S
Cu898  O907    1.981   .     S
Cu898  O906    1.962   .     S
Cu898  Cu969   2.721   .     S
O903   C937    1.311   .     S
O904   C1010   1.310   1_455 S
O905   C1025   1.318   1_455 S
O906   C954    1.305   .     S
O909   H910    0.991   .     S
O911   H912    0.990   .     S
O915   H916    0.991   .     S
O915   C960    1.381   .     S
O917   H918    0.991   .     S
O917   C1031   1.372   1_455 S
O919   H920    0.992   .     S
O921   H922    0.990   .     S
O923   H924    0.991   .     S
O925   H926    0.992   .     S
O927   H928    0.990   .     S
O929   H930    0.992   .     S
C937   O973    1.308   .     A
C937   C948    1.472   .     S
C938   O974    1.308   .     A
C938   C947    1.471   .     S
C938   O1048   1.310   .     S
C939   C941    1.412   .     A
C939   C968    1.414   .     A
C939   O995    1.380   .     S
C940   C967    1.410   .     A
C940   C942    1.407   .     A
C940   O997    1.382   .     S
C941   O981    1.383   .     S
C942   O983    1.374   .     S
C942   C318    1.405   1_556 S
C943   O999    1.381   .     S
C943   C1020   1.413   .     S
C944   O1001   1.376   .     S
C944   C1162   1.385   .     S
C945   Cl1003  1.778   .     S
C945   C947    1.413   .     A
C945   C1159   1.400   .     S
C946   Cl1004  1.774   .     S
C946   C948    1.413   .     A
C947   C1016   1.414   .     S
C949   C951    1.428   .     A
C949   N972    1.374   .     A
C949   Cl1005  1.758   .     S
C950   Cl1006  1.740   .     S
C950   C952    1.425   .     A
C950   N971    1.373   .     A
C951   Cl1007  1.761   .     S
C951   N971    1.377   .     A
C952   Cl1008  1.764   .     S
C952   N972    1.372   .     A
C953   C955    1.496   .     S
C953   O979    1.311   .     A
C953   O1049   1.318   .     S
C954   O980    1.308   .     A
C954   C956    1.464   .     S
C955   C959    1.404   .     A
C955   C961    1.423   .     A
C956   C960    1.406   .     A
C956   C962    1.405   .     A
C957   C965    1.398   .     A
C957   C959    1.397   .     A
C957   O991    1.372   .     S
C958   O993    1.376   .     S
C958   C960    1.420   .     A
C958   C966    1.405   .     A
C959   O1061   1.372   .     S
C961   C963    1.434   .     A
C961   Cl986   1.771   .     S
C962   C964    1.394   .     A
C962   Cl985   1.760   .     S
C963   C965    1.413   .     A
C963   C967    1.426   .     A
C964   C966    1.399   .     A
C964   C968    1.424   .     A
C965   C293    1.409   1_556 S
C967   C320    1.424   1_556 S
Cu969  O976    1.983   .     S
Cu969  O977    1.962   .     S
Cu969  N971    2.045   .     S
Cu969  O980    1.981   .     S
Cu969  O973    1.977   .     S
Cu970  N972    2.045   .     S
Cu970  O975    1.983   .     S
Cu970  O974    1.977   .     S
Cu970  O979    1.981   .     S
Cu970  O978    1.962   .     S
Cu970  Cu1041  2.721   .     S
O975   C1009   1.311   .     S
O978   C1026   1.305   .     S
O981   H982    0.991   .     S
O983   H984    0.990   .     S
O987   H988    0.991   .     S
O987   C1032   1.381   .     S
O989   H990    0.991   .     S
O991   H992    0.992   .     S
O993   H994    0.990   .     S
O995   H996    0.991   .     S
O997   H998    0.992   .     S
O999   H1000   0.990   .     S
O1001  H1002   0.992   .     S
C1009  O1045   1.308   .     A
C1009  C1020   1.472   .     S
C1010  O1046   1.308   .     A
C1010  C1019   1.471   .     S
C1010  O904    1.310   1_655 S
C1011  C1013   1.412   .     A
C1011  C1040   1.414   .     A
C1011  O1067   1.380   .     S
C1012  C1039   1.410   .     A
C1012  C1014   1.407   .     A
C1012  O1069   1.382   .     S
C1013  O1053   1.383   .     S
C1014  O1055   1.374   .     S
C1014  C390    1.405   1_556 S
C1015  O1071   1.381   .     S
C1015  C876    1.413   1_655 S
C1016  O1073   1.376   .     S
C1016  C1234   1.385   .     S
C1017  Cl1075  1.778   .     S
C1017  C1019   1.413   .     A
C1017  C1231   1.400   .     S
C1018  Cl1076  1.774   .     S
C1018  C1020   1.413   .     A
C1019  C872    1.414   1_655 S
C1021  C1023   1.428   .     A
C1021  N1044   1.374   .     A
C1021  Cl1077  1.758   .     S
C1022  Cl1078  1.740   .     S
C1022  C1024   1.425   .     A
C1022  N1043   1.373   .     A
C1023  Cl1079  1.761   .     S
C1023  N1043   1.377   .     A
C1024  Cl1080  1.764   .     S
C1024  N1044   1.372   .     A
C1025  C1027   1.496   .     S
C1025  O1051   1.311   .     A
C1025  O905    1.318   1_655 S
C1026  O1052   1.308   .     A
C1026  C1028   1.464   .     S
C1027  C1031   1.404   .     A
C1027  C1033   1.423   .     A
C1028  C1032   1.406   .     A
C1028  C1034   1.405   .     A
C1029  C1037   1.398   .     A
C1029  C1031   1.397   .     A
C1029  O1063   1.372   .     S
C1030  O1065   1.376   .     S
C1030  C1032   1.420   .     A
C1030  C1038   1.405   .     A
C1031  O917    1.372   1_655 S
C1033  C1035   1.434   .     A
C1033  Cl1058  1.771   .     S
C1034  C1036   1.394   .     A
C1034  Cl1057  1.760   .     S
C1035  C1037   1.413   .     A
C1035  C1039   1.426   .     A
C1036  C1038   1.399   .     A
C1036  C1040   1.424   .     A
C1037  C365    1.409   1_556 S
C1039  C392    1.424   1_556 S
Cu1041 O1048   1.983   .     S
Cu1041 O1049   1.962   .     S
Cu1041 N1043   2.045   .     S
Cu1041 O1052   1.981   .     S
Cu1041 O1045   1.977   .     S
Cu1042 N1044   2.045   .     S
Cu1042 O1047   1.983   .     S
Cu1042 O1046   1.977   .     S
Cu1042 O1051   1.981   .     S
Cu1042 O1050   1.962   .     S
Cu1042 Cu897   2.721   1_655 S
O1047  C865    1.311   1_655 S
O1050  C882    1.305   1_655 S
O1053  H1054   0.991   .     S
O1055  H1056   0.990   .     S
O1059  H1060   0.991   .     S
O1059  C888    1.381   1_655 S
O1061  H1062   0.991   .     S
O1063  H1064   0.992   .     S
O1065  H1066   0.990   .     S
O1067  H1068   0.991   .     S
O1069  H1070   0.992   .     S
O1071  H1072   0.990   .     S
O1073  H1074   0.992   .     S
C1081  O1117   1.308   .     A
C1081  C1092   1.472   .     S
C1081  O1263   1.311   1_455 S
C1082  O1118   1.308   .     A
C1082  C1091   1.471   .     S
C1082  O1192   1.310   .     S
C1083  C1085   1.412   .     A
C1083  C1112   1.414   .     A
C1083  O1139   1.380   .     S
C1084  C1111   1.410   .     A
C1084  C1086   1.407   .     A
C1084  O1141   1.382   .     S
C1085  O1125   1.383   .     S
C1086  O1127   1.374   .     S
C1086  C462    1.405   1_556 S
C1087  O1143   1.381   .     S
C1087  C1164   1.413   .     S
C1088  O1145   1.376   .     S
C1088  C658    1.385   1_565 S
C1088  C1235   1.414   1_455 S
C1089  Cl1147  1.778   .     S
C1089  C1091   1.413   .     A
C1089  C655    1.400   1_565 S
C1090  Cl1148  1.774   .     S
C1090  C1092   1.413   .     A
C1091  C1160   1.414   .     S
C1092  C1231   1.413   1_455 S
C1093  C1095   1.428   .     A
C1093  N1116   1.374   .     A
C1093  Cl1149  1.758   .     S
C1094  Cl1150  1.740   .     S
C1094  C1096   1.425   .     A
C1094  N1115   1.373   .     A
C1095  Cl1151  1.761   .     S
C1095  N1115   1.377   .     A
C1096  Cl1152  1.764   .     S
C1096  N1116   1.372   .     A
C1097  C1099   1.496   .     S
C1097  O1123   1.311   .     A
C1097  O1193   1.318   .     S
C1098  O1124   1.308   .     A
C1098  C1100   1.464   .     S
C1098  O1266   1.305   1_455 S
C1099  C1103   1.404   .     A
C1099  C1105   1.423   .     A
C1100  C1104   1.406   .     A
C1100  C1106   1.405   .     A
C1101  C1109   1.398   .     A
C1101  C1103   1.397   .     A
C1101  O1135   1.372   .     S
C1102  O1137   1.376   .     S
C1102  C1104   1.420   .     A
C1102  C1110   1.405   .     A
C1103  O1205   1.372   .     S
C1104  O1275   1.381   1_455 S
C1105  C1107   1.434   .     A
C1105  Cl1130  1.771   .     S
C1106  C1108   1.394   .     A
C1106  Cl1129  1.760   .     S
C1107  C1109   1.413   .     A
C1107  C1111   1.426   .     A
C1108  C1110   1.399   .     A
C1108  C1112   1.424   .     A
C1109  C437    1.409   1_556 S
C1111  C464    1.424   1_556 S
Cu1113 O1120   1.983   .     S
Cu1113 O1121   1.962   .     S
Cu1113 N1115   2.045   .     S
Cu1113 O1124   1.981   .     S
Cu1113 O1117   1.977   .     S
Cu1113 Cu1258  2.721   1_455 S
Cu1114 N1116   2.045   .     S
Cu1114 O1119   1.983   .     S
Cu1114 O1118   1.977   .     S
Cu1114 O1123   1.981   .     S
Cu1114 O1122   1.962   .     S
Cu1114 Cu1185  2.721   .     S
O1119  C1153   1.311   .     S
O1120  C1226   1.310   1_455 S
O1121  C1241   1.318   1_455 S
O1122  C1170   1.305   .     S
O1125  H1126   0.991   .     S
O1127  H1128   0.990   .     S
O1131  H1132   0.991   .     S
O1131  C1176   1.381   .     S
O1133  H1134   0.991   .     S
O1133  C1247   1.372   1_455 S
O1135  H1136   0.992   .     S
O1137  H1138   0.990   .     S
O1139  H1140   0.991   .     S
O1141  H1142   0.992   .     S
O1143  H1144   0.990   .     S
O1145  H1146   0.992   .     S
C1153  O1189   1.308   .     A
C1153  C1164   1.472   .     S
C1154  O1190   1.308   .     A
C1154  C1163   1.471   .     S
C1154  O1264   1.310   .     S
C1155  C1157   1.412   .     A
C1155  C1184   1.414   .     A
C1155  O1211   1.380   .     S
C1156  C1183   1.410   .     A
C1156  C1158   1.407   .     A
C1156  O1213   1.382   .     S
C1157  O1197   1.383   .     S
C1158  O1199   1.374   .     S
C1158  C534    1.405   1_556 S
C1159  O1215   1.381   .     S
C1159  C1236   1.413   .     S
C1160  O1217   1.376   .     S
C1160  C730    1.385   1_565 S
C1161  Cl1219  1.778   .     S
C1161  C1163   1.413   .     A
C1161  C727    1.400   1_565 S
C1162  Cl1220  1.774   .     S
C1162  C1164   1.413   .     A
C1163  C1232   1.414   .     S
C1165  C1167   1.428   .     A
C1165  N1188   1.374   .     A
C1165  Cl1221  1.758   .     S
C1166  Cl1222  1.740   .     S
C1166  C1168   1.425   .     A
C1166  N1187   1.373   .     A
C1167  Cl1223  1.761   .     S
C1167  N1187   1.377   .     A
C1168  Cl1224  1.764   .     S
C1168  N1188   1.372   .     A
C1169  C1171   1.496   .     S
C1169  O1195   1.311   .     A
C1169  O1265   1.318   .     S
C1170  O1196   1.308   .     A
C1170  C1172   1.464   .     S
C1171  C1175   1.404   .     A
C1171  C1177   1.423   .     A
C1172  C1176   1.406   .     A
C1172  C1178   1.405   .     A
C1173  C1181   1.398   .     A
C1173  C1175   1.397   .     A
C1173  O1207   1.372   .     S
C1174  O1209   1.376   .     S
C1174  C1176   1.420   .     A
C1174  C1182   1.405   .     A
C1175  O1277   1.372   .     S
C1177  C1179   1.434   .     A
C1177  Cl1202  1.771   .     S
C1178  C1180   1.394   .     A
C1178  Cl1201  1.760   .     S
C1179  C1181   1.413   .     A
C1179  C1183   1.426   .     A
C1180  C1182   1.399   .     A
C1180  C1184   1.424   .     A
C1181  C509    1.409   1_556 S
C1183  C536    1.424   1_556 S
Cu1185 O1192   1.983   .     S
Cu1185 O1193   1.962   .     S
Cu1185 N1187   2.045   .     S
Cu1185 O1196   1.981   .     S
Cu1185 O1189   1.977   .     S
Cu1186 N1188   2.045   .     S
Cu1186 O1191   1.983   .     S
Cu1186 O1190   1.977   .     S
Cu1186 O1195   1.981   .     S
Cu1186 O1194   1.962   .     S
Cu1186 Cu1257  2.721   .     S
O1191  C1225   1.311   .     S
O1194  C1242   1.305   .     S
O1197  H1198   0.991   .     S
O1199  H1200   0.990   .     S
O1203  H1204   0.991   .     S
O1203  C1248   1.381   .     S
O1205  H1206   0.991   .     S
O1207  H1208   0.992   .     S
O1209  H1210   0.990   .     S
O1211  H1212   0.991   .     S
O1213  H1214   0.992   .     S
O1215  H1216   0.990   .     S
O1217  H1218   0.992   .     S
C1225  O1261   1.308   .     A
C1225  C1236   1.472   .     S
C1226  O1262   1.308   .     A
C1226  C1235   1.471   .     S
C1226  O1120   1.310   1_655 S
C1227  C1229   1.412   .     A
C1227  C1256   1.414   .     A
C1227  O1283   1.380   .     S
C1228  C1255   1.410   .     A
C1228  C1230   1.407   .     A
C1228  O1285   1.382   .     S
C1229  O1269   1.383   .     S
C1230  O1271   1.374   .     S
C1230  C606    1.405   1_556 S
C1231  O1287   1.381   .     S
C1231  C1092   1.413   1_655 S
C1232  O1289   1.376   .     S
C1232  C802    1.385   1_565 S
C1233  Cl1291  1.778   .     S
C1233  C1235   1.413   .     A
C1233  C799    1.400   1_565 S
C1234  Cl1292  1.774   .     S
C1234  C1236   1.413   .     A
C1235  C1088   1.414   1_655 S
C1237  C1239   1.428   .     A
C1237  N1260   1.374   .     A
C1237  Cl1293  1.758   .     S
C1238  Cl1294  1.740   .     S
C1238  C1240   1.425   .     A
C1238  N1259   1.373   .     A
C1239  Cl1295  1.761   .     S
C1239  N1259   1.377   .     A
C1240  Cl1296  1.764   .     S
C1240  N1260   1.372   .     A
C1241  C1243   1.496   .     S
C1241  O1267   1.311   .     A
C1241  O1121   1.318   1_655 S
C1242  O1268   1.308   .     A
C1242  C1244   1.464   .     S
C1243  C1247   1.404   .     A
C1243  C1249   1.423   .     A
C1244  C1248   1.406   .     A
C1244  C1250   1.405   .     A
C1245  C1253   1.398   .     A
C1245  C1247   1.397   .     A
C1245  O1279   1.372   .     S
C1246  O1281   1.376   .     S
C1246  C1248   1.420   .     A
C1246  C1254   1.405   .     A
C1247  O1133   1.372   1_655 S
C1249  C1251   1.434   .     A
C1249  Cl1274  1.771   .     S
C1250  C1252   1.394   .     A
C1250  Cl1273  1.760   .     S
C1251  C1253   1.413   .     A
C1251  C1255   1.426   .     A
C1252  C1254   1.399   .     A
C1252  C1256   1.424   .     A
C1253  C581    1.409   1_556 S
C1255  C608    1.424   1_556 S
Cu1257 O1264   1.983   .     S
Cu1257 O1265   1.962   .     S
Cu1257 N1259   2.045   .     S
Cu1257 O1268   1.981   .     S
Cu1257 O1261   1.977   .     S
Cu1258 N1260   2.045   .     S
Cu1258 O1263   1.983   .     S
Cu1258 O1262   1.977   .     S
Cu1258 O1267   1.981   .     S
Cu1258 O1266   1.962   .     S
Cu1258 Cu1113  2.721   1_655 S
O1263  C1081   1.311   1_655 S
O1266  C1098   1.305   1_655 S
O1269  H1270   0.991   .     S
O1271  H1272   0.990   .     S
O1275  H1276   0.991   .     S
O1275  C1104   1.381   1_655 S
O1277  H1278   0.991   .     S
O1279  H1280   0.992   .     S
O1281  H1282   0.990   .     S
O1283  H1284   0.991   .     S
O1285  H1286   0.992   .     S
O1287  H1288   0.990   .     S
O1289  H1290   0.992   .     S
