data_str_m2_o10_o18_pcu_sym.141
_audit_creation_date              2020-01-03
_audit_creation_method            'Materials Studio'
_symmetry_space_group_name_H-M    'P1'
_symmetry_Int_Tables_number       1
_symmetry_cell_setting            triclinic
loop_
_symmetry_equiv_pos_as_xyz
  x,y,z
_cell_length_a                    22.2854
_cell_length_b                    26.0868
_cell_length_c                    31.6476
_cell_angle_alpha                 94.2504
_cell_angle_beta                  74.7626
_cell_angle_gamma                 103.1900
loop_
_atom_site_label
_atom_site_type_symbol
_atom_site_fract_x
_atom_site_fract_y
_atom_site_fract_z
_atom_site_U_iso_or_equiv
_atom_site_adp_type
_atom_site_occupancy
C1     C     0.18170   0.26673   0.25130   0.00000  Uiso   1.00
C2     C     0.15163   0.06661   0.24870   0.00000  Uiso   1.00
C3     C     0.09273   0.13541   0.04093   0.00000  Uiso   1.00
C4     C     0.24060   0.19797   0.45907   0.00000  Uiso   1.00
C5     C     0.04959   0.12096   0.01535   0.00000  Uiso   1.00
C6     C     0.28374   0.21243   0.48466   0.00000  Uiso   1.00
C7     C     0.19018   0.32269   0.25192   0.00000  Uiso   1.00
C8     C     0.14315   0.01064   0.24808   0.00000  Uiso   1.00
C9     C     0.12748   0.16090   0.33314   0.00000  Uiso   1.00
C10    C     0.20585   0.17243   0.16686   0.00000  Uiso   1.00
C11    C     0.10317   0.15227   0.38080   0.00000  Uiso   1.00
C12    C     0.23017   0.18107   0.11920   0.00000  Uiso   1.00
C13    C     0.02361   0.11569   0.44571   0.00000  Uiso   1.00
C14    C     0.30971   0.21768   0.05430   0.00000  Uiso   1.00
C15    C     0.04110   0.12359   0.40063   0.00000  Uiso   1.00
C16    C     0.29223   0.20976   0.09937   0.00000  Uiso   1.00
C17    C     0.14612   0.17078   0.40675   0.00000  Uiso   1.00
C18    C     0.18722   0.16257   0.09325   0.00000  Uiso   1.00
C19    C     0.13088   0.15902   0.45149   0.00000  Uiso   1.00
C20    C     0.20245   0.17434   0.04851   0.00000  Uiso   1.00
C21    C     0.06793   0.13203   0.47093   0.00000  Uiso   1.00
C22    C     0.26540   0.20135   0.02908   0.00000  Uiso   1.00
C23    C     0.17632   0.17288   0.47728   0.00000  Uiso   1.00
C24    C     0.15701   0.16049   0.02272   0.00000  Uiso   1.00
Cu25   Cu    0.10737   0.16108   0.24516   0.00000  Uiso   1.00
Cu26   Cu    0.22596   0.17225   0.25483   0.00000  Uiso   1.00
H27    H     0.00111   0.10114   0.03067   0.00000  Uiso   1.00
H28    H     0.33221   0.23225   0.46935   0.00000  Uiso   1.00
H29    H     0.30900   0.09451   0.46079   0.00000  Uiso   1.00
H30    H     0.02433   0.23887   0.03922   0.00000  Uiso   1.00
H31    H     0.07344   0.12635   0.07509   0.00000  Uiso   1.00
H32    H     0.25989   0.20705   0.42492   0.00000  Uiso   1.00
N33    N     0.31506   0.18068   0.26212   0.00000  Uiso   1.00
N34    N     0.01827   0.15265   0.23788   0.00000  Uiso   1.00
O35    O     0.12815   0.23809   0.24686   0.00000  Uiso   1.00
O36    O     0.20518   0.09524   0.25314   0.00000  Uiso   1.00
O37    O     0.22829   0.24753   0.25502   0.00000  Uiso   1.00
O38    O     0.10504   0.08580   0.24498   0.00000  Uiso   1.00
O39    O     0.08851   0.15930   0.30854   0.00000  Uiso   1.00
O40    O     0.24482   0.17403   0.19145   0.00000  Uiso   1.00
O41    O     0.18866   0.16874   0.31671   0.00000  Uiso   1.00
O42    O     0.14468   0.16460   0.18329   0.00000  Uiso   1.00
H43    H     0.14161   0.13912   0.10918   0.00000  Uiso   1.00
H44    H     0.19174   0.19421   0.39081   0.00000  Uiso   1.00
O45    O     0.00312   0.23191   0.12252   0.00000  Uiso   1.00
H46    H     0.31375   0.24573   0.15068   0.00000  Uiso   1.00
O47    O     0.33020   0.10144   0.37749   0.00000  Uiso   1.00
H48    H     0.01957   0.08763   0.34933   0.00000  Uiso   1.00
H49    H     0.23551   0.01315   0.25553   0.00000  Uiso   1.00
H50    H     0.09782   0.32018   0.24447   0.00000  Uiso   1.00
H51    H     0.00124   0.20492   0.28447   0.00000  Uiso   1.00
H52    H     0.33209   0.12841   0.21553   0.00000  Uiso   1.00
C53    C     0.51504   0.26673   0.25130   0.00000  Uiso   1.00
C54    C     0.48496   0.06661   0.24870   0.00000  Uiso   1.00
C55    C     0.42606   0.13541   0.04093   0.00000  Uiso   1.00
C56    C     0.57393   0.19797   0.45907   0.00000  Uiso   1.00
C57    C     0.38292   0.12096   0.01535   0.00000  Uiso   1.00
C58    C     0.61707   0.21243   0.48466   0.00000  Uiso   1.00
C59    C     0.52352   0.32269   0.25192   0.00000  Uiso   1.00
C60    C     0.47648   0.01064   0.24808   0.00000  Uiso   1.00
C61    C     0.46082   0.16090   0.33314   0.00000  Uiso   1.00
C62    C     0.53919   0.17243   0.16686   0.00000  Uiso   1.00
C63    C     0.43650   0.15227   0.38080   0.00000  Uiso   1.00
C64    C     0.56350   0.18107   0.11920   0.00000  Uiso   1.00
C65    C     0.35695   0.11569   0.44571   0.00000  Uiso   1.00
C66    C     0.64305   0.21768   0.05430   0.00000  Uiso   1.00
C67    C     0.37443   0.12359   0.40063   0.00000  Uiso   1.00
C68    C     0.62557   0.20976   0.09937   0.00000  Uiso   1.00
C69    C     0.47945   0.17078   0.40675   0.00000  Uiso   1.00
C70    C     0.52055   0.16257   0.09325   0.00000  Uiso   1.00
C71    C     0.46421   0.15902   0.45149   0.00000  Uiso   1.00
C72    C     0.53579   0.17434   0.04851   0.00000  Uiso   1.00
C73    C     0.40126   0.13203   0.47093   0.00000  Uiso   1.00
C74    C     0.59874   0.20135   0.02908   0.00000  Uiso   1.00
C75    C     0.50965   0.17288   0.47728   0.00000  Uiso   1.00
C76    C     0.49035   0.16049   0.02272   0.00000  Uiso   1.00
Cu77   Cu    0.44071   0.16108   0.24516   0.00000  Uiso   1.00
Cu78   Cu    0.55929   0.17225   0.25483   0.00000  Uiso   1.00
H79    H     0.33444   0.10114   0.03067   0.00000  Uiso   1.00
H80    H     0.66555   0.23225   0.46935   0.00000  Uiso   1.00
H81    H     0.64233   0.09451   0.46079   0.00000  Uiso   1.00
H82    H     0.35766   0.23887   0.03922   0.00000  Uiso   1.00
H83    H     0.40677   0.12635   0.07509   0.00000  Uiso   1.00
H84    H     0.59322   0.20705   0.42492   0.00000  Uiso   1.00
N85    N     0.64839   0.18068   0.26212   0.00000  Uiso   1.00
N86    N     0.35161   0.15265   0.23788   0.00000  Uiso   1.00
O87    O     0.46148   0.23809   0.24686   0.00000  Uiso   1.00
O88    O     0.53852   0.09524   0.25314   0.00000  Uiso   1.00
O89    O     0.56163   0.24753   0.25502   0.00000  Uiso   1.00
O90    O     0.43837   0.08580   0.24498   0.00000  Uiso   1.00
O91    O     0.42185   0.15930   0.30854   0.00000  Uiso   1.00
O92    O     0.57815   0.17403   0.19145   0.00000  Uiso   1.00
O93    O     0.52199   0.16874   0.31671   0.00000  Uiso   1.00
O94    O     0.47801   0.16460   0.18329   0.00000  Uiso   1.00
H95    H     0.47494   0.13912   0.10918   0.00000  Uiso   1.00
H96    H     0.52507   0.19421   0.39081   0.00000  Uiso   1.00
O97    O     0.33645   0.23191   0.12252   0.00000  Uiso   1.00
H98    H     0.64708   0.24573   0.15068   0.00000  Uiso   1.00
O99    O     0.66354   0.10144   0.37749   0.00000  Uiso   1.00
H100   H     0.35291   0.08763   0.34933   0.00000  Uiso   1.00
H101   H     0.56885   0.01315   0.25553   0.00000  Uiso   1.00
H102   H     0.43115   0.32018   0.24447   0.00000  Uiso   1.00
H103   H     0.33457   0.20492   0.28447   0.00000  Uiso   1.00
H104   H     0.66543   0.12841   0.21553   0.00000  Uiso   1.00
C105   C     0.84837   0.26673   0.25130   0.00000  Uiso   1.00
C106   C     0.81830   0.06661   0.24870   0.00000  Uiso   1.00
C107   C     0.75940   0.13541   0.04093   0.00000  Uiso   1.00
C108   C     0.90726   0.19797   0.45907   0.00000  Uiso   1.00
C109   C     0.71626   0.12096   0.01535   0.00000  Uiso   1.00
C110   C     0.95040   0.21243   0.48466   0.00000  Uiso   1.00
C111   C     0.85685   0.32269   0.25192   0.00000  Uiso   1.00
C112   C     0.80982   0.01064   0.24808   0.00000  Uiso   1.00
C113   C     0.79415   0.16090   0.33314   0.00000  Uiso   1.00
C114   C     0.87252   0.17243   0.16686   0.00000  Uiso   1.00
C115   C     0.76983   0.15227   0.38080   0.00000  Uiso   1.00
C116   C     0.89683   0.18107   0.11920   0.00000  Uiso   1.00
C117   C     0.69028   0.11569   0.44571   0.00000  Uiso   1.00
C118   C     0.97638   0.21768   0.05430   0.00000  Uiso   1.00
C119   C     0.70776   0.12359   0.40063   0.00000  Uiso   1.00
C120   C     0.95890   0.20976   0.09937   0.00000  Uiso   1.00
C121   C     0.81278   0.17078   0.40675   0.00000  Uiso   1.00
C122   C     0.85389   0.16257   0.09325   0.00000  Uiso   1.00
C123   C     0.79755   0.15902   0.45149   0.00000  Uiso   1.00
C124   C     0.86912   0.17434   0.04851   0.00000  Uiso   1.00
C125   C     0.73459   0.13203   0.47093   0.00000  Uiso   1.00
C126   C     0.93207   0.20135   0.02908   0.00000  Uiso   1.00
C127   C     0.84298   0.17288   0.47728   0.00000  Uiso   1.00
C128   C     0.82368   0.16049   0.02272   0.00000  Uiso   1.00
Cu129  Cu    0.77404   0.16108   0.24516   0.00000  Uiso   1.00
Cu130  Cu    0.89263   0.17225   0.25483   0.00000  Uiso   1.00
H131   H     0.66778   0.10114   0.03067   0.00000  Uiso   1.00
H132   H     0.99888   0.23225   0.46935   0.00000  Uiso   1.00
H133   H     0.97566   0.09451   0.46079   0.00000  Uiso   1.00
H134   H     0.69099   0.23887   0.03922   0.00000  Uiso   1.00
H135   H     0.74010   0.12635   0.07509   0.00000  Uiso   1.00
H136   H     0.92656   0.20705   0.42492   0.00000  Uiso   1.00
N137   N     0.98173   0.18068   0.26212   0.00000  Uiso   1.00
N138   N     0.68494   0.15265   0.23788   0.00000  Uiso   1.00
O139   O     0.79482   0.23809   0.24686   0.00000  Uiso   1.00
O140   O     0.87185   0.09524   0.25314   0.00000  Uiso   1.00
O141   O     0.89496   0.24753   0.25502   0.00000  Uiso   1.00
O142   O     0.77171   0.08580   0.24498   0.00000  Uiso   1.00
O143   O     0.75518   0.15930   0.30854   0.00000  Uiso   1.00
O144   O     0.91149   0.17403   0.19145   0.00000  Uiso   1.00
O145   O     0.85532   0.16874   0.31671   0.00000  Uiso   1.00
O146   O     0.81134   0.16460   0.18329   0.00000  Uiso   1.00
H147   H     0.80827   0.13912   0.10918   0.00000  Uiso   1.00
H148   H     0.85840   0.19421   0.39081   0.00000  Uiso   1.00
O149   O     0.66979   0.23191   0.12252   0.00000  Uiso   1.00
H150   H     0.98042   0.24573   0.15068   0.00000  Uiso   1.00
O151   O     0.99687   0.10144   0.37749   0.00000  Uiso   1.00
H152   H     0.68624   0.08763   0.34933   0.00000  Uiso   1.00
H153   H     0.90218   0.01315   0.25553   0.00000  Uiso   1.00
H154   H     0.76449   0.32018   0.24447   0.00000  Uiso   1.00
H155   H     0.66791   0.20492   0.28447   0.00000  Uiso   1.00
H156   H     0.99876   0.12841   0.21553   0.00000  Uiso   1.00
C157   C     0.18170   0.60006   0.25130   0.00000  Uiso   1.00
C158   C     0.15163   0.39994   0.24870   0.00000  Uiso   1.00
C159   C     0.09273   0.46874   0.04093   0.00000  Uiso   1.00
C160   C     0.24060   0.53131   0.45907   0.00000  Uiso   1.00
C161   C     0.04959   0.45429   0.01535   0.00000  Uiso   1.00
C162   C     0.28374   0.54576   0.48466   0.00000  Uiso   1.00
C163   C     0.19018   0.65602   0.25192   0.00000  Uiso   1.00
C164   C     0.14315   0.34398   0.24808   0.00000  Uiso   1.00
C165   C     0.12748   0.49424   0.33314   0.00000  Uiso   1.00
C166   C     0.20585   0.50577   0.16686   0.00000  Uiso   1.00
C167   C     0.10317   0.48561   0.38080   0.00000  Uiso   1.00
C168   C     0.23017   0.51440   0.11920   0.00000  Uiso   1.00
C169   C     0.02361   0.44903   0.44571   0.00000  Uiso   1.00
C170   C     0.30971   0.55101   0.05430   0.00000  Uiso   1.00
C171   C     0.04110   0.45693   0.40063   0.00000  Uiso   1.00
C172   C     0.29223   0.54310   0.09937   0.00000  Uiso   1.00
C173   C     0.14612   0.50411   0.40675   0.00000  Uiso   1.00
C174   C     0.18722   0.49590   0.09325   0.00000  Uiso   1.00
C175   C     0.13088   0.49236   0.45149   0.00000  Uiso   1.00
C176   C     0.20245   0.50768   0.04851   0.00000  Uiso   1.00
C177   C     0.06793   0.46536   0.47093   0.00000  Uiso   1.00
C178   C     0.26540   0.53468   0.02908   0.00000  Uiso   1.00
C179   C     0.17632   0.50622   0.47728   0.00000  Uiso   1.00
C180   C     0.15701   0.49382   0.02272   0.00000  Uiso   1.00
Cu181  Cu    0.10737   0.49441   0.24516   0.00000  Uiso   1.00
Cu182  Cu    0.22596   0.50559   0.25483   0.00000  Uiso   1.00
H183   H     0.00111   0.43448   0.03067   0.00000  Uiso   1.00
H184   H     0.33221   0.56559   0.46935   0.00000  Uiso   1.00
H185   H     0.30900   0.42784   0.46079   0.00000  Uiso   1.00
H186   H     0.02433   0.57221   0.03922   0.00000  Uiso   1.00
H187   H     0.07344   0.45968   0.07509   0.00000  Uiso   1.00
H188   H     0.25989   0.54038   0.42492   0.00000  Uiso   1.00
N189   N     0.31506   0.51401   0.26212   0.00000  Uiso   1.00
N190   N     0.01827   0.48599   0.23788   0.00000  Uiso   1.00
O191   O     0.12815   0.57142   0.24686   0.00000  Uiso   1.00
O192   O     0.20518   0.42858   0.25314   0.00000  Uiso   1.00
O193   O     0.22829   0.58086   0.25502   0.00000  Uiso   1.00
O194   O     0.10504   0.41914   0.24498   0.00000  Uiso   1.00
O195   O     0.08851   0.49263   0.30854   0.00000  Uiso   1.00
O196   O     0.24482   0.50737   0.19145   0.00000  Uiso   1.00
O197   O     0.18866   0.50207   0.31671   0.00000  Uiso   1.00
O198   O     0.14468   0.49793   0.18329   0.00000  Uiso   1.00
H199   H     0.14161   0.47245   0.10918   0.00000  Uiso   1.00
H200   H     0.19174   0.52754   0.39081   0.00000  Uiso   1.00
O201   O     0.00312   0.56525   0.12252   0.00000  Uiso   1.00
H202   H     0.31375   0.57907   0.15068   0.00000  Uiso   1.00
O203   O     0.33020   0.43477   0.37749   0.00000  Uiso   1.00
H204   H     0.01957   0.42096   0.34933   0.00000  Uiso   1.00
H205   H     0.23551   0.34649   0.25553   0.00000  Uiso   1.00
H206   H     0.09782   0.65351   0.24447   0.00000  Uiso   1.00
H207   H     0.00124   0.53826   0.28447   0.00000  Uiso   1.00
H208   H     0.33209   0.46174   0.21553   0.00000  Uiso   1.00
C209   C     0.51504   0.60006   0.25130   0.00000  Uiso   1.00
C210   C     0.48496   0.39994   0.24870   0.00000  Uiso   1.00
C211   C     0.42606   0.46874   0.04093   0.00000  Uiso   1.00
C212   C     0.57393   0.53131   0.45907   0.00000  Uiso   1.00
C213   C     0.38292   0.45429   0.01535   0.00000  Uiso   1.00
C214   C     0.61707   0.54576   0.48466   0.00000  Uiso   1.00
C215   C     0.52352   0.65602   0.25192   0.00000  Uiso   1.00
C216   C     0.47648   0.34398   0.24808   0.00000  Uiso   1.00
C217   C     0.46082   0.49424   0.33314   0.00000  Uiso   1.00
C218   C     0.53919   0.50577   0.16686   0.00000  Uiso   1.00
C219   C     0.43650   0.48561   0.38080   0.00000  Uiso   1.00
C220   C     0.56350   0.51440   0.11920   0.00000  Uiso   1.00
C221   C     0.35695   0.44903   0.44571   0.00000  Uiso   1.00
C222   C     0.64305   0.55101   0.05430   0.00000  Uiso   1.00
C223   C     0.37443   0.45693   0.40063   0.00000  Uiso   1.00
C224   C     0.62557   0.54310   0.09937   0.00000  Uiso   1.00
C225   C     0.47945   0.50411   0.40675   0.00000  Uiso   1.00
C226   C     0.52055   0.49590   0.09325   0.00000  Uiso   1.00
C227   C     0.46421   0.49236   0.45149   0.00000  Uiso   1.00
C228   C     0.53579   0.50768   0.04851   0.00000  Uiso   1.00
C229   C     0.40126   0.46536   0.47093   0.00000  Uiso   1.00
C230   C     0.59874   0.53468   0.02908   0.00000  Uiso   1.00
C231   C     0.50965   0.50622   0.47728   0.00000  Uiso   1.00
C232   C     0.49035   0.49382   0.02272   0.00000  Uiso   1.00
Cu233  Cu    0.44071   0.49441   0.24516   0.00000  Uiso   1.00
Cu234  Cu    0.55929   0.50559   0.25483   0.00000  Uiso   1.00
H235   H     0.33444   0.43448   0.03067   0.00000  Uiso   1.00
H236   H     0.66555   0.56559   0.46935   0.00000  Uiso   1.00
H237   H     0.64233   0.42784   0.46079   0.00000  Uiso   1.00
H238   H     0.35766   0.57221   0.03922   0.00000  Uiso   1.00
H239   H     0.40677   0.45968   0.07509   0.00000  Uiso   1.00
H240   H     0.59322   0.54038   0.42492   0.00000  Uiso   1.00
N241   N     0.64839   0.51401   0.26212   0.00000  Uiso   1.00
N242   N     0.35161   0.48599   0.23788   0.00000  Uiso   1.00
O243   O     0.46148   0.57142   0.24686   0.00000  Uiso   1.00
O244   O     0.53852   0.42858   0.25314   0.00000  Uiso   1.00
O245   O     0.56163   0.58086   0.25502   0.00000  Uiso   1.00
O246   O     0.43837   0.41914   0.24498   0.00000  Uiso   1.00
O247   O     0.42185   0.49263   0.30854   0.00000  Uiso   1.00
O248   O     0.57815   0.50737   0.19145   0.00000  Uiso   1.00
O249   O     0.52199   0.50207   0.31671   0.00000  Uiso   1.00
O250   O     0.47801   0.49793   0.18329   0.00000  Uiso   1.00
H251   H     0.47494   0.47245   0.10918   0.00000  Uiso   1.00
H252   H     0.52507   0.52754   0.39081   0.00000  Uiso   1.00
O253   O     0.33645   0.56525   0.12252   0.00000  Uiso   1.00
H254   H     0.64708   0.57907   0.15068   0.00000  Uiso   1.00
O255   O     0.66354   0.43477   0.37749   0.00000  Uiso   1.00
H256   H     0.35291   0.42096   0.34933   0.00000  Uiso   1.00
H257   H     0.56885   0.34649   0.25553   0.00000  Uiso   1.00
H258   H     0.43115   0.65351   0.24447   0.00000  Uiso   1.00
H259   H     0.33457   0.53826   0.28447   0.00000  Uiso   1.00
H260   H     0.66543   0.46174   0.21553   0.00000  Uiso   1.00
C261   C     0.84837   0.60006   0.25130   0.00000  Uiso   1.00
C262   C     0.81830   0.39994   0.24870   0.00000  Uiso   1.00
C263   C     0.75940   0.46874   0.04093   0.00000  Uiso   1.00
C264   C     0.90726   0.53131   0.45907   0.00000  Uiso   1.00
C265   C     0.71626   0.45429   0.01535   0.00000  Uiso   1.00
C266   C     0.95040   0.54576   0.48466   0.00000  Uiso   1.00
C267   C     0.85685   0.65602   0.25192   0.00000  Uiso   1.00
C268   C     0.80982   0.34398   0.24808   0.00000  Uiso   1.00
C269   C     0.79415   0.49424   0.33314   0.00000  Uiso   1.00
C270   C     0.87252   0.50577   0.16686   0.00000  Uiso   1.00
C271   C     0.76983   0.48561   0.38080   0.00000  Uiso   1.00
C272   C     0.89683   0.51440   0.11920   0.00000  Uiso   1.00
C273   C     0.69028   0.44903   0.44571   0.00000  Uiso   1.00
C274   C     0.97638   0.55101   0.05430   0.00000  Uiso   1.00
C275   C     0.70776   0.45693   0.40063   0.00000  Uiso   1.00
C276   C     0.95890   0.54310   0.09937   0.00000  Uiso   1.00
C277   C     0.81278   0.50411   0.40675   0.00000  Uiso   1.00
C278   C     0.85389   0.49590   0.09325   0.00000  Uiso   1.00
C279   C     0.79755   0.49236   0.45149   0.00000  Uiso   1.00
C280   C     0.86912   0.50768   0.04851   0.00000  Uiso   1.00
C281   C     0.73459   0.46536   0.47093   0.00000  Uiso   1.00
C282   C     0.93207   0.53468   0.02908   0.00000  Uiso   1.00
C283   C     0.84298   0.50622   0.47728   0.00000  Uiso   1.00
C284   C     0.82368   0.49382   0.02272   0.00000  Uiso   1.00
Cu285  Cu    0.77404   0.49441   0.24516   0.00000  Uiso   1.00
Cu286  Cu    0.89263   0.50559   0.25483   0.00000  Uiso   1.00
H287   H     0.66778   0.43448   0.03067   0.00000  Uiso   1.00
H288   H     0.99888   0.56559   0.46935   0.00000  Uiso   1.00
H289   H     0.97566   0.42784   0.46079   0.00000  Uiso   1.00
H290   H     0.69099   0.57221   0.03922   0.00000  Uiso   1.00
H291   H     0.74010   0.45968   0.07509   0.00000  Uiso   1.00
H292   H     0.92656   0.54038   0.42492   0.00000  Uiso   1.00
N293   N     0.98173   0.51401   0.26212   0.00000  Uiso   1.00
N294   N     0.68494   0.48599   0.23788   0.00000  Uiso   1.00
O295   O     0.79482   0.57142   0.24686   0.00000  Uiso   1.00
O296   O     0.87185   0.42858   0.25314   0.00000  Uiso   1.00
O297   O     0.89496   0.58086   0.25502   0.00000  Uiso   1.00
O298   O     0.77171   0.41914   0.24498   0.00000  Uiso   1.00
O299   O     0.75518   0.49263   0.30854   0.00000  Uiso   1.00
O300   O     0.91149   0.50737   0.19145   0.00000  Uiso   1.00
O301   O     0.85532   0.50207   0.31671   0.00000  Uiso   1.00
O302   O     0.81134   0.49793   0.18329   0.00000  Uiso   1.00
H303   H     0.80827   0.47245   0.10918   0.00000  Uiso   1.00
H304   H     0.85840   0.52754   0.39081   0.00000  Uiso   1.00
O305   O     0.66979   0.56525   0.12252   0.00000  Uiso   1.00
H306   H     0.98042   0.57907   0.15068   0.00000  Uiso   1.00
O307   O     0.99687   0.43477   0.37749   0.00000  Uiso   1.00
H308   H     0.68624   0.42096   0.34933   0.00000  Uiso   1.00
H309   H     0.90218   0.34649   0.25553   0.00000  Uiso   1.00
H310   H     0.76449   0.65351   0.24447   0.00000  Uiso   1.00
H311   H     0.66791   0.53826   0.28447   0.00000  Uiso   1.00
H312   H     0.99876   0.46174   0.21553   0.00000  Uiso   1.00
C313   C     0.18170   0.93339   0.25130   0.00000  Uiso   1.00
C314   C     0.15163   0.73327   0.24870   0.00000  Uiso   1.00
C315   C     0.09273   0.80208   0.04093   0.00000  Uiso   1.00
C316   C     0.24060   0.86464   0.45907   0.00000  Uiso   1.00
C317   C     0.04959   0.78762   0.01535   0.00000  Uiso   1.00
C318   C     0.28374   0.87910   0.48466   0.00000  Uiso   1.00
C319   C     0.19018   0.98936   0.25192   0.00000  Uiso   1.00
C320   C     0.14315   0.67731   0.24808   0.00000  Uiso   1.00
C321   C     0.12748   0.82757   0.33314   0.00000  Uiso   1.00
C322   C     0.20585   0.83910   0.16686   0.00000  Uiso   1.00
C323   C     0.10317   0.81894   0.38080   0.00000  Uiso   1.00
C324   C     0.23017   0.84774   0.11920   0.00000  Uiso   1.00
C325   C     0.02361   0.78236   0.44571   0.00000  Uiso   1.00
C326   C     0.30971   0.88435   0.05430   0.00000  Uiso   1.00
C327   C     0.04110   0.79026   0.40063   0.00000  Uiso   1.00
C328   C     0.29223   0.87643   0.09937   0.00000  Uiso   1.00
C329   C     0.14612   0.83745   0.40675   0.00000  Uiso   1.00
C330   C     0.18722   0.82923   0.09325   0.00000  Uiso   1.00
C331   C     0.13088   0.82569   0.45149   0.00000  Uiso   1.00
C332   C     0.20245   0.84101   0.04851   0.00000  Uiso   1.00
C333   C     0.06793   0.79869   0.47093   0.00000  Uiso   1.00
C334   C     0.26540   0.86802   0.02908   0.00000  Uiso   1.00
C335   C     0.17632   0.83955   0.47728   0.00000  Uiso   1.00
C336   C     0.15701   0.82716   0.02272   0.00000  Uiso   1.00
Cu337  Cu    0.10737   0.82775   0.24516   0.00000  Uiso   1.00
Cu338  Cu    0.22596   0.83892   0.25483   0.00000  Uiso   1.00
H339   H     0.00111   0.76781   0.03067   0.00000  Uiso   1.00
H340   H     0.33221   0.89892   0.46935   0.00000  Uiso   1.00
H341   H     0.30900   0.76117   0.46079   0.00000  Uiso   1.00
H342   H     0.02433   0.90554   0.03922   0.00000  Uiso   1.00
H343   H     0.07344   0.79301   0.07509   0.00000  Uiso   1.00
H344   H     0.25989   0.87372   0.42492   0.00000  Uiso   1.00
N345   N     0.31506   0.84735   0.26212   0.00000  Uiso   1.00
N346   N     0.01827   0.81932   0.23788   0.00000  Uiso   1.00
O347   O     0.12815   0.90476   0.24686   0.00000  Uiso   1.00
O348   O     0.20518   0.76191   0.25314   0.00000  Uiso   1.00
O349   O     0.22829   0.91420   0.25502   0.00000  Uiso   1.00
O350   O     0.10504   0.75247   0.24498   0.00000  Uiso   1.00
O351   O     0.08851   0.82597   0.30854   0.00000  Uiso   1.00
O352   O     0.24482   0.84070   0.19145   0.00000  Uiso   1.00
O353   O     0.18866   0.83540   0.31671   0.00000  Uiso   1.00
O354   O     0.14468   0.83126   0.18329   0.00000  Uiso   1.00
H355   H     0.14161   0.80579   0.10918   0.00000  Uiso   1.00
H356   H     0.19174   0.86088   0.39081   0.00000  Uiso   1.00
O357   O     0.00312   0.89858   0.12252   0.00000  Uiso   1.00
H358   H     0.31375   0.91240   0.15068   0.00000  Uiso   1.00
O359   O     0.33020   0.76810   0.37749   0.00000  Uiso   1.00
H360   H     0.01957   0.75429   0.34933   0.00000  Uiso   1.00
H361   H     0.23551   0.67982   0.25553   0.00000  Uiso   1.00
H362   H     0.09782   0.98685   0.24447   0.00000  Uiso   1.00
H363   H     0.00124   0.87159   0.28447   0.00000  Uiso   1.00
H364   H     0.33209   0.79508   0.21553   0.00000  Uiso   1.00
C365   C     0.51504   0.93339   0.25130   0.00000  Uiso   1.00
C366   C     0.48496   0.73327   0.24870   0.00000  Uiso   1.00
C367   C     0.42606   0.80208   0.04093   0.00000  Uiso   1.00
C368   C     0.57393   0.86464   0.45907   0.00000  Uiso   1.00
C369   C     0.38292   0.78762   0.01535   0.00000  Uiso   1.00
C370   C     0.61707   0.87910   0.48466   0.00000  Uiso   1.00
C371   C     0.52352   0.98936   0.25192   0.00000  Uiso   1.00
C372   C     0.47648   0.67731   0.24808   0.00000  Uiso   1.00
C373   C     0.46082   0.82757   0.33314   0.00000  Uiso   1.00
C374   C     0.53919   0.83910   0.16686   0.00000  Uiso   1.00
C375   C     0.43650   0.81894   0.38080   0.00000  Uiso   1.00
C376   C     0.56350   0.84774   0.11920   0.00000  Uiso   1.00
C377   C     0.35695   0.78236   0.44571   0.00000  Uiso   1.00
C378   C     0.64305   0.88435   0.05430   0.00000  Uiso   1.00
C379   C     0.37443   0.79026   0.40063   0.00000  Uiso   1.00
C380   C     0.62557   0.87643   0.09937   0.00000  Uiso   1.00
C381   C     0.47945   0.83745   0.40675   0.00000  Uiso   1.00
C382   C     0.52055   0.82923   0.09325   0.00000  Uiso   1.00
C383   C     0.46421   0.82569   0.45149   0.00000  Uiso   1.00
C384   C     0.53579   0.84101   0.04851   0.00000  Uiso   1.00
C385   C     0.40126   0.79869   0.47093   0.00000  Uiso   1.00
C386   C     0.59874   0.86802   0.02908   0.00000  Uiso   1.00
C387   C     0.50965   0.83955   0.47728   0.00000  Uiso   1.00
C388   C     0.49035   0.82716   0.02272   0.00000  Uiso   1.00
Cu389  Cu    0.44071   0.82775   0.24516   0.00000  Uiso   1.00
Cu390  Cu    0.55929   0.83892   0.25483   0.00000  Uiso   1.00
H391   H     0.33444   0.76781   0.03067   0.00000  Uiso   1.00
H392   H     0.66555   0.89892   0.46935   0.00000  Uiso   1.00
H393   H     0.64233   0.76117   0.46079   0.00000  Uiso   1.00
H394   H     0.35766   0.90554   0.03922   0.00000  Uiso   1.00
H395   H     0.40677   0.79301   0.07509   0.00000  Uiso   1.00
H396   H     0.59322   0.87372   0.42492   0.00000  Uiso   1.00
N397   N     0.64839   0.84735   0.26212   0.00000  Uiso   1.00
N398   N     0.35161   0.81932   0.23788   0.00000  Uiso   1.00
O399   O     0.46148   0.90476   0.24686   0.00000  Uiso   1.00
O400   O     0.53852   0.76191   0.25314   0.00000  Uiso   1.00
O401   O     0.56163   0.91420   0.25502   0.00000  Uiso   1.00
O402   O     0.43837   0.75247   0.24498   0.00000  Uiso   1.00
O403   O     0.42185   0.82597   0.30854   0.00000  Uiso   1.00
O404   O     0.57815   0.84070   0.19145   0.00000  Uiso   1.00
O405   O     0.52199   0.83540   0.31671   0.00000  Uiso   1.00
O406   O     0.47801   0.83126   0.18329   0.00000  Uiso   1.00
H407   H     0.47494   0.80579   0.10918   0.00000  Uiso   1.00
H408   H     0.52507   0.86088   0.39081   0.00000  Uiso   1.00
O409   O     0.33645   0.89858   0.12252   0.00000  Uiso   1.00
H410   H     0.64708   0.91240   0.15068   0.00000  Uiso   1.00
O411   O     0.66354   0.76810   0.37749   0.00000  Uiso   1.00
H412   H     0.35291   0.75429   0.34933   0.00000  Uiso   1.00
H413   H     0.56885   0.67982   0.25553   0.00000  Uiso   1.00
H414   H     0.43115   0.98685   0.24447   0.00000  Uiso   1.00
H415   H     0.33457   0.87159   0.28447   0.00000  Uiso   1.00
H416   H     0.66543   0.79508   0.21553   0.00000  Uiso   1.00
C417   C     0.84837   0.93339   0.25130   0.00000  Uiso   1.00
C418   C     0.81830   0.73327   0.24870   0.00000  Uiso   1.00
C419   C     0.75940   0.80208   0.04093   0.00000  Uiso   1.00
C420   C     0.90726   0.86464   0.45907   0.00000  Uiso   1.00
C421   C     0.71626   0.78762   0.01535   0.00000  Uiso   1.00
C422   C     0.95040   0.87910   0.48466   0.00000  Uiso   1.00
C423   C     0.85685   0.98936   0.25192   0.00000  Uiso   1.00
C424   C     0.80982   0.67731   0.24808   0.00000  Uiso   1.00
C425   C     0.79415   0.82757   0.33314   0.00000  Uiso   1.00
C426   C     0.87252   0.83910   0.16686   0.00000  Uiso   1.00
C427   C     0.76983   0.81894   0.38080   0.00000  Uiso   1.00
C428   C     0.89683   0.84774   0.11920   0.00000  Uiso   1.00
C429   C     0.69028   0.78236   0.44571   0.00000  Uiso   1.00
C430   C     0.97638   0.88435   0.05430   0.00000  Uiso   1.00
C431   C     0.70776   0.79026   0.40063   0.00000  Uiso   1.00
C432   C     0.95890   0.87643   0.09937   0.00000  Uiso   1.00
C433   C     0.81278   0.83745   0.40675   0.00000  Uiso   1.00
C434   C     0.85389   0.82923   0.09325   0.00000  Uiso   1.00
C435   C     0.79755   0.82569   0.45149   0.00000  Uiso   1.00
C436   C     0.86912   0.84101   0.04851   0.00000  Uiso   1.00
C437   C     0.73459   0.79869   0.47093   0.00000  Uiso   1.00
C438   C     0.93207   0.86802   0.02908   0.00000  Uiso   1.00
C439   C     0.84298   0.83955   0.47728   0.00000  Uiso   1.00
C440   C     0.82368   0.82716   0.02272   0.00000  Uiso   1.00
Cu441  Cu    0.77404   0.82775   0.24516   0.00000  Uiso   1.00
Cu442  Cu    0.89263   0.83892   0.25483   0.00000  Uiso   1.00
H443   H     0.66778   0.76781   0.03067   0.00000  Uiso   1.00
H444   H     0.99888   0.89892   0.46935   0.00000  Uiso   1.00
H445   H     0.97566   0.76117   0.46079   0.00000  Uiso   1.00
H446   H     0.69099   0.90554   0.03922   0.00000  Uiso   1.00
H447   H     0.74010   0.79301   0.07509   0.00000  Uiso   1.00
H448   H     0.92656   0.87372   0.42492   0.00000  Uiso   1.00
N449   N     0.98173   0.84735   0.26212   0.00000  Uiso   1.00
N450   N     0.68494   0.81932   0.23788   0.00000  Uiso   1.00
O451   O     0.79482   0.90476   0.24686   0.00000  Uiso   1.00
O452   O     0.87185   0.76191   0.25314   0.00000  Uiso   1.00
O453   O     0.89496   0.91420   0.25502   0.00000  Uiso   1.00
O454   O     0.77171   0.75247   0.24498   0.00000  Uiso   1.00
O455   O     0.75518   0.82597   0.30854   0.00000  Uiso   1.00
O456   O     0.91149   0.84070   0.19145   0.00000  Uiso   1.00
O457   O     0.85532   0.83540   0.31671   0.00000  Uiso   1.00
O458   O     0.81134   0.83126   0.18329   0.00000  Uiso   1.00
H459   H     0.80827   0.80579   0.10918   0.00000  Uiso   1.00
H460   H     0.85840   0.86088   0.39081   0.00000  Uiso   1.00
O461   O     0.66979   0.89858   0.12252   0.00000  Uiso   1.00
H462   H     0.98042   0.91240   0.15068   0.00000  Uiso   1.00
O463   O     0.99687   0.76810   0.37749   0.00000  Uiso   1.00
H464   H     0.68624   0.75429   0.34933   0.00000  Uiso   1.00
H465   H     0.90218   0.67982   0.25553   0.00000  Uiso   1.00
H466   H     0.76449   0.98685   0.24447   0.00000  Uiso   1.00
H467   H     0.66791   0.87159   0.28447   0.00000  Uiso   1.00
H468   H     0.99876   0.79508   0.21553   0.00000  Uiso   1.00
C469   C     0.18170   0.26673   0.75130   0.00000  Uiso   1.00
C470   C     0.15163   0.06661   0.74870   0.00000  Uiso   1.00
C471   C     0.09273   0.13541   0.54093   0.00000  Uiso   1.00
C472   C     0.24060   0.19797   0.95907   0.00000  Uiso   1.00
C473   C     0.04959   0.12096   0.51535   0.00000  Uiso   1.00
C474   C     0.28374   0.21243   0.98466   0.00000  Uiso   1.00
C475   C     0.19018   0.32269   0.75192   0.00000  Uiso   1.00
C476   C     0.14315   0.01064   0.74808   0.00000  Uiso   1.00
C477   C     0.12748   0.16090   0.83314   0.00000  Uiso   1.00
C478   C     0.20585   0.17243   0.66686   0.00000  Uiso   1.00
C479   C     0.10317   0.15227   0.88080   0.00000  Uiso   1.00
C480   C     0.23017   0.18107   0.61920   0.00000  Uiso   1.00
C481   C     0.02361   0.11569   0.94571   0.00000  Uiso   1.00
C482   C     0.30971   0.21768   0.55430   0.00000  Uiso   1.00
C483   C     0.04110   0.12359   0.90063   0.00000  Uiso   1.00
C484   C     0.29223   0.20976   0.59937   0.00000  Uiso   1.00
C485   C     0.14612   0.17078   0.90675   0.00000  Uiso   1.00
C486   C     0.18722   0.16257   0.59325   0.00000  Uiso   1.00
C487   C     0.13088   0.15902   0.95149   0.00000  Uiso   1.00
C488   C     0.20245   0.17434   0.54851   0.00000  Uiso   1.00
C489   C     0.06793   0.13203   0.97093   0.00000  Uiso   1.00
C490   C     0.26540   0.20135   0.52908   0.00000  Uiso   1.00
C491   C     0.17632   0.17288   0.97728   0.00000  Uiso   1.00
C492   C     0.15701   0.16049   0.52272   0.00000  Uiso   1.00
Cu493  Cu    0.10737   0.16108   0.74516   0.00000  Uiso   1.00
Cu494  Cu    0.22596   0.17225   0.75483   0.00000  Uiso   1.00
H495   H     0.00111   0.10114   0.53067   0.00000  Uiso   1.00
H496   H     0.33221   0.23225   0.96935   0.00000  Uiso   1.00
H497   H     0.30900   0.09451   0.96079   0.00000  Uiso   1.00
H498   H     0.02433   0.23887   0.53922   0.00000  Uiso   1.00
H499   H     0.07344   0.12635   0.57509   0.00000  Uiso   1.00
H500   H     0.25989   0.20705   0.92492   0.00000  Uiso   1.00
N501   N     0.31506   0.18068   0.76212   0.00000  Uiso   1.00
N502   N     0.01827   0.15265   0.73788   0.00000  Uiso   1.00
O503   O     0.12815   0.23809   0.74686   0.00000  Uiso   1.00
O504   O     0.20518   0.09524   0.75314   0.00000  Uiso   1.00
O505   O     0.22829   0.24753   0.75502   0.00000  Uiso   1.00
O506   O     0.10504   0.08580   0.74498   0.00000  Uiso   1.00
O507   O     0.08851   0.15930   0.80854   0.00000  Uiso   1.00
O508   O     0.24482   0.17403   0.69145   0.00000  Uiso   1.00
O509   O     0.18866   0.16874   0.81671   0.00000  Uiso   1.00
O510   O     0.14468   0.16460   0.68329   0.00000  Uiso   1.00
H511   H     0.14161   0.13912   0.60918   0.00000  Uiso   1.00
H512   H     0.19174   0.19421   0.89081   0.00000  Uiso   1.00
O513   O     0.00312   0.23191   0.62252   0.00000  Uiso   1.00
H514   H     0.31375   0.24573   0.65068   0.00000  Uiso   1.00
O515   O     0.33020   0.10144   0.87749   0.00000  Uiso   1.00
H516   H     0.01957   0.08763   0.84933   0.00000  Uiso   1.00
H517   H     0.23551   0.01315   0.75553   0.00000  Uiso   1.00
H518   H     0.09782   0.32018   0.74447   0.00000  Uiso   1.00
H519   H     0.00124   0.20492   0.78447   0.00000  Uiso   1.00
H520   H     0.33209   0.12841   0.71553   0.00000  Uiso   1.00
C521   C     0.51504   0.26673   0.75130   0.00000  Uiso   1.00
C522   C     0.48496   0.06661   0.74870   0.00000  Uiso   1.00
C523   C     0.42606   0.13541   0.54093   0.00000  Uiso   1.00
C524   C     0.57393   0.19797   0.95907   0.00000  Uiso   1.00
C525   C     0.38292   0.12096   0.51535   0.00000  Uiso   1.00
C526   C     0.61707   0.21243   0.98466   0.00000  Uiso   1.00
C527   C     0.52352   0.32269   0.75192   0.00000  Uiso   1.00
C528   C     0.47648   0.01064   0.74808   0.00000  Uiso   1.00
C529   C     0.46082   0.16090   0.83314   0.00000  Uiso   1.00
C530   C     0.53919   0.17243   0.66686   0.00000  Uiso   1.00
C531   C     0.43650   0.15227   0.88080   0.00000  Uiso   1.00
C532   C     0.56350   0.18107   0.61920   0.00000  Uiso   1.00
C533   C     0.35695   0.11569   0.94571   0.00000  Uiso   1.00
C534   C     0.64305   0.21768   0.55430   0.00000  Uiso   1.00
C535   C     0.37443   0.12359   0.90063   0.00000  Uiso   1.00
C536   C     0.62557   0.20976   0.59937   0.00000  Uiso   1.00
C537   C     0.47945   0.17078   0.90675   0.00000  Uiso   1.00
C538   C     0.52055   0.16257   0.59325   0.00000  Uiso   1.00
C539   C     0.46421   0.15902   0.95149   0.00000  Uiso   1.00
C540   C     0.53579   0.17434   0.54851   0.00000  Uiso   1.00
C541   C     0.40126   0.13203   0.97093   0.00000  Uiso   1.00
C542   C     0.59874   0.20135   0.52908   0.00000  Uiso   1.00
C543   C     0.50965   0.17288   0.97728   0.00000  Uiso   1.00
C544   C     0.49035   0.16049   0.52272   0.00000  Uiso   1.00
Cu545  Cu    0.44071   0.16108   0.74516   0.00000  Uiso   1.00
Cu546  Cu    0.55929   0.17225   0.75483   0.00000  Uiso   1.00
H547   H     0.33444   0.10114   0.53067   0.00000  Uiso   1.00
H548   H     0.66555   0.23225   0.96935   0.00000  Uiso   1.00
H549   H     0.64233   0.09451   0.96079   0.00000  Uiso   1.00
H550   H     0.35766   0.23887   0.53922   0.00000  Uiso   1.00
H551   H     0.40677   0.12635   0.57509   0.00000  Uiso   1.00
H552   H     0.59322   0.20705   0.92492   0.00000  Uiso   1.00
N553   N     0.64839   0.18068   0.76212   0.00000  Uiso   1.00
N554   N     0.35161   0.15265   0.73788   0.00000  Uiso   1.00
O555   O     0.46148   0.23809   0.74686   0.00000  Uiso   1.00
O556   O     0.53852   0.09524   0.75314   0.00000  Uiso   1.00
O557   O     0.56163   0.24753   0.75502   0.00000  Uiso   1.00
O558   O     0.43837   0.08580   0.74498   0.00000  Uiso   1.00
O559   O     0.42185   0.15930   0.80854   0.00000  Uiso   1.00
O560   O     0.57815   0.17403   0.69145   0.00000  Uiso   1.00
O561   O     0.52199   0.16874   0.81671   0.00000  Uiso   1.00
O562   O     0.47801   0.16460   0.68329   0.00000  Uiso   1.00
H563   H     0.47494   0.13912   0.60918   0.00000  Uiso   1.00
H564   H     0.52507   0.19421   0.89081   0.00000  Uiso   1.00
O565   O     0.33645   0.23191   0.62252   0.00000  Uiso   1.00
H566   H     0.64708   0.24573   0.65068   0.00000  Uiso   1.00
O567   O     0.66354   0.10144   0.87749   0.00000  Uiso   1.00
H568   H     0.35291   0.08763   0.84933   0.00000  Uiso   1.00
H569   H     0.56885   0.01315   0.75553   0.00000  Uiso   1.00
H570   H     0.43115   0.32018   0.74447   0.00000  Uiso   1.00
H571   H     0.33457   0.20492   0.78447   0.00000  Uiso   1.00
H572   H     0.66543   0.12841   0.71553   0.00000  Uiso   1.00
C573   C     0.84837   0.26673   0.75130   0.00000  Uiso   1.00
C574   C     0.81830   0.06661   0.74870   0.00000  Uiso   1.00
C575   C     0.75940   0.13541   0.54093   0.00000  Uiso   1.00
C576   C     0.90726   0.19797   0.95907   0.00000  Uiso   1.00
C577   C     0.71626   0.12096   0.51535   0.00000  Uiso   1.00
C578   C     0.95040   0.21243   0.98466   0.00000  Uiso   1.00
C579   C     0.85685   0.32269   0.75192   0.00000  Uiso   1.00
C580   C     0.80982   0.01064   0.74808   0.00000  Uiso   1.00
C581   C     0.79415   0.16090   0.83314   0.00000  Uiso   1.00
C582   C     0.87252   0.17243   0.66686   0.00000  Uiso   1.00
C583   C     0.76983   0.15227   0.88080   0.00000  Uiso   1.00
C584   C     0.89683   0.18107   0.61920   0.00000  Uiso   1.00
C585   C     0.69028   0.11569   0.94571   0.00000  Uiso   1.00
C586   C     0.97638   0.21768   0.55430   0.00000  Uiso   1.00
C587   C     0.70776   0.12359   0.90063   0.00000  Uiso   1.00
C588   C     0.95890   0.20976   0.59937   0.00000  Uiso   1.00
C589   C     0.81278   0.17078   0.90675   0.00000  Uiso   1.00
C590   C     0.85389   0.16257   0.59325   0.00000  Uiso   1.00
C591   C     0.79755   0.15902   0.95149   0.00000  Uiso   1.00
C592   C     0.86912   0.17434   0.54851   0.00000  Uiso   1.00
C593   C     0.73459   0.13203   0.97093   0.00000  Uiso   1.00
C594   C     0.93207   0.20135   0.52908   0.00000  Uiso   1.00
C595   C     0.84298   0.17288   0.97728   0.00000  Uiso   1.00
C596   C     0.82368   0.16049   0.52272   0.00000  Uiso   1.00
Cu597  Cu    0.77404   0.16108   0.74516   0.00000  Uiso   1.00
Cu598  Cu    0.89263   0.17225   0.75483   0.00000  Uiso   1.00
H599   H     0.66778   0.10114   0.53067   0.00000  Uiso   1.00
H600   H     0.99888   0.23225   0.96935   0.00000  Uiso   1.00
H601   H     0.97566   0.09451   0.96079   0.00000  Uiso   1.00
H602   H     0.69099   0.23887   0.53922   0.00000  Uiso   1.00
H603   H     0.74010   0.12635   0.57509   0.00000  Uiso   1.00
H604   H     0.92656   0.20705   0.92492   0.00000  Uiso   1.00
N605   N     0.98173   0.18068   0.76212   0.00000  Uiso   1.00
N606   N     0.68494   0.15265   0.73788   0.00000  Uiso   1.00
O607   O     0.79482   0.23809   0.74686   0.00000  Uiso   1.00
O608   O     0.87185   0.09524   0.75314   0.00000  Uiso   1.00
O609   O     0.89496   0.24753   0.75502   0.00000  Uiso   1.00
O610   O     0.77171   0.08580   0.74498   0.00000  Uiso   1.00
O611   O     0.75518   0.15930   0.80854   0.00000  Uiso   1.00
O612   O     0.91149   0.17403   0.69145   0.00000  Uiso   1.00
O613   O     0.85532   0.16874   0.81671   0.00000  Uiso   1.00
O614   O     0.81134   0.16460   0.68329   0.00000  Uiso   1.00
H615   H     0.80827   0.13912   0.60918   0.00000  Uiso   1.00
H616   H     0.85840   0.19421   0.89081   0.00000  Uiso   1.00
O617   O     0.66979   0.23191   0.62252   0.00000  Uiso   1.00
H618   H     0.98042   0.24573   0.65068   0.00000  Uiso   1.00
O619   O     0.99687   0.10144   0.87749   0.00000  Uiso   1.00
H620   H     0.68624   0.08763   0.84933   0.00000  Uiso   1.00
H621   H     0.90218   0.01315   0.75553   0.00000  Uiso   1.00
H622   H     0.76449   0.32018   0.74447   0.00000  Uiso   1.00
H623   H     0.66791   0.20492   0.78447   0.00000  Uiso   1.00
H624   H     0.99876   0.12841   0.71553   0.00000  Uiso   1.00
C625   C     0.18170   0.60006   0.75130   0.00000  Uiso   1.00
C626   C     0.15163   0.39994   0.74870   0.00000  Uiso   1.00
C627   C     0.09273   0.46874   0.54093   0.00000  Uiso   1.00
C628   C     0.24060   0.53131   0.95907   0.00000  Uiso   1.00
C629   C     0.04959   0.45429   0.51535   0.00000  Uiso   1.00
C630   C     0.28374   0.54576   0.98466   0.00000  Uiso   1.00
C631   C     0.19018   0.65602   0.75192   0.00000  Uiso   1.00
C632   C     0.14315   0.34398   0.74808   0.00000  Uiso   1.00
C633   C     0.12748   0.49424   0.83314   0.00000  Uiso   1.00
C634   C     0.20585   0.50577   0.66686   0.00000  Uiso   1.00
C635   C     0.10317   0.48561   0.88080   0.00000  Uiso   1.00
C636   C     0.23017   0.51440   0.61920   0.00000  Uiso   1.00
C637   C     0.02361   0.44903   0.94571   0.00000  Uiso   1.00
C638   C     0.30971   0.55101   0.55430   0.00000  Uiso   1.00
C639   C     0.04110   0.45693   0.90063   0.00000  Uiso   1.00
C640   C     0.29223   0.54310   0.59937   0.00000  Uiso   1.00
C641   C     0.14612   0.50411   0.90675   0.00000  Uiso   1.00
C642   C     0.18722   0.49590   0.59325   0.00000  Uiso   1.00
C643   C     0.13088   0.49236   0.95149   0.00000  Uiso   1.00
C644   C     0.20245   0.50768   0.54851   0.00000  Uiso   1.00
C645   C     0.06793   0.46536   0.97093   0.00000  Uiso   1.00
C646   C     0.26540   0.53468   0.52908   0.00000  Uiso   1.00
C647   C     0.17632   0.50622   0.97728   0.00000  Uiso   1.00
C648   C     0.15701   0.49382   0.52272   0.00000  Uiso   1.00
Cu649  Cu    0.10737   0.49441   0.74516   0.00000  Uiso   1.00
Cu650  Cu    0.22596   0.50559   0.75483   0.00000  Uiso   1.00
H651   H     0.00111   0.43448   0.53067   0.00000  Uiso   1.00
H652   H     0.33221   0.56559   0.96935   0.00000  Uiso   1.00
H653   H     0.30900   0.42784   0.96079   0.00000  Uiso   1.00
H654   H     0.02433   0.57221   0.53922   0.00000  Uiso   1.00
H655   H     0.07344   0.45968   0.57509   0.00000  Uiso   1.00
H656   H     0.25989   0.54038   0.92492   0.00000  Uiso   1.00
N657   N     0.31506   0.51401   0.76212   0.00000  Uiso   1.00
N658   N     0.01827   0.48599   0.73788   0.00000  Uiso   1.00
O659   O     0.12815   0.57142   0.74686   0.00000  Uiso   1.00
O660   O     0.20518   0.42858   0.75314   0.00000  Uiso   1.00
O661   O     0.22829   0.58086   0.75502   0.00000  Uiso   1.00
O662   O     0.10504   0.41914   0.74498   0.00000  Uiso   1.00
O663   O     0.08851   0.49263   0.80854   0.00000  Uiso   1.00
O664   O     0.24482   0.50737   0.69145   0.00000  Uiso   1.00
O665   O     0.18866   0.50207   0.81671   0.00000  Uiso   1.00
O666   O     0.14468   0.49793   0.68329   0.00000  Uiso   1.00
H667   H     0.14161   0.47245   0.60918   0.00000  Uiso   1.00
H668   H     0.19174   0.52754   0.89081   0.00000  Uiso   1.00
O669   O     0.00312   0.56525   0.62252   0.00000  Uiso   1.00
H670   H     0.31375   0.57907   0.65068   0.00000  Uiso   1.00
O671   O     0.33020   0.43477   0.87749   0.00000  Uiso   1.00
H672   H     0.01957   0.42096   0.84933   0.00000  Uiso   1.00
H673   H     0.23551   0.34649   0.75553   0.00000  Uiso   1.00
H674   H     0.09782   0.65351   0.74447   0.00000  Uiso   1.00
H675   H     0.00124   0.53826   0.78447   0.00000  Uiso   1.00
H676   H     0.33209   0.46174   0.71553   0.00000  Uiso   1.00
C677   C     0.51504   0.60006   0.75130   0.00000  Uiso   1.00
C678   C     0.48496   0.39994   0.74870   0.00000  Uiso   1.00
C679   C     0.42606   0.46874   0.54093   0.00000  Uiso   1.00
C680   C     0.57393   0.53131   0.95907   0.00000  Uiso   1.00
C681   C     0.38292   0.45429   0.51535   0.00000  Uiso   1.00
C682   C     0.61707   0.54576   0.98466   0.00000  Uiso   1.00
C683   C     0.52352   0.65602   0.75192   0.00000  Uiso   1.00
C684   C     0.47648   0.34398   0.74808   0.00000  Uiso   1.00
C685   C     0.46082   0.49424   0.83314   0.00000  Uiso   1.00
C686   C     0.53919   0.50577   0.66686   0.00000  Uiso   1.00
C687   C     0.43650   0.48561   0.88080   0.00000  Uiso   1.00
C688   C     0.56350   0.51440   0.61920   0.00000  Uiso   1.00
C689   C     0.35695   0.44903   0.94571   0.00000  Uiso   1.00
C690   C     0.64305   0.55101   0.55430   0.00000  Uiso   1.00
C691   C     0.37443   0.45693   0.90063   0.00000  Uiso   1.00
C692   C     0.62557   0.54310   0.59937   0.00000  Uiso   1.00
C693   C     0.47945   0.50411   0.90675   0.00000  Uiso   1.00
C694   C     0.52055   0.49590   0.59325   0.00000  Uiso   1.00
C695   C     0.46421   0.49236   0.95149   0.00000  Uiso   1.00
C696   C     0.53579   0.50768   0.54851   0.00000  Uiso   1.00
C697   C     0.40126   0.46536   0.97093   0.00000  Uiso   1.00
C698   C     0.59874   0.53468   0.52908   0.00000  Uiso   1.00
C699   C     0.50965   0.50622   0.97728   0.00000  Uiso   1.00
C700   C     0.49035   0.49382   0.52272   0.00000  Uiso   1.00
Cu701  Cu    0.44071   0.49441   0.74516   0.00000  Uiso   1.00
Cu702  Cu    0.55929   0.50559   0.75483   0.00000  Uiso   1.00
H703   H     0.33444   0.43448   0.53067   0.00000  Uiso   1.00
H704   H     0.66555   0.56559   0.96935   0.00000  Uiso   1.00
H705   H     0.64233   0.42784   0.96079   0.00000  Uiso   1.00
H706   H     0.35766   0.57221   0.53922   0.00000  Uiso   1.00
H707   H     0.40677   0.45968   0.57509   0.00000  Uiso   1.00
H708   H     0.59322   0.54038   0.92492   0.00000  Uiso   1.00
N709   N     0.64839   0.51401   0.76212   0.00000  Uiso   1.00
N710   N     0.35161   0.48599   0.73788   0.00000  Uiso   1.00
O711   O     0.46148   0.57142   0.74686   0.00000  Uiso   1.00
O712   O     0.53852   0.42858   0.75314   0.00000  Uiso   1.00
O713   O     0.56163   0.58086   0.75502   0.00000  Uiso   1.00
O714   O     0.43837   0.41914   0.74498   0.00000  Uiso   1.00
O715   O     0.42185   0.49263   0.80854   0.00000  Uiso   1.00
O716   O     0.57815   0.50737   0.69145   0.00000  Uiso   1.00
O717   O     0.52199   0.50207   0.81671   0.00000  Uiso   1.00
O718   O     0.47801   0.49793   0.68329   0.00000  Uiso   1.00
H719   H     0.47494   0.47245   0.60918   0.00000  Uiso   1.00
H720   H     0.52507   0.52754   0.89081   0.00000  Uiso   1.00
O721   O     0.33645   0.56525   0.62252   0.00000  Uiso   1.00
H722   H     0.64708   0.57907   0.65068   0.00000  Uiso   1.00
O723   O     0.66354   0.43477   0.87749   0.00000  Uiso   1.00
H724   H     0.35291   0.42096   0.84933   0.00000  Uiso   1.00
H725   H     0.56885   0.34649   0.75553   0.00000  Uiso   1.00
H726   H     0.43115   0.65351   0.74447   0.00000  Uiso   1.00
H727   H     0.33457   0.53826   0.78447   0.00000  Uiso   1.00
H728   H     0.66543   0.46174   0.71553   0.00000  Uiso   1.00
C729   C     0.84837   0.60006   0.75130   0.00000  Uiso   1.00
C730   C     0.81830   0.39994   0.74870   0.00000  Uiso   1.00
C731   C     0.75940   0.46874   0.54093   0.00000  Uiso   1.00
C732   C     0.90726   0.53131   0.95907   0.00000  Uiso   1.00
C733   C     0.71626   0.45429   0.51535   0.00000  Uiso   1.00
C734   C     0.95040   0.54576   0.98466   0.00000  Uiso   1.00
C735   C     0.85685   0.65602   0.75192   0.00000  Uiso   1.00
C736   C     0.80982   0.34398   0.74808   0.00000  Uiso   1.00
C737   C     0.79415   0.49424   0.83314   0.00000  Uiso   1.00
C738   C     0.87252   0.50577   0.66686   0.00000  Uiso   1.00
C739   C     0.76983   0.48561   0.88080   0.00000  Uiso   1.00
C740   C     0.89683   0.51440   0.61920   0.00000  Uiso   1.00
C741   C     0.69028   0.44903   0.94571   0.00000  Uiso   1.00
C742   C     0.97638   0.55101   0.55430   0.00000  Uiso   1.00
C743   C     0.70776   0.45693   0.90063   0.00000  Uiso   1.00
C744   C     0.95890   0.54310   0.59937   0.00000  Uiso   1.00
C745   C     0.81278   0.50411   0.90675   0.00000  Uiso   1.00
C746   C     0.85389   0.49590   0.59325   0.00000  Uiso   1.00
C747   C     0.79755   0.49236   0.95149   0.00000  Uiso   1.00
C748   C     0.86912   0.50768   0.54851   0.00000  Uiso   1.00
C749   C     0.73459   0.46536   0.97093   0.00000  Uiso   1.00
C750   C     0.93207   0.53468   0.52908   0.00000  Uiso   1.00
C751   C     0.84298   0.50622   0.97728   0.00000  Uiso   1.00
C752   C     0.82368   0.49382   0.52272   0.00000  Uiso   1.00
Cu753  Cu    0.77404   0.49441   0.74516   0.00000  Uiso   1.00
Cu754  Cu    0.89263   0.50559   0.75483   0.00000  Uiso   1.00
H755   H     0.66778   0.43448   0.53067   0.00000  Uiso   1.00
H756   H     0.99888   0.56559   0.96935   0.00000  Uiso   1.00
H757   H     0.97566   0.42784   0.96079   0.00000  Uiso   1.00
H758   H     0.69099   0.57221   0.53922   0.00000  Uiso   1.00
H759   H     0.74010   0.45968   0.57509   0.00000  Uiso   1.00
H760   H     0.92656   0.54038   0.92492   0.00000  Uiso   1.00
N761   N     0.98173   0.51401   0.76212   0.00000  Uiso   1.00
N762   N     0.68494   0.48599   0.73788   0.00000  Uiso   1.00
O763   O     0.79482   0.57142   0.74686   0.00000  Uiso   1.00
O764   O     0.87185   0.42858   0.75314   0.00000  Uiso   1.00
O765   O     0.89496   0.58086   0.75502   0.00000  Uiso   1.00
O766   O     0.77171   0.41914   0.74498   0.00000  Uiso   1.00
O767   O     0.75518   0.49263   0.80854   0.00000  Uiso   1.00
O768   O     0.91149   0.50737   0.69145   0.00000  Uiso   1.00
O769   O     0.85532   0.50207   0.81671   0.00000  Uiso   1.00
O770   O     0.81134   0.49793   0.68329   0.00000  Uiso   1.00
H771   H     0.80827   0.47245   0.60918   0.00000  Uiso   1.00
H772   H     0.85840   0.52754   0.89081   0.00000  Uiso   1.00
O773   O     0.66979   0.56525   0.62252   0.00000  Uiso   1.00
H774   H     0.98042   0.57907   0.65068   0.00000  Uiso   1.00
O775   O     0.99687   0.43477   0.87749   0.00000  Uiso   1.00
H776   H     0.68624   0.42096   0.84933   0.00000  Uiso   1.00
H777   H     0.90218   0.34649   0.75553   0.00000  Uiso   1.00
H778   H     0.76449   0.65351   0.74447   0.00000  Uiso   1.00
H779   H     0.66791   0.53826   0.78447   0.00000  Uiso   1.00
H780   H     0.99876   0.46174   0.71553   0.00000  Uiso   1.00
C781   C     0.18170   0.93339   0.75130   0.00000  Uiso   1.00
C782   C     0.15163   0.73327   0.74870   0.00000  Uiso   1.00
C783   C     0.09273   0.80208   0.54093   0.00000  Uiso   1.00
C784   C     0.24060   0.86464   0.95907   0.00000  Uiso   1.00
C785   C     0.04959   0.78762   0.51535   0.00000  Uiso   1.00
C786   C     0.28374   0.87910   0.98466   0.00000  Uiso   1.00
C787   C     0.19018   0.98936   0.75192   0.00000  Uiso   1.00
C788   C     0.14315   0.67731   0.74808   0.00000  Uiso   1.00
C789   C     0.12748   0.82757   0.83314   0.00000  Uiso   1.00
C790   C     0.20585   0.83910   0.66686   0.00000  Uiso   1.00
C791   C     0.10317   0.81894   0.88080   0.00000  Uiso   1.00
C792   C     0.23017   0.84774   0.61920   0.00000  Uiso   1.00
C793   C     0.02361   0.78236   0.94571   0.00000  Uiso   1.00
C794   C     0.30971   0.88435   0.55430   0.00000  Uiso   1.00
C795   C     0.04110   0.79026   0.90063   0.00000  Uiso   1.00
C796   C     0.29223   0.87643   0.59937   0.00000  Uiso   1.00
C797   C     0.14612   0.83745   0.90675   0.00000  Uiso   1.00
C798   C     0.18722   0.82923   0.59325   0.00000  Uiso   1.00
C799   C     0.13088   0.82569   0.95149   0.00000  Uiso   1.00
C800   C     0.20245   0.84101   0.54851   0.00000  Uiso   1.00
C801   C     0.06793   0.79869   0.97093   0.00000  Uiso   1.00
C802   C     0.26540   0.86802   0.52908   0.00000  Uiso   1.00
C803   C     0.17632   0.83955   0.97728   0.00000  Uiso   1.00
C804   C     0.15701   0.82716   0.52272   0.00000  Uiso   1.00
Cu805  Cu    0.10737   0.82775   0.74516   0.00000  Uiso   1.00
Cu806  Cu    0.22596   0.83892   0.75483   0.00000  Uiso   1.00
H807   H     0.00111   0.76781   0.53067   0.00000  Uiso   1.00
H808   H     0.33221   0.89892   0.96935   0.00000  Uiso   1.00
H809   H     0.30900   0.76117   0.96079   0.00000  Uiso   1.00
H810   H     0.02433   0.90554   0.53922   0.00000  Uiso   1.00
H811   H     0.07344   0.79301   0.57509   0.00000  Uiso   1.00
H812   H     0.25989   0.87372   0.92492   0.00000  Uiso   1.00
N813   N     0.31506   0.84735   0.76212   0.00000  Uiso   1.00
N814   N     0.01827   0.81932   0.73788   0.00000  Uiso   1.00
O815   O     0.12815   0.90476   0.74686   0.00000  Uiso   1.00
O816   O     0.20518   0.76191   0.75314   0.00000  Uiso   1.00
O817   O     0.22829   0.91420   0.75502   0.00000  Uiso   1.00
O818   O     0.10504   0.75247   0.74498   0.00000  Uiso   1.00
O819   O     0.08851   0.82597   0.80854   0.00000  Uiso   1.00
O820   O     0.24482   0.84070   0.69145   0.00000  Uiso   1.00
O821   O     0.18866   0.83540   0.81671   0.00000  Uiso   1.00
O822   O     0.14468   0.83126   0.68329   0.00000  Uiso   1.00
H823   H     0.14161   0.80579   0.60918   0.00000  Uiso   1.00
H824   H     0.19174   0.86088   0.89081   0.00000  Uiso   1.00
O825   O     0.00312   0.89858   0.62252   0.00000  Uiso   1.00
H826   H     0.31375   0.91240   0.65068   0.00000  Uiso   1.00
O827   O     0.33020   0.76810   0.87749   0.00000  Uiso   1.00
H828   H     0.01957   0.75429   0.84933   0.00000  Uiso   1.00
H829   H     0.23551   0.67982   0.75553   0.00000  Uiso   1.00
H830   H     0.09782   0.98685   0.74447   0.00000  Uiso   1.00
H831   H     0.00124   0.87159   0.78447   0.00000  Uiso   1.00
H832   H     0.33209   0.79508   0.71553   0.00000  Uiso   1.00
C833   C     0.51504   0.93339   0.75130   0.00000  Uiso   1.00
C834   C     0.48496   0.73327   0.74870   0.00000  Uiso   1.00
C835   C     0.42606   0.80208   0.54093   0.00000  Uiso   1.00
C836   C     0.57393   0.86464   0.95907   0.00000  Uiso   1.00
C837   C     0.38292   0.78762   0.51535   0.00000  Uiso   1.00
C838   C     0.61707   0.87910   0.98466   0.00000  Uiso   1.00
C839   C     0.52352   0.98936   0.75192   0.00000  Uiso   1.00
C840   C     0.47648   0.67731   0.74808   0.00000  Uiso   1.00
C841   C     0.46082   0.82757   0.83314   0.00000  Uiso   1.00
C842   C     0.53919   0.83910   0.66686   0.00000  Uiso   1.00
C843   C     0.43650   0.81894   0.88080   0.00000  Uiso   1.00
C844   C     0.56350   0.84774   0.61920   0.00000  Uiso   1.00
C845   C     0.35695   0.78236   0.94571   0.00000  Uiso   1.00
C846   C     0.64305   0.88435   0.55430   0.00000  Uiso   1.00
C847   C     0.37443   0.79026   0.90063   0.00000  Uiso   1.00
C848   C     0.62557   0.87643   0.59937   0.00000  Uiso   1.00
C849   C     0.47945   0.83745   0.90675   0.00000  Uiso   1.00
C850   C     0.52055   0.82923   0.59325   0.00000  Uiso   1.00
C851   C     0.46421   0.82569   0.95149   0.00000  Uiso   1.00
C852   C     0.53579   0.84101   0.54851   0.00000  Uiso   1.00
C853   C     0.40126   0.79869   0.97093   0.00000  Uiso   1.00
C854   C     0.59874   0.86802   0.52908   0.00000  Uiso   1.00
C855   C     0.50965   0.83955   0.97728   0.00000  Uiso   1.00
C856   C     0.49035   0.82716   0.52272   0.00000  Uiso   1.00
Cu857  Cu    0.44071   0.82775   0.74516   0.00000  Uiso   1.00
Cu858  Cu    0.55929   0.83892   0.75483   0.00000  Uiso   1.00
H859   H     0.33444   0.76781   0.53067   0.00000  Uiso   1.00
H860   H     0.66555   0.89892   0.96935   0.00000  Uiso   1.00
H861   H     0.64233   0.76117   0.96079   0.00000  Uiso   1.00
H862   H     0.35766   0.90554   0.53922   0.00000  Uiso   1.00
H863   H     0.40677   0.79301   0.57509   0.00000  Uiso   1.00
H864   H     0.59322   0.87372   0.92492   0.00000  Uiso   1.00
N865   N     0.64839   0.84735   0.76212   0.00000  Uiso   1.00
N866   N     0.35161   0.81932   0.73788   0.00000  Uiso   1.00
O867   O     0.46148   0.90476   0.74686   0.00000  Uiso   1.00
O868   O     0.53852   0.76191   0.75314   0.00000  Uiso   1.00
O869   O     0.56163   0.91420   0.75502   0.00000  Uiso   1.00
O870   O     0.43837   0.75247   0.74498   0.00000  Uiso   1.00
O871   O     0.42185   0.82597   0.80854   0.00000  Uiso   1.00
O872   O     0.57815   0.84070   0.69145   0.00000  Uiso   1.00
O873   O     0.52199   0.83540   0.81671   0.00000  Uiso   1.00
O874   O     0.47801   0.83126   0.68329   0.00000  Uiso   1.00
H875   H     0.47494   0.80579   0.60918   0.00000  Uiso   1.00
H876   H     0.52507   0.86088   0.89081   0.00000  Uiso   1.00
O877   O     0.33645   0.89858   0.62252   0.00000  Uiso   1.00
H878   H     0.64708   0.91240   0.65068   0.00000  Uiso   1.00
O879   O     0.66354   0.76810   0.87749   0.00000  Uiso   1.00
H880   H     0.35291   0.75429   0.84933   0.00000  Uiso   1.00
H881   H     0.56885   0.67982   0.75553   0.00000  Uiso   1.00
H882   H     0.43115   0.98685   0.74447   0.00000  Uiso   1.00
H883   H     0.33457   0.87159   0.78447   0.00000  Uiso   1.00
H884   H     0.66543   0.79508   0.71553   0.00000  Uiso   1.00
C885   C     0.84837   0.93339   0.75130   0.00000  Uiso   1.00
C886   C     0.81830   0.73327   0.74870   0.00000  Uiso   1.00
C887   C     0.75940   0.80208   0.54093   0.00000  Uiso   1.00
C888   C     0.90726   0.86464   0.95907   0.00000  Uiso   1.00
C889   C     0.71626   0.78762   0.51535   0.00000  Uiso   1.00
C890   C     0.95040   0.87910   0.98466   0.00000  Uiso   1.00
C891   C     0.85685   0.98936   0.75192   0.00000  Uiso   1.00
C892   C     0.80982   0.67731   0.74808   0.00000  Uiso   1.00
C893   C     0.79415   0.82757   0.83314   0.00000  Uiso   1.00
C894   C     0.87252   0.83910   0.66686   0.00000  Uiso   1.00
C895   C     0.76983   0.81894   0.88080   0.00000  Uiso   1.00
C896   C     0.89683   0.84774   0.61920   0.00000  Uiso   1.00
C897   C     0.69028   0.78236   0.94571   0.00000  Uiso   1.00
C898   C     0.97638   0.88435   0.55430   0.00000  Uiso   1.00
C899   C     0.70776   0.79026   0.90063   0.00000  Uiso   1.00
C900   C     0.95890   0.87643   0.59937   0.00000  Uiso   1.00
C901   C     0.81278   0.83745   0.90675   0.00000  Uiso   1.00
C902   C     0.85389   0.82923   0.59325   0.00000  Uiso   1.00
C903   C     0.79755   0.82569   0.95149   0.00000  Uiso   1.00
C904   C     0.86912   0.84101   0.54851   0.00000  Uiso   1.00
C905   C     0.73459   0.79869   0.97093   0.00000  Uiso   1.00
C906   C     0.93207   0.86802   0.52908   0.00000  Uiso   1.00
C907   C     0.84298   0.83955   0.97728   0.00000  Uiso   1.00
C908   C     0.82368   0.82716   0.52272   0.00000  Uiso   1.00
Cu909  Cu    0.77404   0.82775   0.74516   0.00000  Uiso   1.00
Cu910  Cu    0.89263   0.83892   0.75483   0.00000  Uiso   1.00
H911   H     0.66778   0.76781   0.53067   0.00000  Uiso   1.00
H912   H     0.99888   0.89892   0.96935   0.00000  Uiso   1.00
H913   H     0.97566   0.76117   0.96079   0.00000  Uiso   1.00
H914   H     0.69099   0.90554   0.53922   0.00000  Uiso   1.00
H915   H     0.74010   0.79301   0.57509   0.00000  Uiso   1.00
H916   H     0.92656   0.87372   0.92492   0.00000  Uiso   1.00
N917   N     0.98173   0.84735   0.76212   0.00000  Uiso   1.00
N918   N     0.68494   0.81932   0.73788   0.00000  Uiso   1.00
O919   O     0.79482   0.90476   0.74686   0.00000  Uiso   1.00
O920   O     0.87185   0.76191   0.75314   0.00000  Uiso   1.00
O921   O     0.89496   0.91420   0.75502   0.00000  Uiso   1.00
O922   O     0.77171   0.75247   0.74498   0.00000  Uiso   1.00
O923   O     0.75518   0.82597   0.80854   0.00000  Uiso   1.00
O924   O     0.91149   0.84070   0.69145   0.00000  Uiso   1.00
O925   O     0.85532   0.83540   0.81671   0.00000  Uiso   1.00
O926   O     0.81134   0.83126   0.68329   0.00000  Uiso   1.00
H927   H     0.80827   0.80579   0.60918   0.00000  Uiso   1.00
H928   H     0.85840   0.86088   0.89081   0.00000  Uiso   1.00
O929   O     0.66979   0.89858   0.62252   0.00000  Uiso   1.00
H930   H     0.98042   0.91240   0.65068   0.00000  Uiso   1.00
O931   O     0.99687   0.76810   0.87749   0.00000  Uiso   1.00
H932   H     0.68624   0.75429   0.84933   0.00000  Uiso   1.00
H933   H     0.90218   0.67982   0.75553   0.00000  Uiso   1.00
H934   H     0.76449   0.98685   0.74447   0.00000  Uiso   1.00
H935   H     0.66791   0.87159   0.78447   0.00000  Uiso   1.00
H936   H     0.99876   0.79508   0.71553   0.00000  Uiso   1.00
loop_
_geom_bond_atom_site_label_1
_geom_bond_atom_site_label_2
_geom_bond_distance
_geom_bond_site_symmetry_2
_ccdc_geom_bond_type
C1     O37     1.286   .     A
C1     O35     1.291   .     A
C1     C7      1.428   .     S
C2     O38     1.286   .     A
C2     O36     1.291   .     A
C2     C8      1.428   .     S
C3     H31     1.075   .     S
C3     C24     1.417   .     A
C3     C5      1.386   .     A
C4     H32     1.075   .     S
C4     C6      1.386   .     A
C4     C23     1.417   .     A
C5     H27     1.085   .     S
C5     C489    1.390   1_554 S
C6     H28     1.085   .     S
C6     C490    1.390   .     S
C7     C164    1.328   .     S
C7     H205    1.088   .     S
C8     C319    1.328   1_545 S
C8     H362    1.088   1_545 S
C9     C11     1.478   .     S
C9     O39     1.302   .     A
C9     O41     1.299   .     A
C10    O42     1.299   .     A
C10    C12     1.478   .     S
C10    O40     1.302   .     A
C11    C15     1.417   .     A
C11    C17     1.403   .     A
C12    C18     1.403   .     A
C12    C16     1.417   .     A
C13    C21     1.402   .     A
C13    C15     1.394   .     A
C13    H133    1.085   1_455 S
C14    C22     1.402   .     A
C14    C16     1.394   .     A
C14    H82     1.085   .     S
C15    O151    1.378   1_455 S
C16    O97     1.378   .     S
C17    H44     1.074   .     S
C17    C19     1.406   .     A
C18    H43     1.074   .     S
C18    C20     1.406   .     A
C19    C23     1.430   .     A
C19    C21     1.415   .     A
C20    C24     1.430   .     A
C20    C22     1.415   .     A
C21    C473    1.390   .     S
C22    C474    1.390   1_554 S
C23    C492    1.428   .     S
C24    C491    1.428   1_554 S
Cu25   O42     1.916   .     S
Cu25   O38     1.952   .     S
Cu25   N34     2.019   .     S
Cu25   O39     1.940   .     S
Cu25   O35     1.956   .     S
Cu25   Cu26    2.688   .     S
Cu26   O37     1.952   .     S
Cu26   N33     2.019   .     S
Cu26   O40     1.940   .     S
Cu26   O36     1.956   .     S
Cu26   O41     1.916   .     S
H29    C65     1.085   .     S
H30    C118    1.085   1_455 S
N33    N86     1.283   .     S
N33    H103    1.029   .     S
N34    N137    1.283   1_455 S
N34    H156    1.029   1_455 S
O45    C120    1.378   1_455 S
O45    H150    0.989   1_455 S
H46    O97     0.989   .     S
O47    C67     1.378   .     S
O47    H100    0.989   .     S
H48    O151    0.989   1_455 S
H49    C319    1.088   1_545 S
H50    C164    1.088   .     S
H51    N137    1.029   1_455 S
H52    N86     1.029   .     S
C53    O89     1.286   .     A
C53    O87     1.291   .     A
C53    C59     1.428   .     S
C54    O90     1.286   .     A
C54    O88     1.291   .     A
C54    C60     1.428   .     S
C55    H83     1.075   .     S
C55    C76     1.417   .     A
C55    C57     1.386   .     A
C56    H84     1.075   .     S
C56    C58     1.386   .     A
C56    C75     1.417   .     A
C57    H79     1.085   .     S
C57    C541    1.390   1_554 S
C58    H80     1.085   .     S
C58    C542    1.390   .     S
C59    C216    1.328   .     S
C59    H257    1.088   .     S
C60    C371    1.328   1_545 S
C60    H414    1.088   1_545 S
C61    C63     1.478   .     S
C61    O91     1.302   .     A
C61    O93     1.299   .     A
C62    O94     1.299   .     A
C62    C64     1.478   .     S
C62    O92     1.302   .     A
C63    C67     1.417   .     A
C63    C69     1.403   .     A
C64    C70     1.403   .     A
C64    C68     1.417   .     A
C65    C73     1.402   .     A
C65    C67     1.394   .     A
C66    C74     1.402   .     A
C66    C68     1.394   .     A
C66    H134    1.085   .     S
C68    O149    1.378   .     S
C69    H96     1.074   .     S
C69    C71     1.406   .     A
C70    H95     1.074   .     S
C70    C72     1.406   .     A
C71    C75     1.430   .     A
C71    C73     1.415   .     A
C72    C76     1.430   .     A
C72    C74     1.415   .     A
C73    C525    1.390   .     S
C74    C526    1.390   1_554 S
C75    C544    1.428   .     S
C76    C543    1.428   1_554 S
Cu77   O94     1.916   .     S
Cu77   O90     1.952   .     S
Cu77   N86     2.019   .     S
Cu77   O91     1.940   .     S
Cu77   O87     1.956   .     S
Cu77   Cu78    2.688   .     S
Cu78   O89     1.952   .     S
Cu78   N85     2.019   .     S
Cu78   O92     1.940   .     S
Cu78   O88     1.956   .     S
Cu78   O93     1.916   .     S
H81    C117    1.085   .     S
N85    N138    1.283   .     S
N85    H155    1.029   .     S
H98    O149    0.989   .     S
O99    C119    1.378   .     S
O99    H152    0.989   .     S
H101   C371    1.088   1_545 S
H102   C216    1.088   .     S
H104   N138    1.029   .     S
C105   O141    1.286   .     A
C105   O139    1.291   .     A
C105   C111    1.428   .     S
C106   O142    1.286   .     A
C106   O140    1.291   .     A
C106   C112    1.428   .     S
C107   H135    1.075   .     S
C107   C128    1.417   .     A
C107   C109    1.386   .     A
C108   H136    1.075   .     S
C108   C110    1.386   .     A
C108   C127    1.417   .     A
C109   H131    1.085   .     S
C109   C593    1.390   1_554 S
C110   H132    1.085   .     S
C110   C594    1.390   .     S
C111   C268    1.328   .     S
C111   H309    1.088   .     S
C112   C423    1.328   1_545 S
C112   H466    1.088   1_545 S
C113   C115    1.478   .     S
C113   O143    1.302   .     A
C113   O145    1.299   .     A
C114   O146    1.299   .     A
C114   C116    1.478   .     S
C114   O144    1.302   .     A
C115   C119    1.417   .     A
C115   C121    1.403   .     A
C116   C122    1.403   .     A
C116   C120    1.417   .     A
C117   C125    1.402   .     A
C117   C119    1.394   .     A
C118   C126    1.402   .     A
C118   C120    1.394   .     A
C118   H30     1.085   1_655 S
C120   O45     1.378   1_655 S
C121   H148    1.074   .     S
C121   C123    1.406   .     A
C122   H147    1.074   .     S
C122   C124    1.406   .     A
C123   C127    1.430   .     A
C123   C125    1.415   .     A
C124   C128    1.430   .     A
C124   C126    1.415   .     A
C125   C577    1.390   .     S
C126   C578    1.390   1_554 S
C127   C596    1.428   .     S
C128   C595    1.428   1_554 S
Cu129  O146    1.916   .     S
Cu129  O142    1.952   .     S
Cu129  N138    2.019   .     S
Cu129  O143    1.940   .     S
Cu129  O139    1.956   .     S
Cu129  Cu130   2.688   .     S
Cu130  O141    1.952   .     S
Cu130  N137    2.019   .     S
Cu130  O144    1.940   .     S
Cu130  O140    1.956   .     S
Cu130  O145    1.916   .     S
H133   C13     1.085   1_655 S
N137   N34     1.283   1_655 S
N137   H51     1.029   1_655 S
H150   O45     0.989   1_655 S
O151   C15     1.378   1_655 S
O151   H48     0.989   1_655 S
H153   C423    1.088   1_545 S
H154   C268    1.088   .     S
H156   N34     1.029   1_655 S
C157   O193    1.286   .     A
C157   O191    1.291   .     A
C157   C163    1.428   .     S
C158   O194    1.286   .     A
C158   O192    1.291   .     A
C158   C164    1.428   .     S
C159   H187    1.075   .     S
C159   C180    1.417   .     A
C159   C161    1.386   .     A
C160   H188    1.075   .     S
C160   C162    1.386   .     A
C160   C179    1.417   .     A
C161   H183    1.085   .     S
C161   C645    1.390   1_554 S
C162   H184    1.085   .     S
C162   C646    1.390   .     S
C163   C320    1.328   .     S
C163   H361    1.088   .     S
C165   C167    1.478   .     S
C165   O195    1.302   .     A
C165   O197    1.299   .     A
C166   O198    1.299   .     A
C166   C168    1.478   .     S
C166   O196    1.302   .     A
C167   C171    1.417   .     A
C167   C173    1.403   .     A
C168   C174    1.403   .     A
C168   C172    1.417   .     A
C169   C177    1.402   .     A
C169   C171    1.394   .     A
C169   H289    1.085   1_455 S
C170   C178    1.402   .     A
C170   C172    1.394   .     A
C170   H238    1.085   .     S
C171   O307    1.378   1_455 S
C172   O253    1.378   .     S
C173   H200    1.074   .     S
C173   C175    1.406   .     A
C174   H199    1.074   .     S
C174   C176    1.406   .     A
C175   C179    1.430   .     A
C175   C177    1.415   .     A
C176   C180    1.430   .     A
C176   C178    1.415   .     A
C177   C629    1.390   .     S
C178   C630    1.390   1_554 S
C179   C648    1.428   .     S
C180   C647    1.428   1_554 S
Cu181  O198    1.916   .     S
Cu181  O194    1.952   .     S
Cu181  N190    2.019   .     S
Cu181  O195    1.940   .     S
Cu181  O191    1.956   .     S
Cu181  Cu182   2.688   .     S
Cu182  O193    1.952   .     S
Cu182  N189    2.019   .     S
Cu182  O196    1.940   .     S
Cu182  O192    1.956   .     S
Cu182  O197    1.916   .     S
H185   C221    1.085   .     S
H186   C274    1.085   1_455 S
N189   N242    1.283   .     S
N189   H259    1.029   .     S
N190   N293    1.283   1_455 S
N190   H312    1.029   1_455 S
O201   C276    1.378   1_455 S
O201   H306    0.989   1_455 S
H202   O253    0.989   .     S
O203   C223    1.378   .     S
O203   H256    0.989   .     S
H204   O307    0.989   1_455 S
H206   C320    1.088   .     S
H207   N293    1.029   1_455 S
H208   N242    1.029   .     S
C209   O245    1.286   .     A
C209   O243    1.291   .     A
C209   C215    1.428   .     S
C210   O246    1.286   .     A
C210   O244    1.291   .     A
C210   C216    1.428   .     S
C211   H239    1.075   .     S
C211   C232    1.417   .     A
C211   C213    1.386   .     A
C212   H240    1.075   .     S
C212   C214    1.386   .     A
C212   C231    1.417   .     A
C213   H235    1.085   .     S
C213   C697    1.390   1_554 S
C214   H236    1.085   .     S
C214   C698    1.390   .     S
C215   C372    1.328   .     S
C215   H413    1.088   .     S
C217   C219    1.478   .     S
C217   O247    1.302   .     A
C217   O249    1.299   .     A
C218   O250    1.299   .     A
C218   C220    1.478   .     S
C218   O248    1.302   .     A
C219   C223    1.417   .     A
C219   C225    1.403   .     A
C220   C226    1.403   .     A
C220   C224    1.417   .     A
C221   C229    1.402   .     A
C221   C223    1.394   .     A
C222   C230    1.402   .     A
C222   C224    1.394   .     A
C222   H290    1.085   .     S
C224   O305    1.378   .     S
C225   H252    1.074   .     S
C225   C227    1.406   .     A
C226   H251    1.074   .     S
C226   C228    1.406   .     A
C227   C231    1.430   .     A
C227   C229    1.415   .     A
C228   C232    1.430   .     A
C228   C230    1.415   .     A
C229   C681    1.390   .     S
C230   C682    1.390   1_554 S
C231   C700    1.428   .     S
C232   C699    1.428   1_554 S
Cu233  O250    1.916   .     S
Cu233  O246    1.952   .     S
Cu233  N242    2.019   .     S
Cu233  O247    1.940   .     S
Cu233  O243    1.956   .     S
Cu233  Cu234   2.688   .     S
Cu234  O245    1.952   .     S
Cu234  N241    2.019   .     S
Cu234  O248    1.940   .     S
Cu234  O244    1.956   .     S
Cu234  O249    1.916   .     S
H237   C273    1.085   .     S
N241   N294    1.283   .     S
N241   H311    1.029   .     S
H254   O305    0.989   .     S
O255   C275    1.378   .     S
O255   H308    0.989   .     S
H258   C372    1.088   .     S
H260   N294    1.029   .     S
C261   O297    1.286   .     A
C261   O295    1.291   .     A
C261   C267    1.428   .     S
C262   O298    1.286   .     A
C262   O296    1.291   .     A
C262   C268    1.428   .     S
C263   H291    1.075   .     S
C263   C284    1.417   .     A
C263   C265    1.386   .     A
C264   H292    1.075   .     S
C264   C266    1.386   .     A
C264   C283    1.417   .     A
C265   H287    1.085   .     S
C265   C749    1.390   1_554 S
C266   H288    1.085   .     S
C266   C750    1.390   .     S
C267   C424    1.328   .     S
C267   H465    1.088   .     S
C269   C271    1.478   .     S
C269   O299    1.302   .     A
C269   O301    1.299   .     A
C270   O302    1.299   .     A
C270   C272    1.478   .     S
C270   O300    1.302   .     A
C271   C275    1.417   .     A
C271   C277    1.403   .     A
C272   C278    1.403   .     A
C272   C276    1.417   .     A
C273   C281    1.402   .     A
C273   C275    1.394   .     A
C274   C282    1.402   .     A
C274   C276    1.394   .     A
C274   H186    1.085   1_655 S
C276   O201    1.378   1_655 S
C277   H304    1.074   .     S
C277   C279    1.406   .     A
C278   H303    1.074   .     S
C278   C280    1.406   .     A
C279   C283    1.430   .     A
C279   C281    1.415   .     A
C280   C284    1.430   .     A
C280   C282    1.415   .     A
C281   C733    1.390   .     S
C282   C734    1.390   1_554 S
C283   C752    1.428   .     S
C284   C751    1.428   1_554 S
Cu285  O302    1.916   .     S
Cu285  O298    1.952   .     S
Cu285  N294    2.019   .     S
Cu285  O299    1.940   .     S
Cu285  O295    1.956   .     S
Cu285  Cu286   2.688   .     S
Cu286  O297    1.952   .     S
Cu286  N293    2.019   .     S
Cu286  O300    1.940   .     S
Cu286  O296    1.956   .     S
Cu286  O301    1.916   .     S
H289   C169    1.085   1_655 S
N293   N190    1.283   1_655 S
N293   H207    1.029   1_655 S
H306   O201    0.989   1_655 S
O307   C171    1.378   1_655 S
O307   H204    0.989   1_655 S
H310   C424    1.088   .     S
H312   N190    1.029   1_655 S
C313   O349    1.286   .     A
C313   O347    1.291   .     A
C313   C319    1.428   .     S
C314   O350    1.286   .     A
C314   O348    1.291   .     A
C314   C320    1.428   .     S
C315   H343    1.075   .     S
C315   C336    1.417   .     A
C315   C317    1.386   .     A
C316   H344    1.075   .     S
C316   C318    1.386   .     A
C316   C335    1.417   .     A
C317   H339    1.085   .     S
C317   C801    1.390   1_554 S
C318   H340    1.085   .     S
C318   C802    1.390   .     S
C319   C8      1.328   1_565 S
C319   H49     1.088   1_565 S
C321   C323    1.478   .     S
C321   O351    1.302   .     A
C321   O353    1.299   .     A
C322   O354    1.299   .     A
C322   C324    1.478   .     S
C322   O352    1.302   .     A
C323   C327    1.417   .     A
C323   C329    1.403   .     A
C324   C330    1.403   .     A
C324   C328    1.417   .     A
C325   C333    1.402   .     A
C325   C327    1.394   .     A
C325   H445    1.085   1_455 S
C326   C334    1.402   .     A
C326   C328    1.394   .     A
C326   H394    1.085   .     S
C327   O463    1.378   1_455 S
C328   O409    1.378   .     S
C329   H356    1.074   .     S
C329   C331    1.406   .     A
C330   H355    1.074   .     S
C330   C332    1.406   .     A
C331   C335    1.430   .     A
C331   C333    1.415   .     A
C332   C336    1.430   .     A
C332   C334    1.415   .     A
C333   C785    1.390   .     S
C334   C786    1.390   1_554 S
C335   C804    1.428   .     S
C336   C803    1.428   1_554 S
Cu337  O354    1.916   .     S
Cu337  O350    1.952   .     S
Cu337  N346    2.019   .     S
Cu337  O351    1.940   .     S
Cu337  O347    1.956   .     S
Cu337  Cu338   2.688   .     S
Cu338  O349    1.952   .     S
Cu338  N345    2.019   .     S
Cu338  O352    1.940   .     S
Cu338  O348    1.956   .     S
Cu338  O353    1.916   .     S
H341   C377    1.085   .     S
H342   C430    1.085   1_455 S
N345   N398    1.283   .     S
N345   H415    1.029   .     S
N346   N449    1.283   1_455 S
N346   H468    1.029   1_455 S
O357   C432    1.378   1_455 S
O357   H462    0.989   1_455 S
H358   O409    0.989   .     S
O359   C379    1.378   .     S
O359   H412    0.989   .     S
H360   O463    0.989   1_455 S
H362   C8      1.088   1_565 S
H363   N449    1.029   1_455 S
H364   N398    1.029   .     S
C365   O401    1.286   .     A
C365   O399    1.291   .     A
C365   C371    1.428   .     S
C366   O402    1.286   .     A
C366   O400    1.291   .     A
C366   C372    1.428   .     S
C367   H395    1.075   .     S
C367   C388    1.417   .     A
C367   C369    1.386   .     A
C368   H396    1.075   .     S
C368   C370    1.386   .     A
C368   C387    1.417   .     A
C369   H391    1.085   .     S
C369   C853    1.390   1_554 S
C370   H392    1.085   .     S
C370   C854    1.390   .     S
C371   C60     1.328   1_565 S
C371   H101    1.088   1_565 S
C373   C375    1.478   .     S
C373   O403    1.302   .     A
C373   O405    1.299   .     A
C374   O406    1.299   .     A
C374   C376    1.478   .     S
C374   O404    1.302   .     A
C375   C379    1.417   .     A
C375   C381    1.403   .     A
C376   C382    1.403   .     A
C376   C380    1.417   .     A
C377   C385    1.402   .     A
C377   C379    1.394   .     A
C378   C386    1.402   .     A
C378   C380    1.394   .     A
C378   H446    1.085   .     S
C380   O461    1.378   .     S
C381   H408    1.074   .     S
C381   C383    1.406   .     A
C382   H407    1.074   .     S
C382   C384    1.406   .     A
C383   C387    1.430   .     A
C383   C385    1.415   .     A
C384   C388    1.430   .     A
C384   C386    1.415   .     A
C385   C837    1.390   .     S
C386   C838    1.390   1_554 S
C387   C856    1.428   .     S
C388   C855    1.428   1_554 S
Cu389  O406    1.916   .     S
Cu389  O402    1.952   .     S
Cu389  N398    2.019   .     S
Cu389  O403    1.940   .     S
Cu389  O399    1.956   .     S
Cu389  Cu390   2.688   .     S
Cu390  O401    1.952   .     S
Cu390  N397    2.019   .     S
Cu390  O404    1.940   .     S
Cu390  O400    1.956   .     S
Cu390  O405    1.916   .     S
H393   C429    1.085   .     S
N397   N450    1.283   .     S
N397   H467    1.029   .     S
H410   O461    0.989   .     S
O411   C431    1.378   .     S
O411   H464    0.989   .     S
H414   C60     1.088   1_565 S
H416   N450    1.029   .     S
C417   O453    1.286   .     A
C417   O451    1.291   .     A
C417   C423    1.428   .     S
C418   O454    1.286   .     A
C418   O452    1.291   .     A
C418   C424    1.428   .     S
C419   H447    1.075   .     S
C419   C440    1.417   .     A
C419   C421    1.386   .     A
C420   H448    1.075   .     S
C420   C422    1.386   .     A
C420   C439    1.417   .     A
C421   H443    1.085   .     S
C421   C905    1.390   1_554 S
C422   H444    1.085   .     S
C422   C906    1.390   .     S
C423   C112    1.328   1_565 S
C423   H153    1.088   1_565 S
C425   C427    1.478   .     S
C425   O455    1.302   .     A
C425   O457    1.299   .     A
C426   O458    1.299   .     A
C426   C428    1.478   .     S
C426   O456    1.302   .     A
C427   C431    1.417   .     A
C427   C433    1.403   .     A
C428   C434    1.403   .     A
C428   C432    1.417   .     A
C429   C437    1.402   .     A
C429   C431    1.394   .     A
C430   C438    1.402   .     A
C430   C432    1.394   .     A
C430   H342    1.085   1_655 S
C432   O357    1.378   1_655 S
C433   H460    1.074   .     S
C433   C435    1.406   .     A
C434   H459    1.074   .     S
C434   C436    1.406   .     A
C435   C439    1.430   .     A
C435   C437    1.415   .     A
C436   C440    1.430   .     A
C436   C438    1.415   .     A
C437   C889    1.390   .     S
C438   C890    1.390   1_554 S
C439   C908    1.428   .     S
C440   C907    1.428   1_554 S
Cu441  O458    1.916   .     S
Cu441  O454    1.952   .     S
Cu441  N450    2.019   .     S
Cu441  O455    1.940   .     S
Cu441  O451    1.956   .     S
Cu441  Cu442   2.688   .     S
Cu442  O453    1.952   .     S
Cu442  N449    2.019   .     S
Cu442  O456    1.940   .     S
Cu442  O452    1.956   .     S
Cu442  O457    1.916   .     S
H445   C325    1.085   1_655 S
N449   N346    1.283   1_655 S
N449   H363    1.029   1_655 S
H462   O357    0.989   1_655 S
O463   C327    1.378   1_655 S
O463   H360    0.989   1_655 S
H466   C112    1.088   1_565 S
H468   N346    1.029   1_655 S
C469   O505    1.286   .     A
C469   O503    1.291   .     A
C469   C475    1.428   .     S
C470   O506    1.286   .     A
C470   O504    1.291   .     A
C470   C476    1.428   .     S
C471   H499    1.075   .     S
C471   C492    1.417   .     A
C471   C473    1.386   .     A
C472   H500    1.075   .     S
C472   C474    1.386   .     A
C472   C491    1.417   .     A
C473   H495    1.085   .     S
C474   H496    1.085   .     S
C474   C22     1.390   1_556 S
C475   C632    1.328   .     S
C475   H673    1.088   .     S
C476   C787    1.328   1_545 S
C476   H830    1.088   1_545 S
C477   C479    1.478   .     S
C477   O507    1.302   .     A
C477   O509    1.299   .     A
C478   O510    1.299   .     A
C478   C480    1.478   .     S
C478   O508    1.302   .     A
C479   C483    1.417   .     A
C479   C485    1.403   .     A
C480   C486    1.403   .     A
C480   C484    1.417   .     A
C481   C489    1.402   .     A
C481   C483    1.394   .     A
C481   H601    1.085   1_455 S
C482   C490    1.402   .     A
C482   C484    1.394   .     A
C482   H550    1.085   .     S
C483   O619    1.378   1_455 S
C484   O565    1.378   .     S
C485   H512    1.074   .     S
C485   C487    1.406   .     A
C486   H511    1.074   .     S
C486   C488    1.406   .     A
C487   C491    1.430   .     A
C487   C489    1.415   .     A
C488   C492    1.430   .     A
C488   C490    1.415   .     A
C489   C5      1.390   1_556 S
C491   C24     1.428   1_556 S
Cu493  O510    1.916   .     S
Cu493  O506    1.952   .     S
Cu493  N502    2.019   .     S
Cu493  O507    1.940   .     S
Cu493  O503    1.956   .     S
Cu493  Cu494   2.688   .     S
Cu494  O505    1.952   .     S
Cu494  N501    2.019   .     S
Cu494  O508    1.940   .     S
Cu494  O504    1.956   .     S
Cu494  O509    1.916   .     S
H497   C533    1.085   .     S
H498   C586    1.085   1_455 S
N501   N554    1.283   .     S
N501   H571    1.029   .     S
N502   N605    1.283   1_455 S
N502   H624    1.029   1_455 S
O513   C588    1.378   1_455 S
O513   H618    0.989   1_455 S
H514   O565    0.989   .     S
O515   C535    1.378   .     S
O515   H568    0.989   .     S
H516   O619    0.989   1_455 S
H517   C787    1.088   1_545 S
H518   C632    1.088   .     S
H519   N605    1.029   1_455 S
H520   N554    1.029   .     S
C521   O557    1.286   .     A
C521   O555    1.291   .     A
C521   C527    1.428   .     S
C522   O558    1.286   .     A
C522   O556    1.291   .     A
C522   C528    1.428   .     S
C523   H551    1.075   .     S
C523   C544    1.417   .     A
C523   C525    1.386   .     A
C524   H552    1.075   .     S
C524   C526    1.386   .     A
C524   C543    1.417   .     A
C525   H547    1.085   .     S
C526   H548    1.085   .     S
C526   C74     1.390   1_556 S
C527   C684    1.328   .     S
C527   H725    1.088   .     S
C528   C839    1.328   1_545 S
C528   H882    1.088   1_545 S
C529   C531    1.478   .     S
C529   O559    1.302   .     A
C529   O561    1.299   .     A
C530   O562    1.299   .     A
C530   C532    1.478   .     S
C530   O560    1.302   .     A
C531   C535    1.417   .     A
C531   C537    1.403   .     A
C532   C538    1.403   .     A
C532   C536    1.417   .     A
C533   C541    1.402   .     A
C533   C535    1.394   .     A
C534   C542    1.402   .     A
C534   C536    1.394   .     A
C534   H602    1.085   .     S
C536   O617    1.378   .     S
C537   H564    1.074   .     S
C537   C539    1.406   .     A
C538   H563    1.074   .     S
C538   C540    1.406   .     A
C539   C543    1.430   .     A
C539   C541    1.415   .     A
C540   C544    1.430   .     A
C540   C542    1.415   .     A
C541   C57     1.390   1_556 S
C543   C76     1.428   1_556 S
Cu545  O562    1.916   .     S
Cu545  O558    1.952   .     S
Cu545  N554    2.019   .     S
Cu545  O559    1.940   .     S
Cu545  O555    1.956   .     S
Cu545  Cu546   2.688   .     S
Cu546  O557    1.952   .     S
Cu546  N553    2.019   .     S
Cu546  O560    1.940   .     S
Cu546  O556    1.956   .     S
Cu546  O561    1.916   .     S
H549   C585    1.085   .     S
N553   N606    1.283   .     S
N553   H623    1.029   .     S
H566   O617    0.989   .     S
O567   C587    1.378   .     S
O567   H620    0.989   .     S
H569   C839    1.088   1_545 S
H570   C684    1.088   .     S
H572   N606    1.029   .     S
C573   O609    1.286   .     A
C573   O607    1.291   .     A
C573   C579    1.428   .     S
C574   O610    1.286   .     A
C574   O608    1.291   .     A
C574   C580    1.428   .     S
C575   H603    1.075   .     S
C575   C596    1.417   .     A
C575   C577    1.386   .     A
C576   H604    1.075   .     S
C576   C578    1.386   .     A
C576   C595    1.417   .     A
C577   H599    1.085   .     S
C578   H600    1.085   .     S
C578   C126    1.390   1_556 S
C579   C736    1.328   .     S
C579   H777    1.088   .     S
C580   C891    1.328   1_545 S
C580   H934    1.088   1_545 S
C581   C583    1.478   .     S
C581   O611    1.302   .     A
C581   O613    1.299   .     A
C582   O614    1.299   .     A
C582   C584    1.478   .     S
C582   O612    1.302   .     A
C583   C587    1.417   .     A
C583   C589    1.403   .     A
C584   C590    1.403   .     A
C584   C588    1.417   .     A
C585   C593    1.402   .     A
C585   C587    1.394   .     A
C586   C594    1.402   .     A
C586   C588    1.394   .     A
C586   H498    1.085   1_655 S
C588   O513    1.378   1_655 S
C589   H616    1.074   .     S
C589   C591    1.406   .     A
C590   H615    1.074   .     S
C590   C592    1.406   .     A
C591   C595    1.430   .     A
C591   C593    1.415   .     A
C592   C596    1.430   .     A
C592   C594    1.415   .     A
C593   C109    1.390   1_556 S
C595   C128    1.428   1_556 S
Cu597  O614    1.916   .     S
Cu597  O610    1.952   .     S
Cu597  N606    2.019   .     S
Cu597  O611    1.940   .     S
Cu597  O607    1.956   .     S
Cu597  Cu598   2.688   .     S
Cu598  O609    1.952   .     S
Cu598  N605    2.019   .     S
Cu598  O612    1.940   .     S
Cu598  O608    1.956   .     S
Cu598  O613    1.916   .     S
H601   C481    1.085   1_655 S
N605   N502    1.283   1_655 S
N605   H519    1.029   1_655 S
H618   O513    0.989   1_655 S
O619   C483    1.378   1_655 S
O619   H516    0.989   1_655 S
H621   C891    1.088   1_545 S
H622   C736    1.088   .     S
H624   N502    1.029   1_655 S
C625   O661    1.286   .     A
C625   O659    1.291   .     A
C625   C631    1.428   .     S
C626   O662    1.286   .     A
C626   O660    1.291   .     A
C626   C632    1.428   .     S
C627   H655    1.075   .     S
C627   C648    1.417   .     A
C627   C629    1.386   .     A
C628   H656    1.075   .     S
C628   C630    1.386   .     A
C628   C647    1.417   .     A
C629   H651    1.085   .     S
C630   H652    1.085   .     S
C630   C178    1.390   1_556 S
C631   C788    1.328   .     S
C631   H829    1.088   .     S
C633   C635    1.478   .     S
C633   O663    1.302   .     A
C633   O665    1.299   .     A
C634   O666    1.299   .     A
C634   C636    1.478   .     S
C634   O664    1.302   .     A
C635   C639    1.417   .     A
C635   C641    1.403   .     A
C636   C642    1.403   .     A
C636   C640    1.417   .     A
C637   C645    1.402   .     A
C637   C639    1.394   .     A
C637   H757    1.085   1_455 S
C638   C646    1.402   .     A
C638   C640    1.394   .     A
C638   H706    1.085   .     S
C639   O775    1.378   1_455 S
C640   O721    1.378   .     S
C641   H668    1.074   .     S
C641   C643    1.406   .     A
C642   H667    1.074   .     S
C642   C644    1.406   .     A
C643   C647    1.430   .     A
C643   C645    1.415   .     A
C644   C648    1.430   .     A
C644   C646    1.415   .     A
C645   C161    1.390   1_556 S
C647   C180    1.428   1_556 S
Cu649  O666    1.916   .     S
Cu649  O662    1.952   .     S
Cu649  N658    2.019   .     S
Cu649  O663    1.940   .     S
Cu649  O659    1.956   .     S
Cu649  Cu650   2.688   .     S
Cu650  O661    1.952   .     S
Cu650  N657    2.019   .     S
Cu650  O664    1.940   .     S
Cu650  O660    1.956   .     S
Cu650  O665    1.916   .     S
H653   C689    1.085   .     S
H654   C742    1.085   1_455 S
N657   N710    1.283   .     S
N657   H727    1.029   .     S
N658   N761    1.283   1_455 S
N658   H780    1.029   1_455 S
O669   C744    1.378   1_455 S
O669   H774    0.989   1_455 S
H670   O721    0.989   .     S
O671   C691    1.378   .     S
O671   H724    0.989   .     S
H672   O775    0.989   1_455 S
H674   C788    1.088   .     S
H675   N761    1.029   1_455 S
H676   N710    1.029   .     S
C677   O713    1.286   .     A
C677   O711    1.291   .     A
C677   C683    1.428   .     S
C678   O714    1.286   .     A
C678   O712    1.291   .     A
C678   C684    1.428   .     S
C679   H707    1.075   .     S
C679   C700    1.417   .     A
C679   C681    1.386   .     A
C680   H708    1.075   .     S
C680   C682    1.386   .     A
C680   C699    1.417   .     A
C681   H703    1.085   .     S
C682   H704    1.085   .     S
C682   C230    1.390   1_556 S
C683   C840    1.328   .     S
C683   H881    1.088   .     S
C685   C687    1.478   .     S
C685   O715    1.302   .     A
C685   O717    1.299   .     A
C686   O718    1.299   .     A
C686   C688    1.478   .     S
C686   O716    1.302   .     A
C687   C691    1.417   .     A
C687   C693    1.403   .     A
C688   C694    1.403   .     A
C688   C692    1.417   .     A
C689   C697    1.402   .     A
C689   C691    1.394   .     A
C690   C698    1.402   .     A
C690   C692    1.394   .     A
C690   H758    1.085   .     S
C692   O773    1.378   .     S
C693   H720    1.074   .     S
C693   C695    1.406   .     A
C694   H719    1.074   .     S
C694   C696    1.406   .     A
C695   C699    1.430   .     A
C695   C697    1.415   .     A
C696   C700    1.430   .     A
C696   C698    1.415   .     A
C697   C213    1.390   1_556 S
C699   C232    1.428   1_556 S
Cu701  O718    1.916   .     S
Cu701  O714    1.952   .     S
Cu701  N710    2.019   .     S
Cu701  O715    1.940   .     S
Cu701  O711    1.956   .     S
Cu701  Cu702   2.688   .     S
Cu702  O713    1.952   .     S
Cu702  N709    2.019   .     S
Cu702  O716    1.940   .     S
Cu702  O712    1.956   .     S
Cu702  O717    1.916   .     S
H705   C741    1.085   .     S
N709   N762    1.283   .     S
N709   H779    1.029   .     S
H722   O773    0.989   .     S
O723   C743    1.378   .     S
O723   H776    0.989   .     S
H726   C840    1.088   .     S
H728   N762    1.029   .     S
C729   O765    1.286   .     A
C729   O763    1.291   .     A
C729   C735    1.428   .     S
C730   O766    1.286   .     A
C730   O764    1.291   .     A
C730   C736    1.428   .     S
C731   H759    1.075   .     S
C731   C752    1.417   .     A
C731   C733    1.386   .     A
C732   H760    1.075   .     S
C732   C734    1.386   .     A
C732   C751    1.417   .     A
C733   H755    1.085   .     S
C734   H756    1.085   .     S
C734   C282    1.390   1_556 S
C735   C892    1.328   .     S
C735   H933    1.088   .     S
C737   C739    1.478   .     S
C737   O767    1.302   .     A
C737   O769    1.299   .     A
C738   O770    1.299   .     A
C738   C740    1.478   .     S
C738   O768    1.302   .     A
C739   C743    1.417   .     A
C739   C745    1.403   .     A
C740   C746    1.403   .     A
C740   C744    1.417   .     A
C741   C749    1.402   .     A
C741   C743    1.394   .     A
C742   C750    1.402   .     A
C742   C744    1.394   .     A
C742   H654    1.085   1_655 S
C744   O669    1.378   1_655 S
C745   H772    1.074   .     S
C745   C747    1.406   .     A
C746   H771    1.074   .     S
C746   C748    1.406   .     A
C747   C751    1.430   .     A
C747   C749    1.415   .     A
C748   C752    1.430   .     A
C748   C750    1.415   .     A
C749   C265    1.390   1_556 S
C751   C284    1.428   1_556 S
Cu753  O770    1.916   .     S
Cu753  O766    1.952   .     S
Cu753  N762    2.019   .     S
Cu753  O767    1.940   .     S
Cu753  O763    1.956   .     S
Cu753  Cu754   2.688   .     S
Cu754  O765    1.952   .     S
Cu754  N761    2.019   .     S
Cu754  O768    1.940   .     S
Cu754  O764    1.956   .     S
Cu754  O769    1.916   .     S
H757   C637    1.085   1_655 S
N761   N658    1.283   1_655 S
N761   H675    1.029   1_655 S
H774   O669    0.989   1_655 S
O775   C639    1.378   1_655 S
O775   H672    0.989   1_655 S
H778   C892    1.088   .     S
H780   N658    1.029   1_655 S
C781   O817    1.286   .     A
C781   O815    1.291   .     A
C781   C787    1.428   .     S
C782   O818    1.286   .     A
C782   O816    1.291   .     A
C782   C788    1.428   .     S
C783   H811    1.075   .     S
C783   C804    1.417   .     A
C783   C785    1.386   .     A
C784   H812    1.075   .     S
C784   C786    1.386   .     A
C784   C803    1.417   .     A
C785   H807    1.085   .     S
C786   H808    1.085   .     S
C786   C334    1.390   1_556 S
C787   C476    1.328   1_565 S
C787   H517    1.088   1_565 S
C789   C791    1.478   .     S
C789   O819    1.302   .     A
C789   O821    1.299   .     A
C790   O822    1.299   .     A
C790   C792    1.478   .     S
C790   O820    1.302   .     A
C791   C795    1.417   .     A
C791   C797    1.403   .     A
C792   C798    1.403   .     A
C792   C796    1.417   .     A
C793   C801    1.402   .     A
C793   C795    1.394   .     A
C793   H913    1.085   1_455 S
C794   C802    1.402   .     A
C794   C796    1.394   .     A
C794   H862    1.085   .     S
C795   O931    1.378   1_455 S
C796   O877    1.378   .     S
C797   H824    1.074   .     S
C797   C799    1.406   .     A
C798   H823    1.074   .     S
C798   C800    1.406   .     A
C799   C803    1.430   .     A
C799   C801    1.415   .     A
C800   C804    1.430   .     A
C800   C802    1.415   .     A
C801   C317    1.390   1_556 S
C803   C336    1.428   1_556 S
Cu805  O822    1.916   .     S
Cu805  O818    1.952   .     S
Cu805  N814    2.019   .     S
Cu805  O819    1.940   .     S
Cu805  O815    1.956   .     S
Cu805  Cu806   2.688   .     S
Cu806  O817    1.952   .     S
Cu806  N813    2.019   .     S
Cu806  O820    1.940   .     S
Cu806  O816    1.956   .     S
Cu806  O821    1.916   .     S
H809   C845    1.085   .     S
H810   C898    1.085   1_455 S
N813   N866    1.283   .     S
N813   H883    1.029   .     S
N814   N917    1.283   1_455 S
N814   H936    1.029   1_455 S
O825   C900    1.378   1_455 S
O825   H930    0.989   1_455 S
H826   O877    0.989   .     S
O827   C847    1.378   .     S
O827   H880    0.989   .     S
H828   O931    0.989   1_455 S
H830   C476    1.088   1_565 S
H831   N917    1.029   1_455 S
H832   N866    1.029   .     S
C833   O869    1.286   .     A
C833   O867    1.291   .     A
C833   C839    1.428   .     S
C834   O870    1.286   .     A
C834   O868    1.291   .     A
C834   C840    1.428   .     S
C835   H863    1.075   .     S
C835   C856    1.417   .     A
C835   C837    1.386   .     A
C836   H864    1.075   .     S
C836   C838    1.386   .     A
C836   C855    1.417   .     A
C837   H859    1.085   .     S
C838   H860    1.085   .     S
C838   C386    1.390   1_556 S
C839   C528    1.328   1_565 S
C839   H569    1.088   1_565 S
C841   C843    1.478   .     S
C841   O871    1.302   .     A
C841   O873    1.299   .     A
C842   O874    1.299   .     A
C842   C844    1.478   .     S
C842   O872    1.302   .     A
C843   C847    1.417   .     A
C843   C849    1.403   .     A
C844   C850    1.403   .     A
C844   C848    1.417   .     A
C845   C853    1.402   .     A
C845   C847    1.394   .     A
C846   C854    1.402   .     A
C846   C848    1.394   .     A
C846   H914    1.085   .     S
C848   O929    1.378   .     S
C849   H876    1.074   .     S
C849   C851    1.406   .     A
C850   H875    1.074   .     S
C850   C852    1.406   .     A
C851   C855    1.430   .     A
C851   C853    1.415   .     A
C852   C856    1.430   .     A
C852   C854    1.415   .     A
C853   C369    1.390   1_556 S
C855   C388    1.428   1_556 S
Cu857  O874    1.916   .     S
Cu857  O870    1.952   .     S
Cu857  N866    2.019   .     S
Cu857  O871    1.940   .     S
Cu857  O867    1.956   .     S
Cu857  Cu858   2.688   .     S
Cu858  O869    1.952   .     S
Cu858  N865    2.019   .     S
Cu858  O872    1.940   .     S
Cu858  O868    1.956   .     S
Cu858  O873    1.916   .     S
H861   C897    1.085   .     S
N865   N918    1.283   .     S
N865   H935    1.029   .     S
H878   O929    0.989   .     S
O879   C899    1.378   .     S
O879   H932    0.989   .     S
H882   C528    1.088   1_565 S
H884   N918    1.029   .     S
C885   O921    1.286   .     A
C885   O919    1.291   .     A
C885   C891    1.428   .     S
C886   O922    1.286   .     A
C886   O920    1.291   .     A
C886   C892    1.428   .     S
C887   H915    1.075   .     S
C887   C908    1.417   .     A
C887   C889    1.386   .     A
C888   H916    1.075   .     S
C888   C890    1.386   .     A
C888   C907    1.417   .     A
C889   H911    1.085   .     S
C890   H912    1.085   .     S
C890   C438    1.390   1_556 S
C891   C580    1.328   1_565 S
C891   H621    1.088   1_565 S
C893   C895    1.478   .     S
C893   O923    1.302   .     A
C893   O925    1.299   .     A
C894   O926    1.299   .     A
C894   C896    1.478   .     S
C894   O924    1.302   .     A
C895   C899    1.417   .     A
C895   C901    1.403   .     A
C896   C902    1.403   .     A
C896   C900    1.417   .     A
C897   C905    1.402   .     A
C897   C899    1.394   .     A
C898   C906    1.402   .     A
C898   C900    1.394   .     A
C898   H810    1.085   1_655 S
C900   O825    1.378   1_655 S
C901   H928    1.074   .     S
C901   C903    1.406   .     A
C902   H927    1.074   .     S
C902   C904    1.406   .     A
C903   C907    1.430   .     A
C903   C905    1.415   .     A
C904   C908    1.430   .     A
C904   C906    1.415   .     A
C905   C421    1.390   1_556 S
C907   C440    1.428   1_556 S
Cu909  O926    1.916   .     S
Cu909  O922    1.952   .     S
Cu909  N918    2.019   .     S
Cu909  O923    1.940   .     S
Cu909  O919    1.956   .     S
Cu909  Cu910   2.688   .     S
Cu910  O921    1.952   .     S
Cu910  N917    2.019   .     S
Cu910  O924    1.940   .     S
Cu910  O920    1.956   .     S
Cu910  O925    1.916   .     S
H913   C793    1.085   1_655 S
N917   N814    1.283   1_655 S
N917   H831    1.029   1_655 S
H930   O825    0.989   1_655 S
O931   C795    1.378   1_655 S
O931   H828    0.989   1_655 S
H934   C580    1.088   1_565 S
H936   N814    1.029   1_655 S
