data_str_m2_o10_o17_pcu_sym.105
_audit_creation_date              2020-01-03
_audit_creation_method            'Materials Studio'
_symmetry_space_group_name_H-M    'P1'
_symmetry_Int_Tables_number       1
_symmetry_cell_setting            triclinic
loop_
_symmetry_equiv_pos_as_xyz
  x,y,z
_cell_length_a                    29.9989
_cell_length_b                    25.9760
_cell_length_c                    22.6987
_cell_angle_alpha                 102.4513
_cell_angle_beta                  95.5185
_cell_angle_gamma                 93.7522
loop_
_atom_site_label
_atom_site_type_symbol
_atom_site_fract_x
_atom_site_fract_y
_atom_site_fract_z
_atom_site_U_iso_or_equiv
_atom_site_adp_type
_atom_site_occupancy
C1     C     0.24744   0.06674   0.15136   0.00000  Uiso   1.00
C2     C     0.25255   0.26659   0.18198   0.00000  Uiso   1.00
C3     C     0.01813   0.07123   0.13831   0.00000  Uiso   1.00
C4     C     0.48186   0.26210   0.19493   0.00000  Uiso   1.00
C5     C     0.24387   0.01066   0.14342   0.00000  Uiso   1.00
C6     C     0.25613   0.32268   0.18992   0.00000  Uiso   1.00
C7     C     0.16478   0.16726   0.16688   0.00000  Uiso   1.00
C8     C     0.33522   0.16607   0.16645   0.00000  Uiso   1.00
C9     C     0.40954   0.21217   0.18042   0.00000  Uiso   1.00
C10    C     0.09045   0.12117   0.15287   0.00000  Uiso   1.00
C11    C     0.38326   0.16400   0.16585   0.00000  Uiso   1.00
C12    C     0.11674   0.16934   0.16748   0.00000  Uiso   1.00
C13    C     0.40277   0.11538   0.15119   0.00000  Uiso   1.00
C14    C     0.09723   0.21796   0.18215   0.00000  Uiso   1.00
C15    C     0.45003   0.11639   0.15161   0.00000  Uiso   1.00
C16    C     0.04997   0.21694   0.18167   0.00000  Uiso   1.00
C17    C     0.47644   0.16578   0.16636   0.00000  Uiso   1.00
C18    C     0.02355   0.16755   0.16691   0.00000  Uiso   1.00
C19    C     0.45588   0.21351   0.18062   0.00000  Uiso   1.00
C20    C     0.04411   0.11983   0.15265   0.00000  Uiso   1.00
C21    C     0.47170   0.06942   0.13775   0.00000  Uiso   1.00
C22    C     0.02829   0.26392   0.19550   0.00000  Uiso   1.00
Cu23   Cu    0.25500   0.17246   0.22813   0.00000  Uiso   1.00
Cu24   Cu    0.24499   0.16087   0.10521   0.00000  Uiso   1.00
H25    H     0.39360   0.24886   0.19140   0.00000  Uiso   1.00
H26    H     0.10640   0.08448   0.14189   0.00000  Uiso   1.00
H27    H     0.45323   0.03078   0.12629   0.00000  Uiso   1.00
H28    H     0.04676   0.30256   0.20693   0.00000  Uiso   1.00
H29    H     0.03378   0.03441   0.12742   0.00000  Uiso   1.00
H30    H     0.46621   0.29892   0.20581   0.00000  Uiso   1.00
H31    H     0.23019   0.32025   0.09925   0.00000  Uiso   1.00
H32    H     0.26981   0.01308   0.23408   0.00000  Uiso   1.00
N33    N     0.23744   0.15214   0.01284   0.00000  Uiso   1.00
N34    N     0.26255   0.18119   0.32049   0.00000  Uiso   1.00
O35    O     0.25325   0.09538   0.20659   0.00000  Uiso   1.00
O36    O     0.24674   0.23796   0.12674   0.00000  Uiso   1.00
O37    O     0.24480   0.08559   0.10279   0.00000  Uiso   1.00
O38    O     0.25520   0.24774   0.23055   0.00000  Uiso   1.00
O39    O     0.18935   0.17155   0.21857   0.00000  Uiso   1.00
O40    O     0.31064   0.16179   0.11476   0.00000  Uiso   1.00
O41    O     0.18090   0.16176   0.11477   0.00000  Uiso   1.00
O42    O     0.31910   0.17157   0.21857   0.00000  Uiso   1.00
C43    C     0.37393   0.06301   0.13578   0.00000  Uiso   1.00
H44    H     0.38398   0.03874   0.16875   0.00000  Uiso   1.00
H45    H     0.33766   0.06738   0.13724   0.00000  Uiso   1.00
H46    H     0.37818   0.04130   0.08915   0.00000  Uiso   1.00
C47    C     0.12607   0.27032   0.19761   0.00000  Uiso   1.00
H48    H     0.12172   0.29207   0.24419   0.00000  Uiso   1.00
H49    H     0.16236   0.26596   0.19634   0.00000  Uiso   1.00
H50    H     0.11611   0.29456   0.16457   0.00000  Uiso   1.00
C51    C     0.21621   0.10170   0.31242   0.00000  Uiso   1.00
H52    H     0.19279   0.08625   0.00738   0.00000  Uiso   1.00
H53    H     0.19500   0.10472   0.27124   0.00000  Uiso   1.00
H54    H     0.24180   0.07310   0.30377   0.00000  Uiso   1.00
C55    C     0.28379   0.23163   0.02091   0.00000  Uiso   1.00
H56    H     0.30721   0.24708   0.32595   0.00000  Uiso   1.00
H57    H     0.25820   0.26023   0.02956   0.00000  Uiso   1.00
H58    H     0.30500   0.22862   0.06209   0.00000  Uiso   1.00
C59    C     0.74744   0.06674   0.15136   0.00000  Uiso   1.00
C60    C     0.75255   0.26659   0.18198   0.00000  Uiso   1.00
C61    C     0.51813   0.07123   0.13831   0.00000  Uiso   1.00
C62    C     0.98186   0.26210   0.19493   0.00000  Uiso   1.00
C63    C     0.74387   0.01066   0.14342   0.00000  Uiso   1.00
C64    C     0.75613   0.32268   0.18992   0.00000  Uiso   1.00
C65    C     0.66478   0.16726   0.16688   0.00000  Uiso   1.00
C66    C     0.83522   0.16607   0.16645   0.00000  Uiso   1.00
C67    C     0.90954   0.21217   0.18042   0.00000  Uiso   1.00
C68    C     0.59045   0.12117   0.15287   0.00000  Uiso   1.00
C69    C     0.88326   0.16400   0.16585   0.00000  Uiso   1.00
C70    C     0.61674   0.16934   0.16748   0.00000  Uiso   1.00
C71    C     0.90277   0.11538   0.15119   0.00000  Uiso   1.00
C72    C     0.59723   0.21796   0.18215   0.00000  Uiso   1.00
C73    C     0.95003   0.11639   0.15161   0.00000  Uiso   1.00
C74    C     0.54997   0.21694   0.18167   0.00000  Uiso   1.00
C75    C     0.97644   0.16578   0.16636   0.00000  Uiso   1.00
C76    C     0.52355   0.16755   0.16691   0.00000  Uiso   1.00
C77    C     0.95588   0.21351   0.18062   0.00000  Uiso   1.00
C78    C     0.54411   0.11983   0.15265   0.00000  Uiso   1.00
C79    C     0.97170   0.06942   0.13775   0.00000  Uiso   1.00
C80    C     0.52829   0.26392   0.19550   0.00000  Uiso   1.00
Cu81   Cu    0.75500   0.17246   0.22813   0.00000  Uiso   1.00
Cu82   Cu    0.74499   0.16087   0.10521   0.00000  Uiso   1.00
H83    H     0.89360   0.24886   0.19140   0.00000  Uiso   1.00
H84    H     0.60640   0.08448   0.14189   0.00000  Uiso   1.00
H85    H     0.95323   0.03078   0.12629   0.00000  Uiso   1.00
H86    H     0.54676   0.30256   0.20693   0.00000  Uiso   1.00
H87    H     0.53378   0.03441   0.12742   0.00000  Uiso   1.00
H88    H     0.96621   0.29892   0.20581   0.00000  Uiso   1.00
H89    H     0.73019   0.32025   0.09925   0.00000  Uiso   1.00
H90    H     0.76981   0.01308   0.23408   0.00000  Uiso   1.00
N91    N     0.73744   0.15214   0.01284   0.00000  Uiso   1.00
N92    N     0.76255   0.18119   0.32049   0.00000  Uiso   1.00
O93    O     0.75325   0.09538   0.20659   0.00000  Uiso   1.00
O94    O     0.74674   0.23796   0.12674   0.00000  Uiso   1.00
O95    O     0.74480   0.08559   0.10279   0.00000  Uiso   1.00
O96    O     0.75520   0.24774   0.23055   0.00000  Uiso   1.00
O97    O     0.68935   0.17155   0.21857   0.00000  Uiso   1.00
O98    O     0.81064   0.16179   0.11476   0.00000  Uiso   1.00
O99    O     0.68090   0.16176   0.11477   0.00000  Uiso   1.00
O100   O     0.81910   0.17157   0.21857   0.00000  Uiso   1.00
C101   C     0.87393   0.06301   0.13578   0.00000  Uiso   1.00
H102   H     0.88398   0.03874   0.16875   0.00000  Uiso   1.00
H103   H     0.83766   0.06738   0.13724   0.00000  Uiso   1.00
H104   H     0.87818   0.04130   0.08915   0.00000  Uiso   1.00
C105   C     0.62607   0.27032   0.19761   0.00000  Uiso   1.00
H106   H     0.62172   0.29207   0.24419   0.00000  Uiso   1.00
H107   H     0.66236   0.26596   0.19634   0.00000  Uiso   1.00
H108   H     0.61611   0.29456   0.16457   0.00000  Uiso   1.00
C109   C     0.71621   0.10170   0.31242   0.00000  Uiso   1.00
H110   H     0.69279   0.08625   0.00738   0.00000  Uiso   1.00
H111   H     0.69500   0.10472   0.27124   0.00000  Uiso   1.00
H112   H     0.74180   0.07310   0.30377   0.00000  Uiso   1.00
C113   C     0.78379   0.23163   0.02091   0.00000  Uiso   1.00
H114   H     0.80721   0.24708   0.32595   0.00000  Uiso   1.00
H115   H     0.75820   0.26023   0.02956   0.00000  Uiso   1.00
H116   H     0.80500   0.22862   0.06209   0.00000  Uiso   1.00
C117   C     0.24744   0.40008   0.15136   0.00000  Uiso   1.00
C118   C     0.25255   0.59992   0.18198   0.00000  Uiso   1.00
C119   C     0.01813   0.40457   0.13831   0.00000  Uiso   1.00
C120   C     0.48186   0.59543   0.19493   0.00000  Uiso   1.00
C121   C     0.24387   0.34399   0.14342   0.00000  Uiso   1.00
C122   C     0.25613   0.65601   0.18992   0.00000  Uiso   1.00
C123   C     0.16478   0.50059   0.16688   0.00000  Uiso   1.00
C124   C     0.33522   0.49941   0.16645   0.00000  Uiso   1.00
C125   C     0.40954   0.54550   0.18042   0.00000  Uiso   1.00
C126   C     0.09045   0.45450   0.15287   0.00000  Uiso   1.00
C127   C     0.38326   0.49733   0.16585   0.00000  Uiso   1.00
C128   C     0.11674   0.50267   0.16748   0.00000  Uiso   1.00
C129   C     0.40277   0.44871   0.15119   0.00000  Uiso   1.00
C130   C     0.09723   0.55129   0.18215   0.00000  Uiso   1.00
C131   C     0.45003   0.44973   0.15161   0.00000  Uiso   1.00
C132   C     0.04997   0.55028   0.18167   0.00000  Uiso   1.00
C133   C     0.47644   0.49912   0.16636   0.00000  Uiso   1.00
C134   C     0.02355   0.50088   0.16691   0.00000  Uiso   1.00
C135   C     0.45588   0.54684   0.18062   0.00000  Uiso   1.00
C136   C     0.04411   0.45316   0.15265   0.00000  Uiso   1.00
C137   C     0.47170   0.40275   0.13775   0.00000  Uiso   1.00
C138   C     0.02829   0.59725   0.19550   0.00000  Uiso   1.00
Cu139  Cu    0.25500   0.50579   0.22813   0.00000  Uiso   1.00
Cu140  Cu    0.24499   0.49421   0.10521   0.00000  Uiso   1.00
H141   H     0.39360   0.58219   0.19140   0.00000  Uiso   1.00
H142   H     0.10640   0.41781   0.14189   0.00000  Uiso   1.00
H143   H     0.45323   0.36411   0.12629   0.00000  Uiso   1.00
H144   H     0.04676   0.63589   0.20693   0.00000  Uiso   1.00
H145   H     0.03378   0.36774   0.12742   0.00000  Uiso   1.00
H146   H     0.46621   0.63226   0.20581   0.00000  Uiso   1.00
H147   H     0.23019   0.65358   0.09925   0.00000  Uiso   1.00
H148   H     0.26981   0.34642   0.23408   0.00000  Uiso   1.00
N149   N     0.23744   0.48547   0.01284   0.00000  Uiso   1.00
N150   N     0.26255   0.51453   0.32049   0.00000  Uiso   1.00
O151   O     0.25325   0.42871   0.20659   0.00000  Uiso   1.00
O152   O     0.24674   0.57129   0.12674   0.00000  Uiso   1.00
O153   O     0.24480   0.41892   0.10279   0.00000  Uiso   1.00
O154   O     0.25520   0.58108   0.23055   0.00000  Uiso   1.00
O155   O     0.18935   0.50488   0.21857   0.00000  Uiso   1.00
O156   O     0.31064   0.49512   0.11476   0.00000  Uiso   1.00
O157   O     0.18090   0.49510   0.11477   0.00000  Uiso   1.00
O158   O     0.31910   0.50490   0.21857   0.00000  Uiso   1.00
C159   C     0.37393   0.39634   0.13578   0.00000  Uiso   1.00
H160   H     0.38398   0.37207   0.16875   0.00000  Uiso   1.00
H161   H     0.33766   0.40071   0.13724   0.00000  Uiso   1.00
H162   H     0.37818   0.37463   0.08915   0.00000  Uiso   1.00
C163   C     0.12607   0.60366   0.19761   0.00000  Uiso   1.00
H164   H     0.12172   0.62541   0.24419   0.00000  Uiso   1.00
H165   H     0.16236   0.59929   0.19634   0.00000  Uiso   1.00
H166   H     0.11611   0.62790   0.16457   0.00000  Uiso   1.00
C167   C     0.21621   0.43504   0.31242   0.00000  Uiso   1.00
H168   H     0.19279   0.41958   0.00738   0.00000  Uiso   1.00
H169   H     0.19500   0.43805   0.27124   0.00000  Uiso   1.00
H170   H     0.24180   0.40644   0.30377   0.00000  Uiso   1.00
C171   C     0.28379   0.56496   0.02091   0.00000  Uiso   1.00
H172   H     0.30721   0.58042   0.32595   0.00000  Uiso   1.00
H173   H     0.25820   0.59356   0.02956   0.00000  Uiso   1.00
H174   H     0.30500   0.56195   0.06209   0.00000  Uiso   1.00
C175   C     0.74744   0.40008   0.15136   0.00000  Uiso   1.00
C176   C     0.75255   0.59992   0.18198   0.00000  Uiso   1.00
C177   C     0.51813   0.40457   0.13831   0.00000  Uiso   1.00
C178   C     0.98186   0.59543   0.19493   0.00000  Uiso   1.00
C179   C     0.74387   0.34399   0.14342   0.00000  Uiso   1.00
C180   C     0.75613   0.65601   0.18992   0.00000  Uiso   1.00
C181   C     0.66478   0.50059   0.16688   0.00000  Uiso   1.00
C182   C     0.83522   0.49941   0.16645   0.00000  Uiso   1.00
C183   C     0.90954   0.54550   0.18042   0.00000  Uiso   1.00
C184   C     0.59045   0.45450   0.15287   0.00000  Uiso   1.00
C185   C     0.88326   0.49733   0.16585   0.00000  Uiso   1.00
C186   C     0.61674   0.50267   0.16748   0.00000  Uiso   1.00
C187   C     0.90277   0.44871   0.15119   0.00000  Uiso   1.00
C188   C     0.59723   0.55129   0.18215   0.00000  Uiso   1.00
C189   C     0.95003   0.44973   0.15161   0.00000  Uiso   1.00
C190   C     0.54997   0.55028   0.18167   0.00000  Uiso   1.00
C191   C     0.97644   0.49912   0.16636   0.00000  Uiso   1.00
C192   C     0.52355   0.50088   0.16691   0.00000  Uiso   1.00
C193   C     0.95588   0.54684   0.18062   0.00000  Uiso   1.00
C194   C     0.54411   0.45316   0.15265   0.00000  Uiso   1.00
C195   C     0.97170   0.40275   0.13775   0.00000  Uiso   1.00
C196   C     0.52829   0.59725   0.19550   0.00000  Uiso   1.00
Cu197  Cu    0.75500   0.50579   0.22813   0.00000  Uiso   1.00
Cu198  Cu    0.74499   0.49421   0.10521   0.00000  Uiso   1.00
H199   H     0.89360   0.58219   0.19140   0.00000  Uiso   1.00
H200   H     0.60640   0.41781   0.14189   0.00000  Uiso   1.00
H201   H     0.95323   0.36411   0.12629   0.00000  Uiso   1.00
H202   H     0.54676   0.63589   0.20693   0.00000  Uiso   1.00
H203   H     0.53378   0.36774   0.12742   0.00000  Uiso   1.00
H204   H     0.96621   0.63226   0.20581   0.00000  Uiso   1.00
H205   H     0.73019   0.65358   0.09925   0.00000  Uiso   1.00
H206   H     0.76981   0.34642   0.23408   0.00000  Uiso   1.00
N207   N     0.73744   0.48547   0.01284   0.00000  Uiso   1.00
N208   N     0.76255   0.51453   0.32049   0.00000  Uiso   1.00
O209   O     0.75325   0.42871   0.20659   0.00000  Uiso   1.00
O210   O     0.74674   0.57129   0.12674   0.00000  Uiso   1.00
O211   O     0.74480   0.41892   0.10279   0.00000  Uiso   1.00
O212   O     0.75520   0.58108   0.23055   0.00000  Uiso   1.00
O213   O     0.68935   0.50488   0.21857   0.00000  Uiso   1.00
O214   O     0.81064   0.49512   0.11476   0.00000  Uiso   1.00
O215   O     0.68090   0.49510   0.11477   0.00000  Uiso   1.00
O216   O     0.81910   0.50490   0.21857   0.00000  Uiso   1.00
C217   C     0.87393   0.39634   0.13578   0.00000  Uiso   1.00
H218   H     0.88398   0.37207   0.16875   0.00000  Uiso   1.00
H219   H     0.83766   0.40071   0.13724   0.00000  Uiso   1.00
H220   H     0.87818   0.37463   0.08915   0.00000  Uiso   1.00
C221   C     0.62607   0.60366   0.19761   0.00000  Uiso   1.00
H222   H     0.62172   0.62541   0.24419   0.00000  Uiso   1.00
H223   H     0.66236   0.59929   0.19634   0.00000  Uiso   1.00
H224   H     0.61611   0.62790   0.16457   0.00000  Uiso   1.00
C225   C     0.71621   0.43504   0.31242   0.00000  Uiso   1.00
H226   H     0.69279   0.41958   0.00738   0.00000  Uiso   1.00
H227   H     0.69500   0.43805   0.27124   0.00000  Uiso   1.00
H228   H     0.74180   0.40644   0.30377   0.00000  Uiso   1.00
C229   C     0.78379   0.56496   0.02091   0.00000  Uiso   1.00
H230   H     0.80721   0.58042   0.32595   0.00000  Uiso   1.00
H231   H     0.75820   0.59356   0.02956   0.00000  Uiso   1.00
H232   H     0.80500   0.56195   0.06209   0.00000  Uiso   1.00
C233   C     0.24744   0.73341   0.15136   0.00000  Uiso   1.00
C234   C     0.25255   0.93326   0.18198   0.00000  Uiso   1.00
C235   C     0.01813   0.73790   0.13831   0.00000  Uiso   1.00
C236   C     0.48186   0.92877   0.19493   0.00000  Uiso   1.00
C237   C     0.24387   0.67732   0.14342   0.00000  Uiso   1.00
C238   C     0.25613   0.98934   0.18992   0.00000  Uiso   1.00
C239   C     0.16478   0.83393   0.16688   0.00000  Uiso   1.00
C240   C     0.33522   0.83274   0.16645   0.00000  Uiso   1.00
C241   C     0.40954   0.87884   0.18042   0.00000  Uiso   1.00
C242   C     0.09045   0.78783   0.15287   0.00000  Uiso   1.00
C243   C     0.38326   0.83066   0.16585   0.00000  Uiso   1.00
C244   C     0.11674   0.83600   0.16748   0.00000  Uiso   1.00
C245   C     0.40277   0.78204   0.15119   0.00000  Uiso   1.00
C246   C     0.09723   0.88462   0.18215   0.00000  Uiso   1.00
C247   C     0.45003   0.78306   0.15161   0.00000  Uiso   1.00
C248   C     0.04997   0.88361   0.18167   0.00000  Uiso   1.00
C249   C     0.47644   0.83245   0.16636   0.00000  Uiso   1.00
C250   C     0.02355   0.83422   0.16691   0.00000  Uiso   1.00
C251   C     0.45588   0.88017   0.18062   0.00000  Uiso   1.00
C252   C     0.04411   0.78650   0.15265   0.00000  Uiso   1.00
C253   C     0.47170   0.73608   0.13775   0.00000  Uiso   1.00
C254   C     0.02829   0.93059   0.19550   0.00000  Uiso   1.00
Cu255  Cu    0.25500   0.83913   0.22813   0.00000  Uiso   1.00
Cu256  Cu    0.24499   0.82754   0.10521   0.00000  Uiso   1.00
H257   H     0.39360   0.91553   0.19140   0.00000  Uiso   1.00
H258   H     0.10640   0.75114   0.14189   0.00000  Uiso   1.00
H259   H     0.45323   0.69744   0.12629   0.00000  Uiso   1.00
H260   H     0.04676   0.96922   0.20693   0.00000  Uiso   1.00
H261   H     0.03378   0.70108   0.12742   0.00000  Uiso   1.00
H262   H     0.46621   0.96559   0.20581   0.00000  Uiso   1.00
H263   H     0.23019   0.98692   0.09925   0.00000  Uiso   1.00
H264   H     0.26981   0.67975   0.23408   0.00000  Uiso   1.00
N265   N     0.23744   0.81881   0.01284   0.00000  Uiso   1.00
N266   N     0.26255   0.84786   0.32049   0.00000  Uiso   1.00
O267   O     0.25325   0.76204   0.20659   0.00000  Uiso   1.00
O268   O     0.24674   0.90462   0.12674   0.00000  Uiso   1.00
O269   O     0.24480   0.75226   0.10279   0.00000  Uiso   1.00
O270   O     0.25520   0.91441   0.23055   0.00000  Uiso   1.00
O271   O     0.18935   0.83821   0.21857   0.00000  Uiso   1.00
O272   O     0.31064   0.82845   0.11476   0.00000  Uiso   1.00
O273   O     0.18090   0.82843   0.11477   0.00000  Uiso   1.00
O274   O     0.31910   0.83824   0.21857   0.00000  Uiso   1.00
C275   C     0.37393   0.72968   0.13578   0.00000  Uiso   1.00
H276   H     0.38398   0.70540   0.16875   0.00000  Uiso   1.00
H277   H     0.33766   0.73404   0.13724   0.00000  Uiso   1.00
H278   H     0.37818   0.70796   0.08915   0.00000  Uiso   1.00
C279   C     0.12607   0.93699   0.19761   0.00000  Uiso   1.00
H280   H     0.12172   0.95874   0.24419   0.00000  Uiso   1.00
H281   H     0.16236   0.93263   0.19634   0.00000  Uiso   1.00
H282   H     0.11611   0.96123   0.16457   0.00000  Uiso   1.00
C283   C     0.21621   0.76837   0.31242   0.00000  Uiso   1.00
H284   H     0.19279   0.75292   0.00738   0.00000  Uiso   1.00
H285   H     0.19500   0.77138   0.27124   0.00000  Uiso   1.00
H286   H     0.24180   0.73977   0.30377   0.00000  Uiso   1.00
C287   C     0.28379   0.89830   0.02091   0.00000  Uiso   1.00
H288   H     0.30721   0.91375   0.32595   0.00000  Uiso   1.00
H289   H     0.25820   0.92690   0.02956   0.00000  Uiso   1.00
H290   H     0.30500   0.89528   0.06209   0.00000  Uiso   1.00
C291   C     0.74744   0.73341   0.15136   0.00000  Uiso   1.00
C292   C     0.75255   0.93326   0.18198   0.00000  Uiso   1.00
C293   C     0.51813   0.73790   0.13831   0.00000  Uiso   1.00
C294   C     0.98186   0.92877   0.19493   0.00000  Uiso   1.00
C295   C     0.74387   0.67732   0.14342   0.00000  Uiso   1.00
C296   C     0.75613   0.98934   0.18992   0.00000  Uiso   1.00
C297   C     0.66478   0.83393   0.16688   0.00000  Uiso   1.00
C298   C     0.83522   0.83274   0.16645   0.00000  Uiso   1.00
C299   C     0.90954   0.87884   0.18042   0.00000  Uiso   1.00
C300   C     0.59045   0.78783   0.15287   0.00000  Uiso   1.00
C301   C     0.88326   0.83066   0.16585   0.00000  Uiso   1.00
C302   C     0.61674   0.83600   0.16748   0.00000  Uiso   1.00
C303   C     0.90277   0.78204   0.15119   0.00000  Uiso   1.00
C304   C     0.59723   0.88462   0.18215   0.00000  Uiso   1.00
C305   C     0.95003   0.78306   0.15161   0.00000  Uiso   1.00
C306   C     0.54997   0.88361   0.18167   0.00000  Uiso   1.00
C307   C     0.97644   0.83245   0.16636   0.00000  Uiso   1.00
C308   C     0.52355   0.83422   0.16691   0.00000  Uiso   1.00
C309   C     0.95588   0.88017   0.18062   0.00000  Uiso   1.00
C310   C     0.54411   0.78650   0.15265   0.00000  Uiso   1.00
C311   C     0.97170   0.73608   0.13775   0.00000  Uiso   1.00
C312   C     0.52829   0.93059   0.19550   0.00000  Uiso   1.00
Cu313  Cu    0.75500   0.83913   0.22813   0.00000  Uiso   1.00
Cu314  Cu    0.74499   0.82754   0.10521   0.00000  Uiso   1.00
H315   H     0.89360   0.91553   0.19140   0.00000  Uiso   1.00
H316   H     0.60640   0.75114   0.14189   0.00000  Uiso   1.00
H317   H     0.95323   0.69744   0.12629   0.00000  Uiso   1.00
H318   H     0.54676   0.96922   0.20693   0.00000  Uiso   1.00
H319   H     0.53378   0.70108   0.12742   0.00000  Uiso   1.00
H320   H     0.96621   0.96559   0.20581   0.00000  Uiso   1.00
H321   H     0.73019   0.98692   0.09925   0.00000  Uiso   1.00
H322   H     0.76981   0.67975   0.23408   0.00000  Uiso   1.00
N323   N     0.73744   0.81881   0.01284   0.00000  Uiso   1.00
N324   N     0.76255   0.84786   0.32049   0.00000  Uiso   1.00
O325   O     0.75325   0.76204   0.20659   0.00000  Uiso   1.00
O326   O     0.74674   0.90462   0.12674   0.00000  Uiso   1.00
O327   O     0.74480   0.75226   0.10279   0.00000  Uiso   1.00
O328   O     0.75520   0.91441   0.23055   0.00000  Uiso   1.00
O329   O     0.68935   0.83821   0.21857   0.00000  Uiso   1.00
O330   O     0.81064   0.82845   0.11476   0.00000  Uiso   1.00
O331   O     0.68090   0.82843   0.11477   0.00000  Uiso   1.00
O332   O     0.81910   0.83824   0.21857   0.00000  Uiso   1.00
C333   C     0.87393   0.72968   0.13578   0.00000  Uiso   1.00
H334   H     0.88398   0.70540   0.16875   0.00000  Uiso   1.00
H335   H     0.83766   0.73404   0.13724   0.00000  Uiso   1.00
H336   H     0.87818   0.70796   0.08915   0.00000  Uiso   1.00
C337   C     0.62607   0.93699   0.19761   0.00000  Uiso   1.00
H338   H     0.62172   0.95874   0.24419   0.00000  Uiso   1.00
H339   H     0.66236   0.93263   0.19634   0.00000  Uiso   1.00
H340   H     0.61611   0.96123   0.16457   0.00000  Uiso   1.00
C341   C     0.71621   0.76837   0.31242   0.00000  Uiso   1.00
H342   H     0.69279   0.75292   0.00738   0.00000  Uiso   1.00
H343   H     0.69500   0.77138   0.27124   0.00000  Uiso   1.00
H344   H     0.74180   0.73977   0.30377   0.00000  Uiso   1.00
C345   C     0.78379   0.89830   0.02091   0.00000  Uiso   1.00
H346   H     0.80721   0.91375   0.32595   0.00000  Uiso   1.00
H347   H     0.75820   0.92690   0.02956   0.00000  Uiso   1.00
H348   H     0.80500   0.89528   0.06209   0.00000  Uiso   1.00
C349   C     0.24744   0.06674   0.48469   0.00000  Uiso   1.00
C350   C     0.25255   0.26659   0.51531   0.00000  Uiso   1.00
C351   C     0.01813   0.07123   0.47165   0.00000  Uiso   1.00
C352   C     0.48186   0.26210   0.52827   0.00000  Uiso   1.00
C353   C     0.24387   0.01066   0.47675   0.00000  Uiso   1.00
C354   C     0.25613   0.32268   0.52325   0.00000  Uiso   1.00
C355   C     0.16478   0.16726   0.50021   0.00000  Uiso   1.00
C356   C     0.33522   0.16607   0.49979   0.00000  Uiso   1.00
C357   C     0.40954   0.21217   0.51375   0.00000  Uiso   1.00
C358   C     0.09045   0.12117   0.48621   0.00000  Uiso   1.00
C359   C     0.38326   0.16400   0.49918   0.00000  Uiso   1.00
C360   C     0.11674   0.16934   0.50081   0.00000  Uiso   1.00
C361   C     0.40277   0.11538   0.48452   0.00000  Uiso   1.00
C362   C     0.09723   0.21796   0.51548   0.00000  Uiso   1.00
C363   C     0.45003   0.11639   0.48494   0.00000  Uiso   1.00
C364   C     0.04997   0.21694   0.51501   0.00000  Uiso   1.00
C365   C     0.47644   0.16578   0.49970   0.00000  Uiso   1.00
C366   C     0.02355   0.16755   0.50025   0.00000  Uiso   1.00
C367   C     0.45588   0.21351   0.51395   0.00000  Uiso   1.00
C368   C     0.04411   0.11983   0.48598   0.00000  Uiso   1.00
C369   C     0.47170   0.06942   0.47109   0.00000  Uiso   1.00
C370   C     0.02829   0.26392   0.52883   0.00000  Uiso   1.00
Cu371  Cu    0.25500   0.17246   0.56146   0.00000  Uiso   1.00
Cu372  Cu    0.24499   0.16087   0.43854   0.00000  Uiso   1.00
H373   H     0.39360   0.24886   0.52473   0.00000  Uiso   1.00
H374   H     0.10640   0.08448   0.47522   0.00000  Uiso   1.00
H375   H     0.45323   0.03078   0.45962   0.00000  Uiso   1.00
H376   H     0.04676   0.30256   0.54026   0.00000  Uiso   1.00
H377   H     0.03378   0.03441   0.46075   0.00000  Uiso   1.00
H378   H     0.46621   0.29892   0.53914   0.00000  Uiso   1.00
H379   H     0.23019   0.32025   0.43259   0.00000  Uiso   1.00
H380   H     0.26981   0.01308   0.56741   0.00000  Uiso   1.00
N381   N     0.23744   0.15214   0.34617   0.00000  Uiso   1.00
N382   N     0.26255   0.18119   0.65383   0.00000  Uiso   1.00
O383   O     0.25325   0.09538   0.53992   0.00000  Uiso   1.00
O384   O     0.24674   0.23796   0.46008   0.00000  Uiso   1.00
O385   O     0.24480   0.08559   0.43612   0.00000  Uiso   1.00
O386   O     0.25520   0.24774   0.56388   0.00000  Uiso   1.00
O387   O     0.18935   0.17155   0.55191   0.00000  Uiso   1.00
O388   O     0.31064   0.16179   0.44809   0.00000  Uiso   1.00
O389   O     0.18090   0.16176   0.44810   0.00000  Uiso   1.00
O390   O     0.31910   0.17157   0.55190   0.00000  Uiso   1.00
C391   C     0.37393   0.06301   0.46912   0.00000  Uiso   1.00
H392   H     0.38398   0.03874   0.50208   0.00000  Uiso   1.00
H393   H     0.33766   0.06738   0.47057   0.00000  Uiso   1.00
H394   H     0.37818   0.04130   0.42248   0.00000  Uiso   1.00
C395   C     0.12607   0.27032   0.53094   0.00000  Uiso   1.00
H396   H     0.12172   0.29207   0.57752   0.00000  Uiso   1.00
H397   H     0.16236   0.26596   0.52968   0.00000  Uiso   1.00
H398   H     0.11611   0.29456   0.49790   0.00000  Uiso   1.00
C399   C     0.21621   0.10170   0.64575   0.00000  Uiso   1.00
H400   H     0.19279   0.08625   0.34072   0.00000  Uiso   1.00
H401   H     0.19500   0.10472   0.60458   0.00000  Uiso   1.00
H402   H     0.24180   0.07310   0.63711   0.00000  Uiso   1.00
C403   C     0.28379   0.23163   0.35425   0.00000  Uiso   1.00
H404   H     0.30721   0.24708   0.65928   0.00000  Uiso   1.00
H405   H     0.25820   0.26023   0.36289   0.00000  Uiso   1.00
H406   H     0.30500   0.22862   0.39542   0.00000  Uiso   1.00
C407   C     0.74744   0.06674   0.48469   0.00000  Uiso   1.00
C408   C     0.75255   0.26659   0.51531   0.00000  Uiso   1.00
C409   C     0.51813   0.07123   0.47165   0.00000  Uiso   1.00
C410   C     0.98186   0.26210   0.52827   0.00000  Uiso   1.00
C411   C     0.74387   0.01066   0.47675   0.00000  Uiso   1.00
C412   C     0.75613   0.32268   0.52325   0.00000  Uiso   1.00
C413   C     0.66478   0.16726   0.50021   0.00000  Uiso   1.00
C414   C     0.83522   0.16607   0.49979   0.00000  Uiso   1.00
C415   C     0.90954   0.21217   0.51375   0.00000  Uiso   1.00
C416   C     0.59045   0.12117   0.48621   0.00000  Uiso   1.00
C417   C     0.88326   0.16400   0.49918   0.00000  Uiso   1.00
C418   C     0.61674   0.16934   0.50081   0.00000  Uiso   1.00
C419   C     0.90277   0.11538   0.48452   0.00000  Uiso   1.00
C420   C     0.59723   0.21796   0.51548   0.00000  Uiso   1.00
C421   C     0.95003   0.11639   0.48494   0.00000  Uiso   1.00
C422   C     0.54997   0.21694   0.51501   0.00000  Uiso   1.00
C423   C     0.97644   0.16578   0.49970   0.00000  Uiso   1.00
C424   C     0.52355   0.16755   0.50025   0.00000  Uiso   1.00
C425   C     0.95588   0.21351   0.51395   0.00000  Uiso   1.00
C426   C     0.54411   0.11983   0.48598   0.00000  Uiso   1.00
C427   C     0.97170   0.06942   0.47109   0.00000  Uiso   1.00
C428   C     0.52829   0.26392   0.52883   0.00000  Uiso   1.00
Cu429  Cu    0.75500   0.17246   0.56146   0.00000  Uiso   1.00
Cu430  Cu    0.74499   0.16087   0.43854   0.00000  Uiso   1.00
H431   H     0.89360   0.24886   0.52473   0.00000  Uiso   1.00
H432   H     0.60640   0.08448   0.47522   0.00000  Uiso   1.00
H433   H     0.95323   0.03078   0.45962   0.00000  Uiso   1.00
H434   H     0.54676   0.30256   0.54026   0.00000  Uiso   1.00
H435   H     0.53378   0.03441   0.46075   0.00000  Uiso   1.00
H436   H     0.96621   0.29892   0.53914   0.00000  Uiso   1.00
H437   H     0.73019   0.32025   0.43259   0.00000  Uiso   1.00
H438   H     0.76981   0.01308   0.56741   0.00000  Uiso   1.00
N439   N     0.73744   0.15214   0.34617   0.00000  Uiso   1.00
N440   N     0.76255   0.18119   0.65383   0.00000  Uiso   1.00
O441   O     0.75325   0.09538   0.53992   0.00000  Uiso   1.00
O442   O     0.74674   0.23796   0.46008   0.00000  Uiso   1.00
O443   O     0.74480   0.08559   0.43612   0.00000  Uiso   1.00
O444   O     0.75520   0.24774   0.56388   0.00000  Uiso   1.00
O445   O     0.68935   0.17155   0.55191   0.00000  Uiso   1.00
O446   O     0.81064   0.16179   0.44809   0.00000  Uiso   1.00
O447   O     0.68090   0.16176   0.44810   0.00000  Uiso   1.00
O448   O     0.81910   0.17157   0.55190   0.00000  Uiso   1.00
C449   C     0.87393   0.06301   0.46912   0.00000  Uiso   1.00
H450   H     0.88398   0.03874   0.50208   0.00000  Uiso   1.00
H451   H     0.83766   0.06738   0.47057   0.00000  Uiso   1.00
H452   H     0.87818   0.04130   0.42248   0.00000  Uiso   1.00
C453   C     0.62607   0.27032   0.53094   0.00000  Uiso   1.00
H454   H     0.62172   0.29207   0.57752   0.00000  Uiso   1.00
H455   H     0.66236   0.26596   0.52968   0.00000  Uiso   1.00
H456   H     0.61611   0.29456   0.49790   0.00000  Uiso   1.00
C457   C     0.71621   0.10170   0.64575   0.00000  Uiso   1.00
H458   H     0.69279   0.08625   0.34072   0.00000  Uiso   1.00
H459   H     0.69500   0.10472   0.60458   0.00000  Uiso   1.00
H460   H     0.74180   0.07310   0.63711   0.00000  Uiso   1.00
C461   C     0.78379   0.23163   0.35425   0.00000  Uiso   1.00
H462   H     0.80721   0.24708   0.65928   0.00000  Uiso   1.00
H463   H     0.75820   0.26023   0.36289   0.00000  Uiso   1.00
H464   H     0.80500   0.22862   0.39542   0.00000  Uiso   1.00
C465   C     0.24744   0.40008   0.48469   0.00000  Uiso   1.00
C466   C     0.25255   0.59992   0.51531   0.00000  Uiso   1.00
C467   C     0.01813   0.40457   0.47165   0.00000  Uiso   1.00
C468   C     0.48186   0.59543   0.52827   0.00000  Uiso   1.00
C469   C     0.24387   0.34399   0.47675   0.00000  Uiso   1.00
C470   C     0.25613   0.65601   0.52325   0.00000  Uiso   1.00
C471   C     0.16478   0.50059   0.50021   0.00000  Uiso   1.00
C472   C     0.33522   0.49941   0.49979   0.00000  Uiso   1.00
C473   C     0.40954   0.54550   0.51375   0.00000  Uiso   1.00
C474   C     0.09045   0.45450   0.48621   0.00000  Uiso   1.00
C475   C     0.38326   0.49733   0.49918   0.00000  Uiso   1.00
C476   C     0.11674   0.50267   0.50081   0.00000  Uiso   1.00
C477   C     0.40277   0.44871   0.48452   0.00000  Uiso   1.00
C478   C     0.09723   0.55129   0.51548   0.00000  Uiso   1.00
C479   C     0.45003   0.44973   0.48494   0.00000  Uiso   1.00
C480   C     0.04997   0.55028   0.51501   0.00000  Uiso   1.00
C481   C     0.47644   0.49912   0.49970   0.00000  Uiso   1.00
C482   C     0.02355   0.50088   0.50025   0.00000  Uiso   1.00
C483   C     0.45588   0.54684   0.51395   0.00000  Uiso   1.00
C484   C     0.04411   0.45316   0.48598   0.00000  Uiso   1.00
C485   C     0.47170   0.40275   0.47109   0.00000  Uiso   1.00
C486   C     0.02829   0.59725   0.52883   0.00000  Uiso   1.00
Cu487  Cu    0.25500   0.50579   0.56146   0.00000  Uiso   1.00
Cu488  Cu    0.24499   0.49421   0.43854   0.00000  Uiso   1.00
H489   H     0.39360   0.58219   0.52473   0.00000  Uiso   1.00
H490   H     0.10640   0.41781   0.47522   0.00000  Uiso   1.00
H491   H     0.45323   0.36411   0.45962   0.00000  Uiso   1.00
H492   H     0.04676   0.63589   0.54026   0.00000  Uiso   1.00
H493   H     0.03378   0.36774   0.46075   0.00000  Uiso   1.00
H494   H     0.46621   0.63226   0.53914   0.00000  Uiso   1.00
H495   H     0.23019   0.65358   0.43259   0.00000  Uiso   1.00
H496   H     0.26981   0.34642   0.56741   0.00000  Uiso   1.00
N497   N     0.23744   0.48547   0.34617   0.00000  Uiso   1.00
N498   N     0.26255   0.51453   0.65383   0.00000  Uiso   1.00
O499   O     0.25325   0.42871   0.53992   0.00000  Uiso   1.00
O500   O     0.24674   0.57129   0.46008   0.00000  Uiso   1.00
O501   O     0.24480   0.41892   0.43612   0.00000  Uiso   1.00
O502   O     0.25520   0.58108   0.56388   0.00000  Uiso   1.00
O503   O     0.18935   0.50488   0.55191   0.00000  Uiso   1.00
O504   O     0.31064   0.49512   0.44809   0.00000  Uiso   1.00
O505   O     0.18090   0.49510   0.44810   0.00000  Uiso   1.00
O506   O     0.31910   0.50490   0.55190   0.00000  Uiso   1.00
C507   C     0.37393   0.39634   0.46912   0.00000  Uiso   1.00
H508   H     0.38398   0.37207   0.50208   0.00000  Uiso   1.00
H509   H     0.33766   0.40071   0.47057   0.00000  Uiso   1.00
H510   H     0.37818   0.37463   0.42248   0.00000  Uiso   1.00
C511   C     0.12607   0.60366   0.53094   0.00000  Uiso   1.00
H512   H     0.12172   0.62541   0.57752   0.00000  Uiso   1.00
H513   H     0.16236   0.59929   0.52968   0.00000  Uiso   1.00
H514   H     0.11611   0.62790   0.49790   0.00000  Uiso   1.00
C515   C     0.21621   0.43504   0.64575   0.00000  Uiso   1.00
H516   H     0.19279   0.41958   0.34072   0.00000  Uiso   1.00
H517   H     0.19500   0.43805   0.60458   0.00000  Uiso   1.00
H518   H     0.24180   0.40644   0.63711   0.00000  Uiso   1.00
C519   C     0.28379   0.56496   0.35425   0.00000  Uiso   1.00
H520   H     0.30721   0.58042   0.65928   0.00000  Uiso   1.00
H521   H     0.25820   0.59356   0.36289   0.00000  Uiso   1.00
H522   H     0.30500   0.56195   0.39542   0.00000  Uiso   1.00
C523   C     0.74744   0.40008   0.48469   0.00000  Uiso   1.00
C524   C     0.75255   0.59992   0.51531   0.00000  Uiso   1.00
C525   C     0.51813   0.40457   0.47165   0.00000  Uiso   1.00
C526   C     0.98186   0.59543   0.52827   0.00000  Uiso   1.00
C527   C     0.74387   0.34399   0.47675   0.00000  Uiso   1.00
C528   C     0.75613   0.65601   0.52325   0.00000  Uiso   1.00
C529   C     0.66478   0.50059   0.50021   0.00000  Uiso   1.00
C530   C     0.83522   0.49941   0.49979   0.00000  Uiso   1.00
C531   C     0.90954   0.54550   0.51375   0.00000  Uiso   1.00
C532   C     0.59045   0.45450   0.48621   0.00000  Uiso   1.00
C533   C     0.88326   0.49733   0.49918   0.00000  Uiso   1.00
C534   C     0.61674   0.50267   0.50081   0.00000  Uiso   1.00
C535   C     0.90277   0.44871   0.48452   0.00000  Uiso   1.00
C536   C     0.59723   0.55129   0.51548   0.00000  Uiso   1.00
C537   C     0.95003   0.44973   0.48494   0.00000  Uiso   1.00
C538   C     0.54997   0.55028   0.51501   0.00000  Uiso   1.00
C539   C     0.97644   0.49912   0.49970   0.00000  Uiso   1.00
C540   C     0.52355   0.50088   0.50025   0.00000  Uiso   1.00
C541   C     0.95588   0.54684   0.51395   0.00000  Uiso   1.00
C542   C     0.54411   0.45316   0.48598   0.00000  Uiso   1.00
C543   C     0.97170   0.40275   0.47109   0.00000  Uiso   1.00
C544   C     0.52829   0.59725   0.52883   0.00000  Uiso   1.00
Cu545  Cu    0.75500   0.50579   0.56146   0.00000  Uiso   1.00
Cu546  Cu    0.74499   0.49421   0.43854   0.00000  Uiso   1.00
H547   H     0.89360   0.58219   0.52473   0.00000  Uiso   1.00
H548   H     0.60640   0.41781   0.47522   0.00000  Uiso   1.00
H549   H     0.95323   0.36411   0.45962   0.00000  Uiso   1.00
H550   H     0.54676   0.63589   0.54026   0.00000  Uiso   1.00
H551   H     0.53378   0.36774   0.46075   0.00000  Uiso   1.00
H552   H     0.96621   0.63226   0.53914   0.00000  Uiso   1.00
H553   H     0.73019   0.65358   0.43259   0.00000  Uiso   1.00
H554   H     0.76981   0.34642   0.56741   0.00000  Uiso   1.00
N555   N     0.73744   0.48547   0.34617   0.00000  Uiso   1.00
N556   N     0.76255   0.51453   0.65383   0.00000  Uiso   1.00
O557   O     0.75325   0.42871   0.53992   0.00000  Uiso   1.00
O558   O     0.74674   0.57129   0.46008   0.00000  Uiso   1.00
O559   O     0.74480   0.41892   0.43612   0.00000  Uiso   1.00
O560   O     0.75520   0.58108   0.56388   0.00000  Uiso   1.00
O561   O     0.68935   0.50488   0.55191   0.00000  Uiso   1.00
O562   O     0.81064   0.49512   0.44809   0.00000  Uiso   1.00
O563   O     0.68090   0.49510   0.44810   0.00000  Uiso   1.00
O564   O     0.81910   0.50490   0.55190   0.00000  Uiso   1.00
C565   C     0.87393   0.39634   0.46912   0.00000  Uiso   1.00
H566   H     0.88398   0.37207   0.50208   0.00000  Uiso   1.00
H567   H     0.83766   0.40071   0.47057   0.00000  Uiso   1.00
H568   H     0.87818   0.37463   0.42248   0.00000  Uiso   1.00
C569   C     0.62607   0.60366   0.53094   0.00000  Uiso   1.00
H570   H     0.62172   0.62541   0.57752   0.00000  Uiso   1.00
H571   H     0.66236   0.59929   0.52968   0.00000  Uiso   1.00
H572   H     0.61611   0.62790   0.49790   0.00000  Uiso   1.00
C573   C     0.71621   0.43504   0.64575   0.00000  Uiso   1.00
H574   H     0.69279   0.41958   0.34072   0.00000  Uiso   1.00
H575   H     0.69500   0.43805   0.60458   0.00000  Uiso   1.00
H576   H     0.74180   0.40644   0.63711   0.00000  Uiso   1.00
C577   C     0.78379   0.56496   0.35425   0.00000  Uiso   1.00
H578   H     0.80721   0.58042   0.65928   0.00000  Uiso   1.00
H579   H     0.75820   0.59356   0.36289   0.00000  Uiso   1.00
H580   H     0.80500   0.56195   0.39542   0.00000  Uiso   1.00
C581   C     0.24744   0.73341   0.48469   0.00000  Uiso   1.00
C582   C     0.25255   0.93326   0.51531   0.00000  Uiso   1.00
C583   C     0.01813   0.73790   0.47165   0.00000  Uiso   1.00
C584   C     0.48186   0.92877   0.52827   0.00000  Uiso   1.00
C585   C     0.24387   0.67732   0.47675   0.00000  Uiso   1.00
C586   C     0.25613   0.98934   0.52325   0.00000  Uiso   1.00
C587   C     0.16478   0.83393   0.50021   0.00000  Uiso   1.00
C588   C     0.33522   0.83274   0.49979   0.00000  Uiso   1.00
C589   C     0.40954   0.87884   0.51375   0.00000  Uiso   1.00
C590   C     0.09045   0.78783   0.48621   0.00000  Uiso   1.00
C591   C     0.38326   0.83066   0.49918   0.00000  Uiso   1.00
C592   C     0.11674   0.83600   0.50081   0.00000  Uiso   1.00
C593   C     0.40277   0.78204   0.48452   0.00000  Uiso   1.00
C594   C     0.09723   0.88462   0.51548   0.00000  Uiso   1.00
C595   C     0.45003   0.78306   0.48494   0.00000  Uiso   1.00
C596   C     0.04997   0.88361   0.51501   0.00000  Uiso   1.00
C597   C     0.47644   0.83245   0.49970   0.00000  Uiso   1.00
C598   C     0.02355   0.83422   0.50025   0.00000  Uiso   1.00
C599   C     0.45588   0.88017   0.51395   0.00000  Uiso   1.00
C600   C     0.04411   0.78650   0.48598   0.00000  Uiso   1.00
C601   C     0.47170   0.73608   0.47109   0.00000  Uiso   1.00
C602   C     0.02829   0.93059   0.52883   0.00000  Uiso   1.00
Cu603  Cu    0.25500   0.83913   0.56146   0.00000  Uiso   1.00
Cu604  Cu    0.24499   0.82754   0.43854   0.00000  Uiso   1.00
H605   H     0.39360   0.91553   0.52473   0.00000  Uiso   1.00
H606   H     0.10640   0.75114   0.47522   0.00000  Uiso   1.00
H607   H     0.45323   0.69744   0.45962   0.00000  Uiso   1.00
H608   H     0.04676   0.96922   0.54026   0.00000  Uiso   1.00
H609   H     0.03378   0.70108   0.46075   0.00000  Uiso   1.00
H610   H     0.46621   0.96559   0.53914   0.00000  Uiso   1.00
H611   H     0.23019   0.98692   0.43259   0.00000  Uiso   1.00
H612   H     0.26981   0.67975   0.56741   0.00000  Uiso   1.00
N613   N     0.23744   0.81881   0.34617   0.00000  Uiso   1.00
N614   N     0.26255   0.84786   0.65383   0.00000  Uiso   1.00
O615   O     0.25325   0.76204   0.53992   0.00000  Uiso   1.00
O616   O     0.24674   0.90462   0.46008   0.00000  Uiso   1.00
O617   O     0.24480   0.75226   0.43612   0.00000  Uiso   1.00
O618   O     0.25520   0.91441   0.56388   0.00000  Uiso   1.00
O619   O     0.18935   0.83821   0.55191   0.00000  Uiso   1.00
O620   O     0.31064   0.82845   0.44809   0.00000  Uiso   1.00
O621   O     0.18090   0.82843   0.44810   0.00000  Uiso   1.00
O622   O     0.31910   0.83824   0.55190   0.00000  Uiso   1.00
C623   C     0.37393   0.72968   0.46912   0.00000  Uiso   1.00
H624   H     0.38398   0.70540   0.50208   0.00000  Uiso   1.00
H625   H     0.33766   0.73404   0.47057   0.00000  Uiso   1.00
H626   H     0.37818   0.70796   0.42248   0.00000  Uiso   1.00
C627   C     0.12607   0.93699   0.53094   0.00000  Uiso   1.00
H628   H     0.12172   0.95874   0.57752   0.00000  Uiso   1.00
H629   H     0.16236   0.93263   0.52968   0.00000  Uiso   1.00
H630   H     0.11611   0.96123   0.49790   0.00000  Uiso   1.00
C631   C     0.21621   0.76837   0.64575   0.00000  Uiso   1.00
H632   H     0.19279   0.75292   0.34072   0.00000  Uiso   1.00
H633   H     0.19500   0.77138   0.60458   0.00000  Uiso   1.00
H634   H     0.24180   0.73977   0.63711   0.00000  Uiso   1.00
C635   C     0.28379   0.89830   0.35425   0.00000  Uiso   1.00
H636   H     0.30721   0.91375   0.65928   0.00000  Uiso   1.00
H637   H     0.25820   0.92690   0.36289   0.00000  Uiso   1.00
H638   H     0.30500   0.89528   0.39542   0.00000  Uiso   1.00
C639   C     0.74744   0.73341   0.48469   0.00000  Uiso   1.00
C640   C     0.75255   0.93326   0.51531   0.00000  Uiso   1.00
C641   C     0.51813   0.73790   0.47165   0.00000  Uiso   1.00
C642   C     0.98186   0.92877   0.52827   0.00000  Uiso   1.00
C643   C     0.74387   0.67732   0.47675   0.00000  Uiso   1.00
C644   C     0.75613   0.98934   0.52325   0.00000  Uiso   1.00
C645   C     0.66478   0.83393   0.50021   0.00000  Uiso   1.00
C646   C     0.83522   0.83274   0.49979   0.00000  Uiso   1.00
C647   C     0.90954   0.87884   0.51375   0.00000  Uiso   1.00
C648   C     0.59045   0.78783   0.48621   0.00000  Uiso   1.00
C649   C     0.88326   0.83066   0.49918   0.00000  Uiso   1.00
C650   C     0.61674   0.83600   0.50081   0.00000  Uiso   1.00
C651   C     0.90277   0.78204   0.48452   0.00000  Uiso   1.00
C652   C     0.59723   0.88462   0.51548   0.00000  Uiso   1.00
C653   C     0.95003   0.78306   0.48494   0.00000  Uiso   1.00
C654   C     0.54997   0.88361   0.51501   0.00000  Uiso   1.00
C655   C     0.97644   0.83245   0.49970   0.00000  Uiso   1.00
C656   C     0.52355   0.83422   0.50025   0.00000  Uiso   1.00
C657   C     0.95588   0.88017   0.51395   0.00000  Uiso   1.00
C658   C     0.54411   0.78650   0.48598   0.00000  Uiso   1.00
C659   C     0.97170   0.73608   0.47109   0.00000  Uiso   1.00
C660   C     0.52829   0.93059   0.52883   0.00000  Uiso   1.00
Cu661  Cu    0.75500   0.83913   0.56146   0.00000  Uiso   1.00
Cu662  Cu    0.74499   0.82754   0.43854   0.00000  Uiso   1.00
H663   H     0.89360   0.91553   0.52473   0.00000  Uiso   1.00
H664   H     0.60640   0.75114   0.47522   0.00000  Uiso   1.00
H665   H     0.95323   0.69744   0.45962   0.00000  Uiso   1.00
H666   H     0.54676   0.96922   0.54026   0.00000  Uiso   1.00
H667   H     0.53378   0.70108   0.46075   0.00000  Uiso   1.00
H668   H     0.96621   0.96559   0.53914   0.00000  Uiso   1.00
H669   H     0.73019   0.98692   0.43259   0.00000  Uiso   1.00
H670   H     0.76981   0.67975   0.56741   0.00000  Uiso   1.00
N671   N     0.73744   0.81881   0.34617   0.00000  Uiso   1.00
N672   N     0.76255   0.84786   0.65383   0.00000  Uiso   1.00
O673   O     0.75325   0.76204   0.53992   0.00000  Uiso   1.00
O674   O     0.74674   0.90462   0.46008   0.00000  Uiso   1.00
O675   O     0.74480   0.75226   0.43612   0.00000  Uiso   1.00
O676   O     0.75520   0.91441   0.56388   0.00000  Uiso   1.00
O677   O     0.68935   0.83821   0.55191   0.00000  Uiso   1.00
O678   O     0.81064   0.82845   0.44809   0.00000  Uiso   1.00
O679   O     0.68090   0.82843   0.44810   0.00000  Uiso   1.00
O680   O     0.81910   0.83824   0.55190   0.00000  Uiso   1.00
C681   C     0.87393   0.72968   0.46912   0.00000  Uiso   1.00
H682   H     0.88398   0.70540   0.50208   0.00000  Uiso   1.00
H683   H     0.83766   0.73404   0.47057   0.00000  Uiso   1.00
H684   H     0.87818   0.70796   0.42248   0.00000  Uiso   1.00
C685   C     0.62607   0.93699   0.53094   0.00000  Uiso   1.00
H686   H     0.62172   0.95874   0.57752   0.00000  Uiso   1.00
H687   H     0.66236   0.93263   0.52968   0.00000  Uiso   1.00
H688   H     0.61611   0.96123   0.49790   0.00000  Uiso   1.00
C689   C     0.71621   0.76837   0.64575   0.00000  Uiso   1.00
H690   H     0.69279   0.75292   0.34072   0.00000  Uiso   1.00
H691   H     0.69500   0.77138   0.60458   0.00000  Uiso   1.00
H692   H     0.74180   0.73977   0.63711   0.00000  Uiso   1.00
C693   C     0.78379   0.89830   0.35425   0.00000  Uiso   1.00
H694   H     0.80721   0.91375   0.65928   0.00000  Uiso   1.00
H695   H     0.75820   0.92690   0.36289   0.00000  Uiso   1.00
H696   H     0.80500   0.89528   0.39542   0.00000  Uiso   1.00
C697   C     0.24744   0.06674   0.81802   0.00000  Uiso   1.00
C698   C     0.25255   0.26659   0.84864   0.00000  Uiso   1.00
C699   C     0.01813   0.07123   0.80498   0.00000  Uiso   1.00
C700   C     0.48186   0.26210   0.86160   0.00000  Uiso   1.00
C701   C     0.24387   0.01066   0.81008   0.00000  Uiso   1.00
C702   C     0.25613   0.32268   0.85658   0.00000  Uiso   1.00
C703   C     0.16478   0.16726   0.83355   0.00000  Uiso   1.00
C704   C     0.33522   0.16607   0.83312   0.00000  Uiso   1.00
C705   C     0.40954   0.21217   0.84709   0.00000  Uiso   1.00
C706   C     0.09045   0.12117   0.81954   0.00000  Uiso   1.00
C707   C     0.38326   0.16400   0.83252   0.00000  Uiso   1.00
C708   C     0.11674   0.16934   0.83415   0.00000  Uiso   1.00
C709   C     0.40277   0.11538   0.81785   0.00000  Uiso   1.00
C710   C     0.09723   0.21796   0.84881   0.00000  Uiso   1.00
C711   C     0.45003   0.11639   0.81828   0.00000  Uiso   1.00
C712   C     0.04997   0.21694   0.84834   0.00000  Uiso   1.00
C713   C     0.47644   0.16578   0.83303   0.00000  Uiso   1.00
C714   C     0.02355   0.16755   0.83358   0.00000  Uiso   1.00
C715   C     0.45588   0.21351   0.84729   0.00000  Uiso   1.00
C716   C     0.04411   0.11983   0.81932   0.00000  Uiso   1.00
C717   C     0.47170   0.06942   0.80442   0.00000  Uiso   1.00
C718   C     0.02829   0.26392   0.86216   0.00000  Uiso   1.00
Cu719  Cu    0.25500   0.17246   0.89479   0.00000  Uiso   1.00
Cu720  Cu    0.24499   0.16087   0.77187   0.00000  Uiso   1.00
H721   H     0.39360   0.24886   0.85806   0.00000  Uiso   1.00
H722   H     0.10640   0.08448   0.80855   0.00000  Uiso   1.00
H723   H     0.45323   0.03078   0.79296   0.00000  Uiso   1.00
H724   H     0.04676   0.30256   0.87360   0.00000  Uiso   1.00
H725   H     0.03378   0.03441   0.79409   0.00000  Uiso   1.00
H726   H     0.46621   0.29892   0.87247   0.00000  Uiso   1.00
H727   H     0.23019   0.32025   0.76592   0.00000  Uiso   1.00
H728   H     0.26981   0.01308   0.90075   0.00000  Uiso   1.00
N729   N     0.23744   0.15214   0.67951   0.00000  Uiso   1.00
N730   N     0.26255   0.18119   0.98716   0.00000  Uiso   1.00
O731   O     0.25325   0.09538   0.87326   0.00000  Uiso   1.00
O732   O     0.24674   0.23796   0.79341   0.00000  Uiso   1.00
O733   O     0.24480   0.08559   0.76945   0.00000  Uiso   1.00
O734   O     0.25520   0.24774   0.89721   0.00000  Uiso   1.00
O735   O     0.18935   0.17155   0.88524   0.00000  Uiso   1.00
O736   O     0.31064   0.16179   0.78143   0.00000  Uiso   1.00
O737   O     0.18090   0.16176   0.78143   0.00000  Uiso   1.00
O738   O     0.31910   0.17157   0.88523   0.00000  Uiso   1.00
C739   C     0.37393   0.06301   0.80245   0.00000  Uiso   1.00
H740   H     0.38398   0.03874   0.83541   0.00000  Uiso   1.00
H741   H     0.33766   0.06738   0.80391   0.00000  Uiso   1.00
H742   H     0.37818   0.04130   0.75581   0.00000  Uiso   1.00
C743   C     0.12607   0.27032   0.86427   0.00000  Uiso   1.00
H744   H     0.12172   0.29207   0.91086   0.00000  Uiso   1.00
H745   H     0.16236   0.26596   0.86301   0.00000  Uiso   1.00
H746   H     0.11611   0.29456   0.83123   0.00000  Uiso   1.00
C747   C     0.21621   0.10170   0.97909   0.00000  Uiso   1.00
H748   H     0.19279   0.08625   0.67405   0.00000  Uiso   1.00
H749   H     0.19500   0.10472   0.93791   0.00000  Uiso   1.00
H750   H     0.24180   0.07310   0.97044   0.00000  Uiso   1.00
C751   C     0.28379   0.23163   0.68758   0.00000  Uiso   1.00
H752   H     0.30721   0.24708   0.99261   0.00000  Uiso   1.00
H753   H     0.25820   0.26023   0.69623   0.00000  Uiso   1.00
H754   H     0.30500   0.22862   0.72876   0.00000  Uiso   1.00
C755   C     0.74744   0.06674   0.81802   0.00000  Uiso   1.00
C756   C     0.75255   0.26659   0.84864   0.00000  Uiso   1.00
C757   C     0.51813   0.07123   0.80498   0.00000  Uiso   1.00
C758   C     0.98186   0.26210   0.86160   0.00000  Uiso   1.00
C759   C     0.74387   0.01066   0.81008   0.00000  Uiso   1.00
C760   C     0.75613   0.32268   0.85658   0.00000  Uiso   1.00
C761   C     0.66478   0.16726   0.83355   0.00000  Uiso   1.00
C762   C     0.83522   0.16607   0.83312   0.00000  Uiso   1.00
C763   C     0.90954   0.21217   0.84709   0.00000  Uiso   1.00
C764   C     0.59045   0.12117   0.81954   0.00000  Uiso   1.00
C765   C     0.88326   0.16400   0.83252   0.00000  Uiso   1.00
C766   C     0.61674   0.16934   0.83415   0.00000  Uiso   1.00
C767   C     0.90277   0.11538   0.81785   0.00000  Uiso   1.00
C768   C     0.59723   0.21796   0.84881   0.00000  Uiso   1.00
C769   C     0.95003   0.11639   0.81828   0.00000  Uiso   1.00
C770   C     0.54997   0.21694   0.84834   0.00000  Uiso   1.00
C771   C     0.97644   0.16578   0.83303   0.00000  Uiso   1.00
C772   C     0.52355   0.16755   0.83358   0.00000  Uiso   1.00
C773   C     0.95588   0.21351   0.84729   0.00000  Uiso   1.00
C774   C     0.54411   0.11983   0.81932   0.00000  Uiso   1.00
C775   C     0.97170   0.06942   0.80442   0.00000  Uiso   1.00
C776   C     0.52829   0.26392   0.86216   0.00000  Uiso   1.00
Cu777  Cu    0.75500   0.17246   0.89479   0.00000  Uiso   1.00
Cu778  Cu    0.74499   0.16087   0.77187   0.00000  Uiso   1.00
H779   H     0.89360   0.24886   0.85806   0.00000  Uiso   1.00
H780   H     0.60640   0.08448   0.80855   0.00000  Uiso   1.00
H781   H     0.95323   0.03078   0.79296   0.00000  Uiso   1.00
H782   H     0.54676   0.30256   0.87360   0.00000  Uiso   1.00
H783   H     0.53378   0.03441   0.79409   0.00000  Uiso   1.00
H784   H     0.96621   0.29892   0.87247   0.00000  Uiso   1.00
H785   H     0.73019   0.32025   0.76592   0.00000  Uiso   1.00
H786   H     0.76981   0.01308   0.90075   0.00000  Uiso   1.00
N787   N     0.73744   0.15214   0.67951   0.00000  Uiso   1.00
N788   N     0.76255   0.18119   0.98716   0.00000  Uiso   1.00
O789   O     0.75325   0.09538   0.87326   0.00000  Uiso   1.00
O790   O     0.74674   0.23796   0.79341   0.00000  Uiso   1.00
O791   O     0.74480   0.08559   0.76945   0.00000  Uiso   1.00
O792   O     0.75520   0.24774   0.89721   0.00000  Uiso   1.00
O793   O     0.68935   0.17155   0.88524   0.00000  Uiso   1.00
O794   O     0.81064   0.16179   0.78143   0.00000  Uiso   1.00
O795   O     0.68090   0.16176   0.78143   0.00000  Uiso   1.00
O796   O     0.81910   0.17157   0.88523   0.00000  Uiso   1.00
C797   C     0.87393   0.06301   0.80245   0.00000  Uiso   1.00
H798   H     0.88398   0.03874   0.83541   0.00000  Uiso   1.00
H799   H     0.83766   0.06738   0.80391   0.00000  Uiso   1.00
H800   H     0.87818   0.04130   0.75581   0.00000  Uiso   1.00
C801   C     0.62607   0.27032   0.86427   0.00000  Uiso   1.00
H802   H     0.62172   0.29207   0.91086   0.00000  Uiso   1.00
H803   H     0.66236   0.26596   0.86301   0.00000  Uiso   1.00
H804   H     0.61611   0.29456   0.83123   0.00000  Uiso   1.00
C805   C     0.71621   0.10170   0.97909   0.00000  Uiso   1.00
H806   H     0.69279   0.08625   0.67405   0.00000  Uiso   1.00
H807   H     0.69500   0.10472   0.93791   0.00000  Uiso   1.00
H808   H     0.74180   0.07310   0.97044   0.00000  Uiso   1.00
C809   C     0.78379   0.23163   0.68758   0.00000  Uiso   1.00
H810   H     0.80721   0.24708   0.99261   0.00000  Uiso   1.00
H811   H     0.75820   0.26023   0.69623   0.00000  Uiso   1.00
H812   H     0.80500   0.22862   0.72876   0.00000  Uiso   1.00
C813   C     0.24744   0.40008   0.81802   0.00000  Uiso   1.00
C814   C     0.25255   0.59992   0.84864   0.00000  Uiso   1.00
C815   C     0.01813   0.40457   0.80498   0.00000  Uiso   1.00
C816   C     0.48186   0.59543   0.86160   0.00000  Uiso   1.00
C817   C     0.24387   0.34399   0.81008   0.00000  Uiso   1.00
C818   C     0.25613   0.65601   0.85658   0.00000  Uiso   1.00
C819   C     0.16478   0.50059   0.83355   0.00000  Uiso   1.00
C820   C     0.33522   0.49941   0.83312   0.00000  Uiso   1.00
C821   C     0.40954   0.54550   0.84709   0.00000  Uiso   1.00
C822   C     0.09045   0.45450   0.81954   0.00000  Uiso   1.00
C823   C     0.38326   0.49733   0.83252   0.00000  Uiso   1.00
C824   C     0.11674   0.50267   0.83415   0.00000  Uiso   1.00
C825   C     0.40277   0.44871   0.81785   0.00000  Uiso   1.00
C826   C     0.09723   0.55129   0.84881   0.00000  Uiso   1.00
C827   C     0.45003   0.44973   0.81828   0.00000  Uiso   1.00
C828   C     0.04997   0.55028   0.84834   0.00000  Uiso   1.00
C829   C     0.47644   0.49912   0.83303   0.00000  Uiso   1.00
C830   C     0.02355   0.50088   0.83358   0.00000  Uiso   1.00
C831   C     0.45588   0.54684   0.84729   0.00000  Uiso   1.00
C832   C     0.04411   0.45316   0.81932   0.00000  Uiso   1.00
C833   C     0.47170   0.40275   0.80442   0.00000  Uiso   1.00
C834   C     0.02829   0.59725   0.86216   0.00000  Uiso   1.00
Cu835  Cu    0.25500   0.50579   0.89479   0.00000  Uiso   1.00
Cu836  Cu    0.24499   0.49421   0.77187   0.00000  Uiso   1.00
H837   H     0.39360   0.58219   0.85806   0.00000  Uiso   1.00
H838   H     0.10640   0.41781   0.80855   0.00000  Uiso   1.00
H839   H     0.45323   0.36411   0.79296   0.00000  Uiso   1.00
H840   H     0.04676   0.63589   0.87360   0.00000  Uiso   1.00
H841   H     0.03378   0.36774   0.79409   0.00000  Uiso   1.00
H842   H     0.46621   0.63226   0.87247   0.00000  Uiso   1.00
H843   H     0.23019   0.65358   0.76592   0.00000  Uiso   1.00
H844   H     0.26981   0.34642   0.90075   0.00000  Uiso   1.00
N845   N     0.23744   0.48547   0.67951   0.00000  Uiso   1.00
N846   N     0.26255   0.51453   0.98716   0.00000  Uiso   1.00
O847   O     0.25325   0.42871   0.87326   0.00000  Uiso   1.00
O848   O     0.24674   0.57129   0.79341   0.00000  Uiso   1.00
O849   O     0.24480   0.41892   0.76945   0.00000  Uiso   1.00
O850   O     0.25520   0.58108   0.89721   0.00000  Uiso   1.00
O851   O     0.18935   0.50488   0.88524   0.00000  Uiso   1.00
O852   O     0.31064   0.49512   0.78143   0.00000  Uiso   1.00
O853   O     0.18090   0.49510   0.78143   0.00000  Uiso   1.00
O854   O     0.31910   0.50490   0.88523   0.00000  Uiso   1.00
C855   C     0.37393   0.39634   0.80245   0.00000  Uiso   1.00
H856   H     0.38398   0.37207   0.83541   0.00000  Uiso   1.00
H857   H     0.33766   0.40071   0.80391   0.00000  Uiso   1.00
H858   H     0.37818   0.37463   0.75581   0.00000  Uiso   1.00
C859   C     0.12607   0.60366   0.86427   0.00000  Uiso   1.00
H860   H     0.12172   0.62541   0.91086   0.00000  Uiso   1.00
H861   H     0.16236   0.59929   0.86301   0.00000  Uiso   1.00
H862   H     0.11611   0.62790   0.83123   0.00000  Uiso   1.00
C863   C     0.21621   0.43504   0.97909   0.00000  Uiso   1.00
H864   H     0.19279   0.41958   0.67405   0.00000  Uiso   1.00
H865   H     0.19500   0.43805   0.93791   0.00000  Uiso   1.00
H866   H     0.24180   0.40644   0.97044   0.00000  Uiso   1.00
C867   C     0.28379   0.56496   0.68758   0.00000  Uiso   1.00
H868   H     0.30721   0.58042   0.99261   0.00000  Uiso   1.00
H869   H     0.25820   0.59356   0.69623   0.00000  Uiso   1.00
H870   H     0.30500   0.56195   0.72876   0.00000  Uiso   1.00
C871   C     0.74744   0.40008   0.81802   0.00000  Uiso   1.00
C872   C     0.75255   0.59992   0.84864   0.00000  Uiso   1.00
C873   C     0.51813   0.40457   0.80498   0.00000  Uiso   1.00
C874   C     0.98186   0.59543   0.86160   0.00000  Uiso   1.00
C875   C     0.74387   0.34399   0.81008   0.00000  Uiso   1.00
C876   C     0.75613   0.65601   0.85658   0.00000  Uiso   1.00
C877   C     0.66478   0.50059   0.83355   0.00000  Uiso   1.00
C878   C     0.83522   0.49941   0.83312   0.00000  Uiso   1.00
C879   C     0.90954   0.54550   0.84709   0.00000  Uiso   1.00
C880   C     0.59045   0.45450   0.81954   0.00000  Uiso   1.00
C881   C     0.88326   0.49733   0.83252   0.00000  Uiso   1.00
C882   C     0.61674   0.50267   0.83415   0.00000  Uiso   1.00
C883   C     0.90277   0.44871   0.81785   0.00000  Uiso   1.00
C884   C     0.59723   0.55129   0.84881   0.00000  Uiso   1.00
C885   C     0.95003   0.44973   0.81828   0.00000  Uiso   1.00
C886   C     0.54997   0.55028   0.84834   0.00000  Uiso   1.00
C887   C     0.97644   0.49912   0.83303   0.00000  Uiso   1.00
C888   C     0.52355   0.50088   0.83358   0.00000  Uiso   1.00
C889   C     0.95588   0.54684   0.84729   0.00000  Uiso   1.00
C890   C     0.54411   0.45316   0.81932   0.00000  Uiso   1.00
C891   C     0.97170   0.40275   0.80442   0.00000  Uiso   1.00
C892   C     0.52829   0.59725   0.86216   0.00000  Uiso   1.00
Cu893  Cu    0.75500   0.50579   0.89479   0.00000  Uiso   1.00
Cu894  Cu    0.74499   0.49421   0.77187   0.00000  Uiso   1.00
H895   H     0.89360   0.58219   0.85806   0.00000  Uiso   1.00
H896   H     0.60640   0.41781   0.80855   0.00000  Uiso   1.00
H897   H     0.95323   0.36411   0.79296   0.00000  Uiso   1.00
H898   H     0.54676   0.63589   0.87360   0.00000  Uiso   1.00
H899   H     0.53378   0.36774   0.79409   0.00000  Uiso   1.00
H900   H     0.96621   0.63226   0.87247   0.00000  Uiso   1.00
H901   H     0.73019   0.65358   0.76592   0.00000  Uiso   1.00
H902   H     0.76981   0.34642   0.90075   0.00000  Uiso   1.00
N903   N     0.73744   0.48547   0.67951   0.00000  Uiso   1.00
N904   N     0.76255   0.51453   0.98716   0.00000  Uiso   1.00
O905   O     0.75325   0.42871   0.87326   0.00000  Uiso   1.00
O906   O     0.74674   0.57129   0.79341   0.00000  Uiso   1.00
O907   O     0.74480   0.41892   0.76945   0.00000  Uiso   1.00
O908   O     0.75520   0.58108   0.89721   0.00000  Uiso   1.00
O909   O     0.68935   0.50488   0.88524   0.00000  Uiso   1.00
O910   O     0.81064   0.49512   0.78143   0.00000  Uiso   1.00
O911   O     0.68090   0.49510   0.78143   0.00000  Uiso   1.00
O912   O     0.81910   0.50490   0.88523   0.00000  Uiso   1.00
C913   C     0.87393   0.39634   0.80245   0.00000  Uiso   1.00
H914   H     0.88398   0.37207   0.83541   0.00000  Uiso   1.00
H915   H     0.83766   0.40071   0.80391   0.00000  Uiso   1.00
H916   H     0.87818   0.37463   0.75581   0.00000  Uiso   1.00
C917   C     0.62607   0.60366   0.86427   0.00000  Uiso   1.00
H918   H     0.62172   0.62541   0.91086   0.00000  Uiso   1.00
H919   H     0.66236   0.59929   0.86301   0.00000  Uiso   1.00
H920   H     0.61611   0.62790   0.83123   0.00000  Uiso   1.00
C921   C     0.71621   0.43504   0.97909   0.00000  Uiso   1.00
H922   H     0.69279   0.41958   0.67405   0.00000  Uiso   1.00
H923   H     0.69500   0.43805   0.93791   0.00000  Uiso   1.00
H924   H     0.74180   0.40644   0.97044   0.00000  Uiso   1.00
C925   C     0.78379   0.56496   0.68758   0.00000  Uiso   1.00
H926   H     0.80721   0.58042   0.99261   0.00000  Uiso   1.00
H927   H     0.75820   0.59356   0.69623   0.00000  Uiso   1.00
H928   H     0.80500   0.56195   0.72876   0.00000  Uiso   1.00
C929   C     0.24744   0.73341   0.81802   0.00000  Uiso   1.00
C930   C     0.25255   0.93326   0.84864   0.00000  Uiso   1.00
C931   C     0.01813   0.73790   0.80498   0.00000  Uiso   1.00
C932   C     0.48186   0.92877   0.86160   0.00000  Uiso   1.00
C933   C     0.24387   0.67732   0.81008   0.00000  Uiso   1.00
C934   C     0.25613   0.98934   0.85658   0.00000  Uiso   1.00
C935   C     0.16478   0.83393   0.83355   0.00000  Uiso   1.00
C936   C     0.33522   0.83274   0.83312   0.00000  Uiso   1.00
C937   C     0.40954   0.87884   0.84709   0.00000  Uiso   1.00
C938   C     0.09045   0.78783   0.81954   0.00000  Uiso   1.00
C939   C     0.38326   0.83066   0.83252   0.00000  Uiso   1.00
C940   C     0.11674   0.83600   0.83415   0.00000  Uiso   1.00
C941   C     0.40277   0.78204   0.81785   0.00000  Uiso   1.00
C942   C     0.09723   0.88462   0.84881   0.00000  Uiso   1.00
C943   C     0.45003   0.78306   0.81828   0.00000  Uiso   1.00
C944   C     0.04997   0.88361   0.84834   0.00000  Uiso   1.00
C945   C     0.47644   0.83245   0.83303   0.00000  Uiso   1.00
C946   C     0.02355   0.83422   0.83358   0.00000  Uiso   1.00
C947   C     0.45588   0.88017   0.84729   0.00000  Uiso   1.00
C948   C     0.04411   0.78650   0.81932   0.00000  Uiso   1.00
C949   C     0.47170   0.73608   0.80442   0.00000  Uiso   1.00
C950   C     0.02829   0.93059   0.86216   0.00000  Uiso   1.00
Cu951  Cu    0.25500   0.83913   0.89479   0.00000  Uiso   1.00
Cu952  Cu    0.24499   0.82754   0.77187   0.00000  Uiso   1.00
H953   H     0.39360   0.91553   0.85806   0.00000  Uiso   1.00
H954   H     0.10640   0.75114   0.80855   0.00000  Uiso   1.00
H955   H     0.45323   0.69744   0.79296   0.00000  Uiso   1.00
H956   H     0.04676   0.96922   0.87360   0.00000  Uiso   1.00
H957   H     0.03378   0.70108   0.79409   0.00000  Uiso   1.00
H958   H     0.46621   0.96559   0.87247   0.00000  Uiso   1.00
H959   H     0.23019   0.98692   0.76592   0.00000  Uiso   1.00
H960   H     0.26981   0.67975   0.90075   0.00000  Uiso   1.00
N961   N     0.23744   0.81881   0.67951   0.00000  Uiso   1.00
N962   N     0.26255   0.84786   0.98716   0.00000  Uiso   1.00
O963   O     0.25325   0.76204   0.87326   0.00000  Uiso   1.00
O964   O     0.24674   0.90462   0.79341   0.00000  Uiso   1.00
O965   O     0.24480   0.75226   0.76945   0.00000  Uiso   1.00
O966   O     0.25520   0.91441   0.89721   0.00000  Uiso   1.00
O967   O     0.18935   0.83821   0.88524   0.00000  Uiso   1.00
O968   O     0.31064   0.82845   0.78143   0.00000  Uiso   1.00
O969   O     0.18090   0.82843   0.78143   0.00000  Uiso   1.00
O970   O     0.31910   0.83824   0.88523   0.00000  Uiso   1.00
C971   C     0.37393   0.72968   0.80245   0.00000  Uiso   1.00
H972   H     0.38398   0.70540   0.83541   0.00000  Uiso   1.00
H973   H     0.33766   0.73404   0.80391   0.00000  Uiso   1.00
H974   H     0.37818   0.70796   0.75581   0.00000  Uiso   1.00
C975   C     0.12607   0.93699   0.86427   0.00000  Uiso   1.00
H976   H     0.12172   0.95874   0.91086   0.00000  Uiso   1.00
H977   H     0.16236   0.93263   0.86301   0.00000  Uiso   1.00
H978   H     0.11611   0.96123   0.83123   0.00000  Uiso   1.00
C979   C     0.21621   0.76837   0.97909   0.00000  Uiso   1.00
H980   H     0.19279   0.75292   0.67405   0.00000  Uiso   1.00
H981   H     0.19500   0.77138   0.93791   0.00000  Uiso   1.00
H982   H     0.24180   0.73977   0.97044   0.00000  Uiso   1.00
C983   C     0.28379   0.89830   0.68758   0.00000  Uiso   1.00
H984   H     0.30721   0.91375   0.99261   0.00000  Uiso   1.00
H985   H     0.25820   0.92690   0.69623   0.00000  Uiso   1.00
H986   H     0.30500   0.89528   0.72876   0.00000  Uiso   1.00
C987   C     0.74744   0.73341   0.81802   0.00000  Uiso   1.00
C988   C     0.75255   0.93326   0.84864   0.00000  Uiso   1.00
C989   C     0.51813   0.73790   0.80498   0.00000  Uiso   1.00
C990   C     0.98186   0.92877   0.86160   0.00000  Uiso   1.00
C991   C     0.74387   0.67732   0.81008   0.00000  Uiso   1.00
C992   C     0.75613   0.98934   0.85658   0.00000  Uiso   1.00
C993   C     0.66478   0.83393   0.83355   0.00000  Uiso   1.00
C994   C     0.83522   0.83274   0.83312   0.00000  Uiso   1.00
C995   C     0.90954   0.87884   0.84709   0.00000  Uiso   1.00
C996   C     0.59045   0.78783   0.81954   0.00000  Uiso   1.00
C997   C     0.88326   0.83066   0.83252   0.00000  Uiso   1.00
C998   C     0.61674   0.83600   0.83415   0.00000  Uiso   1.00
C999   C     0.90277   0.78204   0.81785   0.00000  Uiso   1.00
C1000  C     0.59723   0.88462   0.84881   0.00000  Uiso   1.00
C1001  C     0.95003   0.78306   0.81828   0.00000  Uiso   1.00
C1002  C     0.54997   0.88361   0.84834   0.00000  Uiso   1.00
C1003  C     0.97644   0.83245   0.83303   0.00000  Uiso   1.00
C1004  C     0.52355   0.83422   0.83358   0.00000  Uiso   1.00
C1005  C     0.95588   0.88017   0.84729   0.00000  Uiso   1.00
C1006  C     0.54411   0.78650   0.81932   0.00000  Uiso   1.00
C1007  C     0.97170   0.73608   0.80442   0.00000  Uiso   1.00
C1008  C     0.52829   0.93059   0.86216   0.00000  Uiso   1.00
Cu1009 Cu    0.75500   0.83913   0.89479   0.00000  Uiso   1.00
Cu1010 Cu    0.74499   0.82754   0.77187   0.00000  Uiso   1.00
H1011  H     0.89360   0.91553   0.85806   0.00000  Uiso   1.00
H1012  H     0.60640   0.75114   0.80855   0.00000  Uiso   1.00
H1013  H     0.95323   0.69744   0.79296   0.00000  Uiso   1.00
H1014  H     0.54676   0.96922   0.87360   0.00000  Uiso   1.00
H1015  H     0.53378   0.70108   0.79409   0.00000  Uiso   1.00
H1016  H     0.96621   0.96559   0.87247   0.00000  Uiso   1.00
H1017  H     0.73019   0.98692   0.76592   0.00000  Uiso   1.00
H1018  H     0.76981   0.67975   0.90075   0.00000  Uiso   1.00
N1019  N     0.73744   0.81881   0.67951   0.00000  Uiso   1.00
N1020  N     0.76255   0.84786   0.98716   0.00000  Uiso   1.00
O1021  O     0.75325   0.76204   0.87326   0.00000  Uiso   1.00
O1022  O     0.74674   0.90462   0.79341   0.00000  Uiso   1.00
O1023  O     0.74480   0.75226   0.76945   0.00000  Uiso   1.00
O1024  O     0.75520   0.91441   0.89721   0.00000  Uiso   1.00
O1025  O     0.68935   0.83821   0.88524   0.00000  Uiso   1.00
O1026  O     0.81064   0.82845   0.78143   0.00000  Uiso   1.00
O1027  O     0.68090   0.82843   0.78143   0.00000  Uiso   1.00
O1028  O     0.81910   0.83824   0.88523   0.00000  Uiso   1.00
C1029  C     0.87393   0.72968   0.80245   0.00000  Uiso   1.00
H1030  H     0.88398   0.70540   0.83541   0.00000  Uiso   1.00
H1031  H     0.83766   0.73404   0.80391   0.00000  Uiso   1.00
H1032  H     0.87818   0.70796   0.75581   0.00000  Uiso   1.00
C1033  C     0.62607   0.93699   0.86427   0.00000  Uiso   1.00
H1034  H     0.62172   0.95874   0.91086   0.00000  Uiso   1.00
H1035  H     0.66236   0.93263   0.86301   0.00000  Uiso   1.00
H1036  H     0.61611   0.96123   0.83123   0.00000  Uiso   1.00
C1037  C     0.71621   0.76837   0.97909   0.00000  Uiso   1.00
H1038  H     0.69279   0.75292   0.67405   0.00000  Uiso   1.00
H1039  H     0.69500   0.77138   0.93791   0.00000  Uiso   1.00
H1040  H     0.74180   0.73977   0.97044   0.00000  Uiso   1.00
C1041  C     0.78379   0.89830   0.68758   0.00000  Uiso   1.00
H1042  H     0.80721   0.91375   0.99261   0.00000  Uiso   1.00
H1043  H     0.75820   0.92690   0.69623   0.00000  Uiso   1.00
H1044  H     0.80500   0.89528   0.72876   0.00000  Uiso   1.00
loop_
_geom_bond_atom_site_label_1
_geom_bond_atom_site_label_2
_geom_bond_distance
_geom_bond_site_symmetry_2
_ccdc_geom_bond_type
C1     C5      1.424   .     S
C1     O37     1.297   .     A
C1     O35     1.302   .     A
C2     O38     1.297   .     A
C2     O36     1.302   .     A
C2     C6      1.424   .     S
C3     C20     1.397   .     A
C3     H29     1.084   .     S
C3     C79     1.389   1_455 S
C4     C19     1.397   .     A
C4     H30     1.084   .     S
C4     C80     1.389   .     S
C5     C238    1.327   1_545 S
C5     H263    1.084   1_545 S
C6     C121    1.327   .     S
C6     H148    1.084   .     S
C7     C12     1.447   .     S
C7     O39     1.304   .     A
C7     O41     1.304   .     A
C8     C11     1.447   .     S
C8     O42     1.304   .     A
C8     O40     1.304   .     A
C9     H25     1.086   .     S
C9     C11     1.393   .     A
C9     C19     1.388   .     A
C10    H26     1.086   .     S
C10    C12     1.393   .     A
C10    C20     1.388   .     A
C11    C13     1.415   .     A
C12    C14     1.415   .     A
C13    C15     1.415   .     A
C13    C43     1.518   .     S
C14    C47     1.518   .     S
C14    C16     1.415   .     A
C15    C21     1.410   .     A
C15    C17     1.420   .     A
C16    C18     1.420   .     A
C16    C22     1.410   .     A
C17    C19     1.410   .     A
C17    C76     1.410   .     S
C18    C20     1.410   .     A
C18    C75     1.410   1_455 S
C21    H27     1.081   .     S
C21    C61     1.389   .     S
C22    H28     1.081   .     S
C22    C62     1.389   1_455 S
Cu23   O38     1.944   .     S
Cu23   O35     1.952   .     S
Cu23   O42     1.957   .     S
Cu23   O39     1.959   .     S
Cu23   Cu24    2.726   .     S
Cu23   N34     2.048   .     S
Cu24   N33     2.048   .     S
Cu24   O37     1.944   .     S
Cu24   O41     1.957   .     S
Cu24   O36     1.952   .     S
Cu24   O40     1.959   .     S
H31    C121    1.084   .     S
H32    C238    1.084   1_545 S
N33    N730    1.295   1_554 S
N33    C747    1.440   1_554 S
N34    N381    1.295   .     S
N34    C403    1.440   .     S
C43    H44     1.111   .     S
C43    H46     1.110   .     S
C43    H45     1.104   .     S
C47    H48     1.110   .     S
C47    H49     1.104   .     S
C47    H50     1.111   .     S
C51    H54     1.105   .     S
C51    H53     1.099   .     S
C51    N381    1.440   .     S
C51    H400    1.108   .     S
H52    C747    1.108   1_554 S
C55    H57     1.105   .     S
C55    H58     1.099   .     S
C55    N730    1.440   1_554 S
C55    H752    1.108   1_554 S
H56    C403    1.108   .     S
C59    C63     1.424   .     S
C59    O95     1.297   .     A
C59    O93     1.302   .     A
C60    O96     1.297   .     A
C60    O94     1.302   .     A
C60    C64     1.424   .     S
C61    C78     1.397   .     A
C61    H87     1.084   .     S
C62    C77     1.397   .     A
C62    H88     1.084   .     S
C62    C22     1.389   1_655 S
C63    C296    1.327   1_545 S
C63    H321    1.084   1_545 S
C64    C179    1.327   .     S
C64    H206    1.084   .     S
C65    C70     1.447   .     S
C65    O97     1.304   .     A
C65    O99     1.304   .     A
C66    C69     1.447   .     S
C66    O100    1.304   .     A
C66    O98     1.304   .     A
C67    H83     1.086   .     S
C67    C69     1.393   .     A
C67    C77     1.388   .     A
C68    H84     1.086   .     S
C68    C70     1.393   .     A
C68    C78     1.388   .     A
C69    C71     1.415   .     A
C70    C72     1.415   .     A
C71    C73     1.415   .     A
C71    C101    1.518   .     S
C72    C105    1.518   .     S
C72    C74     1.415   .     A
C73    C79     1.410   .     A
C73    C75     1.420   .     A
C74    C76     1.420   .     A
C74    C80     1.410   .     A
C75    C77     1.410   .     A
C75    C18     1.410   1_655 S
C76    C78     1.410   .     A
C79    H85     1.081   .     S
C79    C3      1.389   1_655 S
C80    H86     1.081   .     S
Cu81   O96     1.944   .     S
Cu81   O93     1.952   .     S
Cu81   O100    1.957   .     S
Cu81   O97     1.959   .     S
Cu81   Cu82    2.726   .     S
Cu81   N92     2.048   .     S
Cu82   N91     2.048   .     S
Cu82   O95     1.944   .     S
Cu82   O99     1.957   .     S
Cu82   O94     1.952   .     S
Cu82   O98     1.959   .     S
H89    C179    1.084   .     S
H90    C296    1.084   1_545 S
N91    N788    1.295   1_554 S
N91    C805    1.440   1_554 S
N92    N439    1.295   .     S
N92    C461    1.440   .     S
C101   H102    1.111   .     S
C101   H104    1.110   .     S
C101   H103    1.104   .     S
C105   H106    1.110   .     S
C105   H107    1.104   .     S
C105   H108    1.111   .     S
C109   H112    1.105   .     S
C109   H111    1.099   .     S
C109   N439    1.440   .     S
C109   H458    1.108   .     S
H110   C805    1.108   1_554 S
C113   H115    1.105   .     S
C113   H116    1.099   .     S
C113   N788    1.440   1_554 S
C113   H810    1.108   1_554 S
H114   C461    1.108   .     S
C117   C121    1.424   .     S
C117   O153    1.297   .     A
C117   O151    1.302   .     A
C118   O154    1.297   .     A
C118   O152    1.302   .     A
C118   C122    1.424   .     S
C119   C136    1.397   .     A
C119   H145    1.084   .     S
C119   C195    1.389   1_455 S
C120   C135    1.397   .     A
C120   H146    1.084   .     S
C120   C196    1.389   .     S
C122   C237    1.327   .     S
C122   H264    1.084   .     S
C123   C128    1.447   .     S
C123   O155    1.304   .     A
C123   O157    1.304   .     A
C124   C127    1.447   .     S
C124   O158    1.304   .     A
C124   O156    1.304   .     A
C125   H141    1.086   .     S
C125   C127    1.393   .     A
C125   C135    1.388   .     A
C126   H142    1.086   .     S
C126   C128    1.393   .     A
C126   C136    1.388   .     A
C127   C129    1.415   .     A
C128   C130    1.415   .     A
C129   C131    1.415   .     A
C129   C159    1.518   .     S
C130   C163    1.518   .     S
C130   C132    1.415   .     A
C131   C137    1.410   .     A
C131   C133    1.420   .     A
C132   C134    1.420   .     A
C132   C138    1.410   .     A
C133   C135    1.410   .     A
C133   C192    1.410   .     S
C134   C136    1.410   .     A
C134   C191    1.410   1_455 S
C137   H143    1.081   .     S
C137   C177    1.389   .     S
C138   H144    1.081   .     S
C138   C178    1.389   1_455 S
Cu139  O154    1.944   .     S
Cu139  O151    1.952   .     S
Cu139  O158    1.957   .     S
Cu139  O155    1.959   .     S
Cu139  Cu140   2.726   .     S
Cu139  N150    2.048   .     S
Cu140  N149    2.048   .     S
Cu140  O153    1.944   .     S
Cu140  O157    1.957   .     S
Cu140  O152    1.952   .     S
Cu140  O156    1.959   .     S
H147   C237    1.084   .     S
N149   N846    1.295   1_554 S
N149   C863    1.440   1_554 S
N150   N497    1.295   .     S
N150   C519    1.440   .     S
C159   H160    1.111   .     S
C159   H162    1.110   .     S
C159   H161    1.104   .     S
C163   H164    1.110   .     S
C163   H165    1.104   .     S
C163   H166    1.111   .     S
C167   H170    1.105   .     S
C167   H169    1.099   .     S
C167   N497    1.440   .     S
C167   H516    1.108   .     S
H168   C863    1.108   1_554 S
C171   H173    1.105   .     S
C171   H174    1.099   .     S
C171   N846    1.440   1_554 S
C171   H868    1.108   1_554 S
H172   C519    1.108   .     S
C175   C179    1.424   .     S
C175   O211    1.297   .     A
C175   O209    1.302   .     A
C176   O212    1.297   .     A
C176   O210    1.302   .     A
C176   C180    1.424   .     S
C177   C194    1.397   .     A
C177   H203    1.084   .     S
C178   C193    1.397   .     A
C178   H204    1.084   .     S
C178   C138    1.389   1_655 S
C180   C295    1.327   .     S
C180   H322    1.084   .     S
C181   C186    1.447   .     S
C181   O213    1.304   .     A
C181   O215    1.304   .     A
C182   C185    1.447   .     S
C182   O216    1.304   .     A
C182   O214    1.304   .     A
C183   H199    1.086   .     S
C183   C185    1.393   .     A
C183   C193    1.388   .     A
C184   H200    1.086   .     S
C184   C186    1.393   .     A
C184   C194    1.388   .     A
C185   C187    1.415   .     A
C186   C188    1.415   .     A
C187   C189    1.415   .     A
C187   C217    1.518   .     S
C188   C221    1.518   .     S
C188   C190    1.415   .     A
C189   C195    1.410   .     A
C189   C191    1.420   .     A
C190   C192    1.420   .     A
C190   C196    1.410   .     A
C191   C193    1.410   .     A
C191   C134    1.410   1_655 S
C192   C194    1.410   .     A
C195   H201    1.081   .     S
C195   C119    1.389   1_655 S
C196   H202    1.081   .     S
Cu197  O212    1.944   .     S
Cu197  O209    1.952   .     S
Cu197  O216    1.957   .     S
Cu197  O213    1.959   .     S
Cu197  Cu198   2.726   .     S
Cu197  N208    2.048   .     S
Cu198  N207    2.048   .     S
Cu198  O211    1.944   .     S
Cu198  O215    1.957   .     S
Cu198  O210    1.952   .     S
Cu198  O214    1.959   .     S
H205   C295    1.084   .     S
N207   N904    1.295   1_554 S
N207   C921    1.440   1_554 S
N208   N555    1.295   .     S
N208   C577    1.440   .     S
C217   H218    1.111   .     S
C217   H220    1.110   .     S
C217   H219    1.104   .     S
C221   H222    1.110   .     S
C221   H223    1.104   .     S
C221   H224    1.111   .     S
C225   H228    1.105   .     S
C225   H227    1.099   .     S
C225   N555    1.440   .     S
C225   H574    1.108   .     S
H226   C921    1.108   1_554 S
C229   H231    1.105   .     S
C229   H232    1.099   .     S
C229   N904    1.440   1_554 S
C229   H926    1.108   1_554 S
H230   C577    1.108   .     S
C233   C237    1.424   .     S
C233   O269    1.297   .     A
C233   O267    1.302   .     A
C234   O270    1.297   .     A
C234   O268    1.302   .     A
C234   C238    1.424   .     S
C235   C252    1.397   .     A
C235   H261    1.084   .     S
C235   C311    1.389   1_455 S
C236   C251    1.397   .     A
C236   H262    1.084   .     S
C236   C312    1.389   .     S
C238   C5      1.327   1_565 S
C238   H32     1.084   1_565 S
C239   C244    1.447   .     S
C239   O271    1.304   .     A
C239   O273    1.304   .     A
C240   C243    1.447   .     S
C240   O274    1.304   .     A
C240   O272    1.304   .     A
C241   H257    1.086   .     S
C241   C243    1.393   .     A
C241   C251    1.388   .     A
C242   H258    1.086   .     S
C242   C244    1.393   .     A
C242   C252    1.388   .     A
C243   C245    1.415   .     A
C244   C246    1.415   .     A
C245   C247    1.415   .     A
C245   C275    1.518   .     S
C246   C279    1.518   .     S
C246   C248    1.415   .     A
C247   C253    1.410   .     A
C247   C249    1.420   .     A
C248   C250    1.420   .     A
C248   C254    1.410   .     A
C249   C251    1.410   .     A
C249   C308    1.410   .     S
C250   C252    1.410   .     A
C250   C307    1.410   1_455 S
C253   H259    1.081   .     S
C253   C293    1.389   .     S
C254   H260    1.081   .     S
C254   C294    1.389   1_455 S
Cu255  O270    1.944   .     S
Cu255  O267    1.952   .     S
Cu255  O274    1.957   .     S
Cu255  O271    1.959   .     S
Cu255  Cu256   2.726   .     S
Cu255  N266    2.048   .     S
Cu256  N265    2.048   .     S
Cu256  O269    1.944   .     S
Cu256  O273    1.957   .     S
Cu256  O268    1.952   .     S
Cu256  O272    1.959   .     S
H263   C5      1.084   1_565 S
N265   N962    1.295   1_554 S
N265   C979    1.440   1_554 S
N266   N613    1.295   .     S
N266   C635    1.440   .     S
C275   H276    1.111   .     S
C275   H278    1.110   .     S
C275   H277    1.104   .     S
C279   H280    1.110   .     S
C279   H281    1.104   .     S
C279   H282    1.111   .     S
C283   H286    1.105   .     S
C283   H285    1.099   .     S
C283   N613    1.440   .     S
C283   H632    1.108   .     S
H284   C979    1.108   1_554 S
C287   H289    1.105   .     S
C287   H290    1.099   .     S
C287   N962    1.440   1_554 S
C287   H984    1.108   1_554 S
H288   C635    1.108   .     S
C291   C295    1.424   .     S
C291   O327    1.297   .     A
C291   O325    1.302   .     A
C292   O328    1.297   .     A
C292   O326    1.302   .     A
C292   C296    1.424   .     S
C293   C310    1.397   .     A
C293   H319    1.084   .     S
C294   C309    1.397   .     A
C294   H320    1.084   .     S
C294   C254    1.389   1_655 S
C296   C63     1.327   1_565 S
C296   H90     1.084   1_565 S
C297   C302    1.447   .     S
C297   O329    1.304   .     A
C297   O331    1.304   .     A
C298   C301    1.447   .     S
C298   O332    1.304   .     A
C298   O330    1.304   .     A
C299   H315    1.086   .     S
C299   C301    1.393   .     A
C299   C309    1.388   .     A
C300   H316    1.086   .     S
C300   C302    1.393   .     A
C300   C310    1.388   .     A
C301   C303    1.415   .     A
C302   C304    1.415   .     A
C303   C305    1.415   .     A
C303   C333    1.518   .     S
C304   C337    1.518   .     S
C304   C306    1.415   .     A
C305   C311    1.410   .     A
C305   C307    1.420   .     A
C306   C308    1.420   .     A
C306   C312    1.410   .     A
C307   C309    1.410   .     A
C307   C250    1.410   1_655 S
C308   C310    1.410   .     A
C311   H317    1.081   .     S
C311   C235    1.389   1_655 S
C312   H318    1.081   .     S
Cu313  O328    1.944   .     S
Cu313  O325    1.952   .     S
Cu313  O332    1.957   .     S
Cu313  O329    1.959   .     S
Cu313  Cu314   2.726   .     S
Cu313  N324    2.048   .     S
Cu314  N323    2.048   .     S
Cu314  O327    1.944   .     S
Cu314  O331    1.957   .     S
Cu314  O326    1.952   .     S
Cu314  O330    1.959   .     S
H321   C63     1.084   1_565 S
N323   N1020   1.295   1_554 S
N323   C1037   1.440   1_554 S
N324   N671    1.295   .     S
N324   C693    1.440   .     S
C333   H334    1.111   .     S
C333   H336    1.110   .     S
C333   H335    1.104   .     S
C337   H338    1.110   .     S
C337   H339    1.104   .     S
C337   H340    1.111   .     S
C341   H344    1.105   .     S
C341   H343    1.099   .     S
C341   N671    1.440   .     S
C341   H690    1.108   .     S
H342   C1037   1.108   1_554 S
C345   H347    1.105   .     S
C345   H348    1.099   .     S
C345   N1020   1.440   1_554 S
C345   H1042   1.108   1_554 S
H346   C693    1.108   .     S
C349   C353    1.424   .     S
C349   O385    1.297   .     A
C349   O383    1.302   .     A
C350   O386    1.297   .     A
C350   O384    1.302   .     A
C350   C354    1.424   .     S
C351   C368    1.397   .     A
C351   H377    1.084   .     S
C351   C427    1.389   1_455 S
C352   C367    1.397   .     A
C352   H378    1.084   .     S
C352   C428    1.389   .     S
C353   C586    1.327   1_545 S
C353   H611    1.084   1_545 S
C354   C469    1.327   .     S
C354   H496    1.084   .     S
C355   C360    1.447   .     S
C355   O387    1.304   .     A
C355   O389    1.304   .     A
C356   C359    1.447   .     S
C356   O390    1.304   .     A
C356   O388    1.304   .     A
C357   H373    1.086   .     S
C357   C359    1.393   .     A
C357   C367    1.388   .     A
C358   H374    1.086   .     S
C358   C360    1.393   .     A
C358   C368    1.388   .     A
C359   C361    1.415   .     A
C360   C362    1.415   .     A
C361   C363    1.415   .     A
C361   C391    1.518   .     S
C362   C395    1.518   .     S
C362   C364    1.415   .     A
C363   C369    1.410   .     A
C363   C365    1.420   .     A
C364   C366    1.420   .     A
C364   C370    1.410   .     A
C365   C367    1.410   .     A
C365   C424    1.410   .     S
C366   C368    1.410   .     A
C366   C423    1.410   1_455 S
C369   H375    1.081   .     S
C369   C409    1.389   .     S
C370   H376    1.081   .     S
C370   C410    1.389   1_455 S
Cu371  O386    1.944   .     S
Cu371  O383    1.952   .     S
Cu371  O390    1.957   .     S
Cu371  O387    1.959   .     S
Cu371  Cu372   2.726   .     S
Cu371  N382    2.048   .     S
Cu372  N381    2.048   .     S
Cu372  O385    1.944   .     S
Cu372  O389    1.957   .     S
Cu372  O384    1.952   .     S
Cu372  O388    1.959   .     S
H379   C469    1.084   .     S
H380   C586    1.084   1_545 S
N382   N729    1.295   .     S
N382   C751    1.440   .     S
C391   H392    1.111   .     S
C391   H394    1.110   .     S
C391   H393    1.104   .     S
C395   H396    1.110   .     S
C395   H397    1.104   .     S
C395   H398    1.111   .     S
C399   H402    1.105   .     S
C399   H401    1.099   .     S
C399   N729    1.440   .     S
C399   H748    1.108   .     S
C403   H405    1.105   .     S
C403   H406    1.099   .     S
H404   C751    1.108   .     S
C407   C411    1.424   .     S
C407   O443    1.297   .     A
C407   O441    1.302   .     A
C408   O444    1.297   .     A
C408   O442    1.302   .     A
C408   C412    1.424   .     S
C409   C426    1.397   .     A
C409   H435    1.084   .     S
C410   C425    1.397   .     A
C410   H436    1.084   .     S
C410   C370    1.389   1_655 S
C411   C644    1.327   1_545 S
C411   H669    1.084   1_545 S
C412   C527    1.327   .     S
C412   H554    1.084   .     S
C413   C418    1.447   .     S
C413   O445    1.304   .     A
C413   O447    1.304   .     A
C414   C417    1.447   .     S
C414   O448    1.304   .     A
C414   O446    1.304   .     A
C415   H431    1.086   .     S
C415   C417    1.393   .     A
C415   C425    1.388   .     A
C416   H432    1.086   .     S
C416   C418    1.393   .     A
C416   C426    1.388   .     A
C417   C419    1.415   .     A
C418   C420    1.415   .     A
C419   C421    1.415   .     A
C419   C449    1.518   .     S
C420   C453    1.518   .     S
C420   C422    1.415   .     A
C421   C427    1.410   .     A
C421   C423    1.420   .     A
C422   C424    1.420   .     A
C422   C428    1.410   .     A
C423   C425    1.410   .     A
C423   C366    1.410   1_655 S
C424   C426    1.410   .     A
C427   H433    1.081   .     S
C427   C351    1.389   1_655 S
C428   H434    1.081   .     S
Cu429  O444    1.944   .     S
Cu429  O441    1.952   .     S
Cu429  O448    1.957   .     S
Cu429  O445    1.959   .     S
Cu429  Cu430   2.726   .     S
Cu429  N440    2.048   .     S
Cu430  N439    2.048   .     S
Cu430  O443    1.944   .     S
Cu430  O447    1.957   .     S
Cu430  O442    1.952   .     S
Cu430  O446    1.959   .     S
H437   C527    1.084   .     S
H438   C644    1.084   1_545 S
N440   N787    1.295   .     S
N440   C809    1.440   .     S
C449   H450    1.111   .     S
C449   H452    1.110   .     S
C449   H451    1.104   .     S
C453   H454    1.110   .     S
C453   H455    1.104   .     S
C453   H456    1.111   .     S
C457   H460    1.105   .     S
C457   H459    1.099   .     S
C457   N787    1.440   .     S
C457   H806    1.108   .     S
C461   H463    1.105   .     S
C461   H464    1.099   .     S
H462   C809    1.108   .     S
C465   C469    1.424   .     S
C465   O501    1.297   .     A
C465   O499    1.302   .     A
C466   O502    1.297   .     A
C466   O500    1.302   .     A
C466   C470    1.424   .     S
C467   C484    1.397   .     A
C467   H493    1.084   .     S
C467   C543    1.389   1_455 S
C468   C483    1.397   .     A
C468   H494    1.084   .     S
C468   C544    1.389   .     S
C470   C585    1.327   .     S
C470   H612    1.084   .     S
C471   C476    1.447   .     S
C471   O503    1.304   .     A
C471   O505    1.304   .     A
C472   C475    1.447   .     S
C472   O506    1.304   .     A
C472   O504    1.304   .     A
C473   H489    1.086   .     S
C473   C475    1.393   .     A
C473   C483    1.388   .     A
C474   H490    1.086   .     S
C474   C476    1.393   .     A
C474   C484    1.388   .     A
C475   C477    1.415   .     A
C476   C478    1.415   .     A
C477   C479    1.415   .     A
C477   C507    1.518   .     S
C478   C511    1.518   .     S
C478   C480    1.415   .     A
C479   C485    1.410   .     A
C479   C481    1.420   .     A
C480   C482    1.420   .     A
C480   C486    1.410   .     A
C481   C483    1.410   .     A
C481   C540    1.410   .     S
C482   C484    1.410   .     A
C482   C539    1.410   1_455 S
C485   H491    1.081   .     S
C485   C525    1.389   .     S
C486   H492    1.081   .     S
C486   C526    1.389   1_455 S
Cu487  O502    1.944   .     S
Cu487  O499    1.952   .     S
Cu487  O506    1.957   .     S
Cu487  O503    1.959   .     S
Cu487  Cu488   2.726   .     S
Cu487  N498    2.048   .     S
Cu488  N497    2.048   .     S
Cu488  O501    1.944   .     S
Cu488  O505    1.957   .     S
Cu488  O500    1.952   .     S
Cu488  O504    1.959   .     S
H495   C585    1.084   .     S
N498   N845    1.295   .     S
N498   C867    1.440   .     S
C507   H508    1.111   .     S
C507   H510    1.110   .     S
C507   H509    1.104   .     S
C511   H512    1.110   .     S
C511   H513    1.104   .     S
C511   H514    1.111   .     S
C515   H518    1.105   .     S
C515   H517    1.099   .     S
C515   N845    1.440   .     S
C515   H864    1.108   .     S
C519   H521    1.105   .     S
C519   H522    1.099   .     S
H520   C867    1.108   .     S
C523   C527    1.424   .     S
C523   O559    1.297   .     A
C523   O557    1.302   .     A
C524   O560    1.297   .     A
C524   O558    1.302   .     A
C524   C528    1.424   .     S
C525   C542    1.397   .     A
C525   H551    1.084   .     S
C526   C541    1.397   .     A
C526   H552    1.084   .     S
C526   C486    1.389   1_655 S
C528   C643    1.327   .     S
C528   H670    1.084   .     S
C529   C534    1.447   .     S
C529   O561    1.304   .     A
C529   O563    1.304   .     A
C530   C533    1.447   .     S
C530   O564    1.304   .     A
C530   O562    1.304   .     A
C531   H547    1.086   .     S
C531   C533    1.393   .     A
C531   C541    1.388   .     A
C532   H548    1.086   .     S
C532   C534    1.393   .     A
C532   C542    1.388   .     A
C533   C535    1.415   .     A
C534   C536    1.415   .     A
C535   C537    1.415   .     A
C535   C565    1.518   .     S
C536   C569    1.518   .     S
C536   C538    1.415   .     A
C537   C543    1.410   .     A
C537   C539    1.420   .     A
C538   C540    1.420   .     A
C538   C544    1.410   .     A
C539   C541    1.410   .     A
C539   C482    1.410   1_655 S
C540   C542    1.410   .     A
C543   H549    1.081   .     S
C543   C467    1.389   1_655 S
C544   H550    1.081   .     S
Cu545  O560    1.944   .     S
Cu545  O557    1.952   .     S
Cu545  O564    1.957   .     S
Cu545  O561    1.959   .     S
Cu545  Cu546   2.726   .     S
Cu545  N556    2.048   .     S
Cu546  N555    2.048   .     S
Cu546  O559    1.944   .     S
Cu546  O563    1.957   .     S
Cu546  O558    1.952   .     S
Cu546  O562    1.959   .     S
H553   C643    1.084   .     S
N556   N903    1.295   .     S
N556   C925    1.440   .     S
C565   H566    1.111   .     S
C565   H568    1.110   .     S
C565   H567    1.104   .     S
C569   H570    1.110   .     S
C569   H571    1.104   .     S
C569   H572    1.111   .     S
C573   H576    1.105   .     S
C573   H575    1.099   .     S
C573   N903    1.440   .     S
C573   H922    1.108   .     S
C577   H579    1.105   .     S
C577   H580    1.099   .     S
H578   C925    1.108   .     S
C581   C585    1.424   .     S
C581   O617    1.297   .     A
C581   O615    1.302   .     A
C582   O618    1.297   .     A
C582   O616    1.302   .     A
C582   C586    1.424   .     S
C583   C600    1.397   .     A
C583   H609    1.084   .     S
C583   C659    1.389   1_455 S
C584   C599    1.397   .     A
C584   H610    1.084   .     S
C584   C660    1.389   .     S
C586   C353    1.327   1_565 S
C586   H380    1.084   1_565 S
C587   C592    1.447   .     S
C587   O619    1.304   .     A
C587   O621    1.304   .     A
C588   C591    1.447   .     S
C588   O622    1.304   .     A
C588   O620    1.304   .     A
C589   H605    1.086   .     S
C589   C591    1.393   .     A
C589   C599    1.388   .     A
C590   H606    1.086   .     S
C590   C592    1.393   .     A
C590   C600    1.388   .     A
C591   C593    1.415   .     A
C592   C594    1.415   .     A
C593   C595    1.415   .     A
C593   C623    1.518   .     S
C594   C627    1.518   .     S
C594   C596    1.415   .     A
C595   C601    1.410   .     A
C595   C597    1.420   .     A
C596   C598    1.420   .     A
C596   C602    1.410   .     A
C597   C599    1.410   .     A
C597   C656    1.410   .     S
C598   C600    1.410   .     A
C598   C655    1.410   1_455 S
C601   H607    1.081   .     S
C601   C641    1.389   .     S
C602   H608    1.081   .     S
C602   C642    1.389   1_455 S
Cu603  O618    1.944   .     S
Cu603  O615    1.952   .     S
Cu603  O622    1.957   .     S
Cu603  O619    1.959   .     S
Cu603  Cu604   2.726   .     S
Cu603  N614    2.048   .     S
Cu604  N613    2.048   .     S
Cu604  O617    1.944   .     S
Cu604  O621    1.957   .     S
Cu604  O616    1.952   .     S
Cu604  O620    1.959   .     S
H611   C353    1.084   1_565 S
N614   N961    1.295   .     S
N614   C983    1.440   .     S
C623   H624    1.111   .     S
C623   H626    1.110   .     S
C623   H625    1.104   .     S
C627   H628    1.110   .     S
C627   H629    1.104   .     S
C627   H630    1.111   .     S
C631   H634    1.105   .     S
C631   H633    1.099   .     S
C631   N961    1.440   .     S
C631   H980    1.108   .     S
C635   H637    1.105   .     S
C635   H638    1.099   .     S
H636   C983    1.108   .     S
C639   C643    1.424   .     S
C639   O675    1.297   .     A
C639   O673    1.302   .     A
C640   O676    1.297   .     A
C640   O674    1.302   .     A
C640   C644    1.424   .     S
C641   C658    1.397   .     A
C641   H667    1.084   .     S
C642   C657    1.397   .     A
C642   H668    1.084   .     S
C642   C602    1.389   1_655 S
C644   C411    1.327   1_565 S
C644   H438    1.084   1_565 S
C645   C650    1.447   .     S
C645   O677    1.304   .     A
C645   O679    1.304   .     A
C646   C649    1.447   .     S
C646   O680    1.304   .     A
C646   O678    1.304   .     A
C647   H663    1.086   .     S
C647   C649    1.393   .     A
C647   C657    1.388   .     A
C648   H664    1.086   .     S
C648   C650    1.393   .     A
C648   C658    1.388   .     A
C649   C651    1.415   .     A
C650   C652    1.415   .     A
C651   C653    1.415   .     A
C651   C681    1.518   .     S
C652   C685    1.518   .     S
C652   C654    1.415   .     A
C653   C659    1.410   .     A
C653   C655    1.420   .     A
C654   C656    1.420   .     A
C654   C660    1.410   .     A
C655   C657    1.410   .     A
C655   C598    1.410   1_655 S
C656   C658    1.410   .     A
C659   H665    1.081   .     S
C659   C583    1.389   1_655 S
C660   H666    1.081   .     S
Cu661  O676    1.944   .     S
Cu661  O673    1.952   .     S
Cu661  O680    1.957   .     S
Cu661  O677    1.959   .     S
Cu661  Cu662   2.726   .     S
Cu661  N672    2.048   .     S
Cu662  N671    2.048   .     S
Cu662  O675    1.944   .     S
Cu662  O679    1.957   .     S
Cu662  O674    1.952   .     S
Cu662  O678    1.959   .     S
H669   C411    1.084   1_565 S
N672   N1019   1.295   .     S
N672   C1041   1.440   .     S
C681   H682    1.111   .     S
C681   H684    1.110   .     S
C681   H683    1.104   .     S
C685   H686    1.110   .     S
C685   H687    1.104   .     S
C685   H688    1.111   .     S
C689   H692    1.105   .     S
C689   H691    1.099   .     S
C689   N1019   1.440   .     S
C689   H1038   1.108   .     S
C693   H695    1.105   .     S
C693   H696    1.099   .     S
H694   C1041   1.108   .     S
C697   C701    1.424   .     S
C697   O733    1.297   .     A
C697   O731    1.302   .     A
C698   O734    1.297   .     A
C698   O732    1.302   .     A
C698   C702    1.424   .     S
C699   C716    1.397   .     A
C699   H725    1.084   .     S
C699   C775    1.389   1_455 S
C700   C715    1.397   .     A
C700   H726    1.084   .     S
C700   C776    1.389   .     S
C701   C934    1.327   1_545 S
C701   H959    1.084   1_545 S
C702   C817    1.327   .     S
C702   H844    1.084   .     S
C703   C708    1.447   .     S
C703   O735    1.304   .     A
C703   O737    1.304   .     A
C704   C707    1.447   .     S
C704   O738    1.304   .     A
C704   O736    1.304   .     A
C705   H721    1.086   .     S
C705   C707    1.393   .     A
C705   C715    1.388   .     A
C706   H722    1.086   .     S
C706   C708    1.393   .     A
C706   C716    1.388   .     A
C707   C709    1.415   .     A
C708   C710    1.415   .     A
C709   C711    1.415   .     A
C709   C739    1.518   .     S
C710   C743    1.518   .     S
C710   C712    1.415   .     A
C711   C717    1.410   .     A
C711   C713    1.420   .     A
C712   C714    1.420   .     A
C712   C718    1.410   .     A
C713   C715    1.410   .     A
C713   C772    1.410   .     S
C714   C716    1.410   .     A
C714   C771    1.410   1_455 S
C717   H723    1.081   .     S
C717   C757    1.389   .     S
C718   H724    1.081   .     S
C718   C758    1.389   1_455 S
Cu719  O734    1.944   .     S
Cu719  O731    1.952   .     S
Cu719  O738    1.957   .     S
Cu719  O735    1.959   .     S
Cu719  Cu720   2.726   .     S
Cu719  N730    2.048   .     S
Cu720  N729    2.048   .     S
Cu720  O733    1.944   .     S
Cu720  O737    1.957   .     S
Cu720  O732    1.952   .     S
Cu720  O736    1.959   .     S
H727   C817    1.084   .     S
H728   C934    1.084   1_545 S
N730   N33     1.295   1_556 S
N730   C55     1.440   1_556 S
C739   H740    1.111   .     S
C739   H742    1.110   .     S
C739   H741    1.104   .     S
C743   H744    1.110   .     S
C743   H745    1.104   .     S
C743   H746    1.111   .     S
C747   H750    1.105   .     S
C747   H749    1.099   .     S
C747   N33     1.440   1_556 S
C747   H52     1.108   1_556 S
C751   H753    1.105   .     S
C751   H754    1.099   .     S
H752   C55     1.108   1_556 S
C755   C759    1.424   .     S
C755   O791    1.297   .     A
C755   O789    1.302   .     A
C756   O792    1.297   .     A
C756   O790    1.302   .     A
C756   C760    1.424   .     S
C757   C774    1.397   .     A
C757   H783    1.084   .     S
C758   C773    1.397   .     A
C758   H784    1.084   .     S
C758   C718    1.389   1_655 S
C759   C992    1.327   1_545 S
C759   H1017   1.084   1_545 S
C760   C875    1.327   .     S
C760   H902    1.084   .     S
C761   C766    1.447   .     S
C761   O793    1.304   .     A
C761   O795    1.304   .     A
C762   C765    1.447   .     S
C762   O796    1.304   .     A
C762   O794    1.304   .     A
C763   H779    1.086   .     S
C763   C765    1.393   .     A
C763   C773    1.388   .     A
C764   H780    1.086   .     S
C764   C766    1.393   .     A
C764   C774    1.388   .     A
C765   C767    1.415   .     A
C766   C768    1.415   .     A
C767   C769    1.415   .     A
C767   C797    1.518   .     S
C768   C801    1.518   .     S
C768   C770    1.415   .     A
C769   C775    1.410   .     A
C769   C771    1.420   .     A
C770   C772    1.420   .     A
C770   C776    1.410   .     A
C771   C773    1.410   .     A
C771   C714    1.410   1_655 S
C772   C774    1.410   .     A
C775   H781    1.081   .     S
C775   C699    1.389   1_655 S
C776   H782    1.081   .     S
Cu777  O792    1.944   .     S
Cu777  O789    1.952   .     S
Cu777  O796    1.957   .     S
Cu777  O793    1.959   .     S
Cu777  Cu778   2.726   .     S
Cu777  N788    2.048   .     S
Cu778  N787    2.048   .     S
Cu778  O791    1.944   .     S
Cu778  O795    1.957   .     S
Cu778  O790    1.952   .     S
Cu778  O794    1.959   .     S
H785   C875    1.084   .     S
H786   C992    1.084   1_545 S
N788   N91     1.295   1_556 S
N788   C113    1.440   1_556 S
C797   H798    1.111   .     S
C797   H800    1.110   .     S
C797   H799    1.104   .     S
C801   H802    1.110   .     S
C801   H803    1.104   .     S
C801   H804    1.111   .     S
C805   H808    1.105   .     S
C805   H807    1.099   .     S
C805   N91     1.440   1_556 S
C805   H110    1.108   1_556 S
C809   H811    1.105   .     S
C809   H812    1.099   .     S
H810   C113    1.108   1_556 S
C813   C817    1.424   .     S
C813   O849    1.297   .     A
C813   O847    1.302   .     A
C814   O850    1.297   .     A
C814   O848    1.302   .     A
C814   C818    1.424   .     S
C815   C832    1.397   .     A
C815   H841    1.084   .     S
C815   C891    1.389   1_455 S
C816   C831    1.397   .     A
C816   H842    1.084   .     S
C816   C892    1.389   .     S
C818   C933    1.327   .     S
C818   H960    1.084   .     S
C819   C824    1.447   .     S
C819   O851    1.304   .     A
C819   O853    1.304   .     A
C820   C823    1.447   .     S
C820   O854    1.304   .     A
C820   O852    1.304   .     A
C821   H837    1.086   .     S
C821   C823    1.393   .     A
C821   C831    1.388   .     A
C822   H838    1.086   .     S
C822   C824    1.393   .     A
C822   C832    1.388   .     A
C823   C825    1.415   .     A
C824   C826    1.415   .     A
C825   C827    1.415   .     A
C825   C855    1.518   .     S
C826   C859    1.518   .     S
C826   C828    1.415   .     A
C827   C833    1.410   .     A
C827   C829    1.420   .     A
C828   C830    1.420   .     A
C828   C834    1.410   .     A
C829   C831    1.410   .     A
C829   C888    1.410   .     S
C830   C832    1.410   .     A
C830   C887    1.410   1_455 S
C833   H839    1.081   .     S
C833   C873    1.389   .     S
C834   H840    1.081   .     S
C834   C874    1.389   1_455 S
Cu835  O850    1.944   .     S
Cu835  O847    1.952   .     S
Cu835  O854    1.957   .     S
Cu835  O851    1.959   .     S
Cu835  Cu836   2.726   .     S
Cu835  N846    2.048   .     S
Cu836  N845    2.048   .     S
Cu836  O849    1.944   .     S
Cu836  O853    1.957   .     S
Cu836  O848    1.952   .     S
Cu836  O852    1.959   .     S
H843   C933    1.084   .     S
N846   N149    1.295   1_556 S
N846   C171    1.440   1_556 S
C855   H856    1.111   .     S
C855   H858    1.110   .     S
C855   H857    1.104   .     S
C859   H860    1.110   .     S
C859   H861    1.104   .     S
C859   H862    1.111   .     S
C863   H866    1.105   .     S
C863   H865    1.099   .     S
C863   N149    1.440   1_556 S
C863   H168    1.108   1_556 S
C867   H869    1.105   .     S
C867   H870    1.099   .     S
H868   C171    1.108   1_556 S
C871   C875    1.424   .     S
C871   O907    1.297   .     A
C871   O905    1.302   .     A
C872   O908    1.297   .     A
C872   O906    1.302   .     A
C872   C876    1.424   .     S
C873   C890    1.397   .     A
C873   H899    1.084   .     S
C874   C889    1.397   .     A
C874   H900    1.084   .     S
C874   C834    1.389   1_655 S
C876   C991    1.327   .     S
C876   H1018   1.084   .     S
C877   C882    1.447   .     S
C877   O909    1.304   .     A
C877   O911    1.304   .     A
C878   C881    1.447   .     S
C878   O912    1.304   .     A
C878   O910    1.304   .     A
C879   H895    1.086   .     S
C879   C881    1.393   .     A
C879   C889    1.388   .     A
C880   H896    1.086   .     S
C880   C882    1.393   .     A
C880   C890    1.388   .     A
C881   C883    1.415   .     A
C882   C884    1.415   .     A
C883   C885    1.415   .     A
C883   C913    1.518   .     S
C884   C917    1.518   .     S
C884   C886    1.415   .     A
C885   C891    1.410   .     A
C885   C887    1.420   .     A
C886   C888    1.420   .     A
C886   C892    1.410   .     A
C887   C889    1.410   .     A
C887   C830    1.410   1_655 S
C888   C890    1.410   .     A
C891   H897    1.081   .     S
C891   C815    1.389   1_655 S
C892   H898    1.081   .     S
Cu893  O908    1.944   .     S
Cu893  O905    1.952   .     S
Cu893  O912    1.957   .     S
Cu893  O909    1.959   .     S
Cu893  Cu894   2.726   .     S
Cu893  N904    2.048   .     S
Cu894  N903    2.048   .     S
Cu894  O907    1.944   .     S
Cu894  O911    1.957   .     S
Cu894  O906    1.952   .     S
Cu894  O910    1.959   .     S
H901   C991    1.084   .     S
N904   N207    1.295   1_556 S
N904   C229    1.440   1_556 S
C913   H914    1.111   .     S
C913   H916    1.110   .     S
C913   H915    1.104   .     S
C917   H918    1.110   .     S
C917   H919    1.104   .     S
C917   H920    1.111   .     S
C921   H924    1.105   .     S
C921   H923    1.099   .     S
C921   N207    1.440   1_556 S
C921   H226    1.108   1_556 S
C925   H927    1.105   .     S
C925   H928    1.099   .     S
H926   C229    1.108   1_556 S
C929   C933    1.424   .     S
C929   O965    1.297   .     A
C929   O963    1.302   .     A
C930   O966    1.297   .     A
C930   O964    1.302   .     A
C930   C934    1.424   .     S
C931   C948    1.397   .     A
C931   H957    1.084   .     S
C931   C1007   1.389   1_455 S
C932   C947    1.397   .     A
C932   H958    1.084   .     S
C932   C1008   1.389   .     S
C934   C701    1.327   1_565 S
C934   H728    1.084   1_565 S
C935   C940    1.447   .     S
C935   O967    1.304   .     A
C935   O969    1.304   .     A
C936   C939    1.447   .     S
C936   O970    1.304   .     A
C936   O968    1.304   .     A
C937   H953    1.086   .     S
C937   C939    1.393   .     A
C937   C947    1.388   .     A
C938   H954    1.086   .     S
C938   C940    1.393   .     A
C938   C948    1.388   .     A
C939   C941    1.415   .     A
C940   C942    1.415   .     A
C941   C943    1.415   .     A
C941   C971    1.518   .     S
C942   C975    1.518   .     S
C942   C944    1.415   .     A
C943   C949    1.410   .     A
C943   C945    1.420   .     A
C944   C946    1.420   .     A
C944   C950    1.410   .     A
C945   C947    1.410   .     A
C945   C1004   1.410   .     S
C946   C948    1.410   .     A
C946   C1003   1.410   1_455 S
C949   H955    1.081   .     S
C949   C989    1.389   .     S
C950   H956    1.081   .     S
C950   C990    1.389   1_455 S
Cu951  O966    1.944   .     S
Cu951  O963    1.952   .     S
Cu951  O970    1.957   .     S
Cu951  O967    1.959   .     S
Cu951  Cu952   2.726   .     S
Cu951  N962    2.048   .     S
Cu952  N961    2.048   .     S
Cu952  O965    1.944   .     S
Cu952  O969    1.957   .     S
Cu952  O964    1.952   .     S
Cu952  O968    1.959   .     S
H959   C701    1.084   1_565 S
N962   N265    1.295   1_556 S
N962   C287    1.440   1_556 S
C971   H972    1.111   .     S
C971   H974    1.110   .     S
C971   H973    1.104   .     S
C975   H976    1.110   .     S
C975   H977    1.104   .     S
C975   H978    1.111   .     S
C979   H982    1.105   .     S
C979   H981    1.099   .     S
C979   N265    1.440   1_556 S
C979   H284    1.108   1_556 S
C983   H985    1.105   .     S
C983   H986    1.099   .     S
H984   C287    1.108   1_556 S
C987   C991    1.424   .     S
C987   O1023   1.297   .     A
C987   O1021   1.302   .     A
C988   O1024   1.297   .     A
C988   O1022   1.302   .     A
C988   C992    1.424   .     S
C989   C1006   1.397   .     A
C989   H1015   1.084   .     S
C990   C1005   1.397   .     A
C990   H1016   1.084   .     S
C990   C950    1.389   1_655 S
C992   C759    1.327   1_565 S
C992   H786    1.084   1_565 S
C993   C998    1.447   .     S
C993   O1025   1.304   .     A
C993   O1027   1.304   .     A
C994   C997    1.447   .     S
C994   O1028   1.304   .     A
C994   O1026   1.304   .     A
C995   H1011   1.086   .     S
C995   C997    1.393   .     A
C995   C1005   1.388   .     A
C996   H1012   1.086   .     S
C996   C998    1.393   .     A
C996   C1006   1.388   .     A
C997   C999    1.415   .     A
C998   C1000   1.415   .     A
C999   C1001   1.415   .     A
C999   C1029   1.518   .     S
C1000  C1033   1.518   .     S
C1000  C1002   1.415   .     A
C1001  C1007   1.410   .     A
C1001  C1003   1.420   .     A
C1002  C1004   1.420   .     A
C1002  C1008   1.410   .     A
C1003  C1005   1.410   .     A
C1003  C946    1.410   1_655 S
C1004  C1006   1.410   .     A
C1007  H1013   1.081   .     S
C1007  C931    1.389   1_655 S
C1008  H1014   1.081   .     S
Cu1009 O1024   1.944   .     S
Cu1009 O1021   1.952   .     S
Cu1009 O1028   1.957   .     S
Cu1009 O1025   1.959   .     S
Cu1009 Cu1010  2.726   .     S
Cu1009 N1020   2.048   .     S
Cu1010 N1019   2.048   .     S
Cu1010 O1023   1.944   .     S
Cu1010 O1027   1.957   .     S
Cu1010 O1022   1.952   .     S
Cu1010 O1026   1.959   .     S
H1017  C759    1.084   1_565 S
N1020  N323    1.295   1_556 S
N1020  C345    1.440   1_556 S
C1029  H1030   1.111   .     S
C1029  H1032   1.110   .     S
C1029  H1031   1.104   .     S
C1033  H1034   1.110   .     S
C1033  H1035   1.104   .     S
C1033  H1036   1.111   .     S
C1037  H1040   1.105   .     S
C1037  H1039   1.099   .     S
C1037  N323    1.440   1_556 S
C1037  H342    1.108   1_556 S
C1041  H1043   1.105   .     S
C1041  H1044   1.099   .     S
H1042  C345    1.108   1_556 S
