data_str_m2_o10_o18_pcu_sym.155
_audit_creation_date              2020-01-03
_audit_creation_method            'Materials Studio'
_symmetry_space_group_name_H-M    'P1'
_symmetry_Int_Tables_number       1
_symmetry_cell_setting            triclinic
loop_
_symmetry_equiv_pos_as_xyz
  x,y,z
_cell_length_a                    22.5704
_cell_length_b                    26.1652
_cell_length_c                    31.6354
_cell_angle_alpha                 94.0285
_cell_angle_beta                  75.5446
_cell_angle_gamma                 100.9440
loop_
_atom_site_label
_atom_site_type_symbol
_atom_site_fract_x
_atom_site_fract_y
_atom_site_fract_z
_atom_site_U_iso_or_equiv
_atom_site_adp_type
_atom_site_occupancy
C1     C     0.18036   0.26624   0.25241   0.00000  Uiso   1.00
C2     C     0.15298   0.06709   0.24759   0.00000  Uiso   1.00
C3     C     0.10170   0.12442   0.03726   0.00000  Uiso   1.00
C4     C     0.23164   0.20892   0.46274   0.00000  Uiso   1.00
C5     C     0.05609   0.11814   0.01417   0.00000  Uiso   1.00
C6     C     0.27724   0.21521   0.48583   0.00000  Uiso   1.00
C7     C     0.18633   0.32165   0.25634   0.00000  Uiso   1.00
C8     C     0.14700   0.01168   0.24367   0.00000  Uiso   1.00
C9     C     0.12798   0.16064   0.33301   0.00000  Uiso   1.00
C10    C     0.20536   0.17270   0.16699   0.00000  Uiso   1.00
C11    C     0.10419   0.15256   0.38084   0.00000  Uiso   1.00
C12    C     0.22914   0.18078   0.11916   0.00000  Uiso   1.00
C13    C     0.02480   0.12247   0.44641   0.00000  Uiso   1.00
C14    C     0.30853   0.21088   0.05360   0.00000  Uiso   1.00
C15    C     0.04116   0.13330   0.40153   0.00000  Uiso   1.00
C16    C     0.29217   0.20005   0.09847   0.00000  Uiso   1.00
C17    C     0.14786   0.16238   0.40633   0.00000  Uiso   1.00
C18    C     0.18547   0.17097   0.09368   0.00000  Uiso   1.00
C19    C     0.13073   0.15908   0.45186   0.00000  Uiso   1.00
C20    C     0.20260   0.17426   0.04814   0.00000  Uiso   1.00
C21    C     0.06977   0.13455   0.47125   0.00000  Uiso   1.00
C22    C     0.26357   0.19880   0.02875   0.00000  Uiso   1.00
C23    C     0.17410   0.17544   0.47815   0.00000  Uiso   1.00
C24    C     0.15923   0.15791   0.02185   0.00000  Uiso   1.00
Cu25   Cu    0.10737   0.16108   0.24516   0.00000  Uiso   1.00
Cu26   Cu    0.22596   0.17225   0.25483   0.00000  Uiso   1.00
H27    H     0.01134   0.09606   0.02897   0.00000  Uiso   1.00
H28    H     0.32199   0.23728   0.47103   0.00000  Uiso   1.00
H29    H     0.13692   0.16332   0.10999   0.00000  Uiso   1.00
H30    H     0.19641   0.17003   0.39001   0.00000  Uiso   1.00
H31    H     0.22423   0.01025   0.26926   0.00000  Uiso   1.00
H32    H     0.10910   0.32309   0.23075   0.00000  Uiso   1.00
N33    N     0.31506   0.18068   0.26212   0.00000  Uiso   1.00
N34    N     0.01827   0.15265   0.23788   0.00000  Uiso   1.00
O35    O     0.12815   0.23809   0.24686   0.00000  Uiso   1.00
O36    O     0.20518   0.09524   0.25314   0.00000  Uiso   1.00
O37    O     0.22829   0.24753   0.25502   0.00000  Uiso   1.00
O38    O     0.10504   0.08580   0.24497   0.00000  Uiso   1.00
O39    O     0.08851   0.15930   0.30854   0.00000  Uiso   1.00
O40    O     0.24482   0.17403   0.19145   0.00000  Uiso   1.00
O41    O     0.18866   0.16874   0.31671   0.00000  Uiso   1.00
O42    O     0.14468   0.16460   0.18329   0.00000  Uiso   1.00
Br43   Br    0.02350   0.21746   0.12968   0.00000  Uiso   1.00
Br44   Br    0.30984   0.11588   0.37032   0.00000  Uiso   1.00
O45    O     0.29705   0.10280   0.46680   0.00000  Uiso   1.00
C46    C     0.28788   0.04788   0.46685   0.00000  Uiso   1.00
H47    H     0.33084   0.03189   0.46556   0.00000  Uiso   1.00
H48    H     0.26969   0.03251   0.43815   0.00000  Uiso   1.00
C49    C     0.23980   0.02842   0.00815   0.00000  Uiso   1.00
H50    H     0.19660   0.04368   0.01044   0.00000  Uiso   1.00
H51    H     0.23010   0.31860   0.00763   0.00000  Uiso   1.00
H52    H     0.25650   0.04156   0.03785   0.00000  Uiso   1.00
O53    O     0.03629   0.23055   0.03320   0.00000  Uiso   1.00
C54    C     0.04545   0.28547   0.03315   0.00000  Uiso   1.00
H55    H     0.06364   0.30084   0.06185   0.00000  Uiso   1.00
H56    H     0.00249   0.30145   0.03444   0.00000  Uiso   1.00
C57    C     0.09353   0.30493   0.49185   0.00000  Uiso   1.00
H58    H     0.07684   0.29179   0.46215   0.00000  Uiso   1.00
H59    H     0.10323   0.01475   0.49236   0.00000  Uiso   1.00
H60    H     0.13673   0.28967   0.48956   0.00000  Uiso   1.00
Br61   Br    0.08657   0.07476   0.08220   0.00000  Uiso   1.00
Br62   Br    0.24677   0.25858   0.41780   0.00000  Uiso   1.00
O63    O     0.01046   0.22995   0.26681   0.00000  Uiso   1.00
C64    C     0.32068   0.24650   0.31007   0.00000  Uiso   1.00
H65    H     0.00022   0.22306   0.33324   0.00000  Uiso   1.00
H66    H     0.26958   0.24335   0.31820   0.00000  Uiso   1.00
C67    C     0.01522   0.30349   0.31602   0.00000  Uiso   1.00
H68    H     0.01142   0.32669   0.28905   0.00000  Uiso   1.00
H69    H     0.32360   0.31984   0.34717   0.00000  Uiso   1.00
H70    H     0.06458   0.30701   0.31696   0.00000  Uiso   1.00
O71    O     0.32287   0.10338   0.23319   0.00000  Uiso   1.00
C72    C     0.01266   0.08684   0.18993   0.00000  Uiso   1.00
H73    H     0.06375   0.08997   0.18181   0.00000  Uiso   1.00
H74    H     0.33314   0.11030   0.16676   0.00000  Uiso   1.00
C75    C     0.31808   0.02986   0.18396   0.00000  Uiso   1.00
H76    H     0.26873   0.02637   0.18301   0.00000  Uiso   1.00
H77    H     0.00969   0.01348   0.15281   0.00000  Uiso   1.00
H78    H     0.32185   0.00664   0.21095   0.00000  Uiso   1.00
C79    C     0.51369   0.26624   0.25241   0.00000  Uiso   1.00
C80    C     0.48631   0.06709   0.24759   0.00000  Uiso   1.00
C81    C     0.43503   0.12442   0.03726   0.00000  Uiso   1.00
C82    C     0.56497   0.20892   0.46274   0.00000  Uiso   1.00
C83    C     0.38943   0.11814   0.01417   0.00000  Uiso   1.00
C84    C     0.61057   0.21521   0.48583   0.00000  Uiso   1.00
C85    C     0.51966   0.32165   0.25634   0.00000  Uiso   1.00
C86    C     0.48034   0.01168   0.24367   0.00000  Uiso   1.00
C87    C     0.46131   0.16064   0.33301   0.00000  Uiso   1.00
C88    C     0.53869   0.17270   0.16699   0.00000  Uiso   1.00
C89    C     0.43752   0.15256   0.38084   0.00000  Uiso   1.00
C90    C     0.56248   0.18078   0.11916   0.00000  Uiso   1.00
C91    C     0.35814   0.12247   0.44641   0.00000  Uiso   1.00
C92    C     0.64186   0.21088   0.05360   0.00000  Uiso   1.00
C93    C     0.37450   0.13330   0.40153   0.00000  Uiso   1.00
C94    C     0.62550   0.20005   0.09847   0.00000  Uiso   1.00
C95    C     0.48120   0.16238   0.40633   0.00000  Uiso   1.00
C96    C     0.51880   0.17097   0.09368   0.00000  Uiso   1.00
C97    C     0.46406   0.15908   0.45186   0.00000  Uiso   1.00
C98    C     0.53594   0.17426   0.04814   0.00000  Uiso   1.00
C99    C     0.40310   0.13455   0.47125   0.00000  Uiso   1.00
C100   C     0.59690   0.19880   0.02875   0.00000  Uiso   1.00
C101   C     0.50744   0.17544   0.47815   0.00000  Uiso   1.00
C102   C     0.49256   0.15791   0.02185   0.00000  Uiso   1.00
Cu103  Cu    0.44071   0.16108   0.24516   0.00000  Uiso   1.00
Cu104  Cu    0.55929   0.17225   0.25483   0.00000  Uiso   1.00
H105   H     0.34467   0.09606   0.02897   0.00000  Uiso   1.00
H106   H     0.65533   0.23728   0.47103   0.00000  Uiso   1.00
H107   H     0.47025   0.16332   0.10999   0.00000  Uiso   1.00
H108   H     0.52975   0.17003   0.39001   0.00000  Uiso   1.00
H109   H     0.55757   0.01025   0.26926   0.00000  Uiso   1.00
H110   H     0.44243   0.32309   0.23075   0.00000  Uiso   1.00
N111   N     0.64839   0.18068   0.26212   0.00000  Uiso   1.00
N112   N     0.35161   0.15265   0.23788   0.00000  Uiso   1.00
O113   O     0.46148   0.23809   0.24686   0.00000  Uiso   1.00
O114   O     0.53852   0.09524   0.25314   0.00000  Uiso   1.00
O115   O     0.56163   0.24753   0.25502   0.00000  Uiso   1.00
O116   O     0.43837   0.08580   0.24497   0.00000  Uiso   1.00
O117   O     0.42185   0.15930   0.30854   0.00000  Uiso   1.00
O118   O     0.57815   0.17403   0.19145   0.00000  Uiso   1.00
O119   O     0.52199   0.16874   0.31671   0.00000  Uiso   1.00
O120   O     0.47801   0.16460   0.18329   0.00000  Uiso   1.00
Br121  Br    0.35683   0.21746   0.12968   0.00000  Uiso   1.00
Br122  Br    0.64317   0.11588   0.37032   0.00000  Uiso   1.00
O123   O     0.63038   0.10280   0.46680   0.00000  Uiso   1.00
C124   C     0.62121   0.04788   0.46685   0.00000  Uiso   1.00
H125   H     0.66418   0.03189   0.46556   0.00000  Uiso   1.00
H126   H     0.60302   0.03251   0.43815   0.00000  Uiso   1.00
C127   C     0.57313   0.02842   0.00815   0.00000  Uiso   1.00
H128   H     0.52993   0.04368   0.01044   0.00000  Uiso   1.00
H129   H     0.56344   0.31860   0.00763   0.00000  Uiso   1.00
H130   H     0.58983   0.04156   0.03785   0.00000  Uiso   1.00
O131   O     0.36962   0.23055   0.03320   0.00000  Uiso   1.00
C132   C     0.37878   0.28547   0.03315   0.00000  Uiso   1.00
H133   H     0.39697   0.30084   0.06185   0.00000  Uiso   1.00
H134   H     0.33582   0.30145   0.03444   0.00000  Uiso   1.00
C135   C     0.42687   0.30493   0.49185   0.00000  Uiso   1.00
H136   H     0.41017   0.29179   0.46215   0.00000  Uiso   1.00
H137   H     0.43656   0.01475   0.49236   0.00000  Uiso   1.00
H138   H     0.47007   0.28967   0.48956   0.00000  Uiso   1.00
Br139  Br    0.41990   0.07476   0.08220   0.00000  Uiso   1.00
Br140  Br    0.58010   0.25858   0.41780   0.00000  Uiso   1.00
O141   O     0.34379   0.22995   0.26681   0.00000  Uiso   1.00
C142   C     0.65401   0.24650   0.31007   0.00000  Uiso   1.00
H143   H     0.33356   0.22306   0.33324   0.00000  Uiso   1.00
H144   H     0.60292   0.24335   0.31820   0.00000  Uiso   1.00
C145   C     0.34856   0.30349   0.31602   0.00000  Uiso   1.00
H146   H     0.34476   0.32669   0.28905   0.00000  Uiso   1.00
H147   H     0.65693   0.31984   0.34717   0.00000  Uiso   1.00
H148   H     0.39791   0.30701   0.31696   0.00000  Uiso   1.00
O149   O     0.65621   0.10338   0.23319   0.00000  Uiso   1.00
C150   C     0.34599   0.08684   0.18993   0.00000  Uiso   1.00
H151   H     0.39708   0.08997   0.18181   0.00000  Uiso   1.00
H152   H     0.66648   0.11030   0.16676   0.00000  Uiso   1.00
C153   C     0.65141   0.02986   0.18396   0.00000  Uiso   1.00
H154   H     0.60206   0.02637   0.18301   0.00000  Uiso   1.00
H155   H     0.34303   0.01348   0.15281   0.00000  Uiso   1.00
H156   H     0.65519   0.00664   0.21095   0.00000  Uiso   1.00
C157   C     0.84702   0.26624   0.25241   0.00000  Uiso   1.00
C158   C     0.81964   0.06709   0.24759   0.00000  Uiso   1.00
C159   C     0.76836   0.12442   0.03726   0.00000  Uiso   1.00
C160   C     0.89830   0.20892   0.46274   0.00000  Uiso   1.00
C161   C     0.72276   0.11814   0.01417   0.00000  Uiso   1.00
C162   C     0.94391   0.21521   0.48583   0.00000  Uiso   1.00
C163   C     0.85300   0.32165   0.25634   0.00000  Uiso   1.00
C164   C     0.81367   0.01168   0.24367   0.00000  Uiso   1.00
C165   C     0.79464   0.16064   0.33301   0.00000  Uiso   1.00
C166   C     0.87202   0.17270   0.16699   0.00000  Uiso   1.00
C167   C     0.77086   0.15256   0.38084   0.00000  Uiso   1.00
C168   C     0.89581   0.18078   0.11916   0.00000  Uiso   1.00
C169   C     0.69147   0.12247   0.44641   0.00000  Uiso   1.00
C170   C     0.97520   0.21088   0.05360   0.00000  Uiso   1.00
C171   C     0.70783   0.13330   0.40153   0.00000  Uiso   1.00
C172   C     0.95884   0.20005   0.09847   0.00000  Uiso   1.00
C173   C     0.81453   0.16238   0.40633   0.00000  Uiso   1.00
C174   C     0.85214   0.17097   0.09368   0.00000  Uiso   1.00
C175   C     0.79740   0.15908   0.45186   0.00000  Uiso   1.00
C176   C     0.86927   0.17426   0.04814   0.00000  Uiso   1.00
C177   C     0.73643   0.13455   0.47125   0.00000  Uiso   1.00
C178   C     0.93023   0.19880   0.02875   0.00000  Uiso   1.00
C179   C     0.84077   0.17544   0.47815   0.00000  Uiso   1.00
C180   C     0.82590   0.15791   0.02185   0.00000  Uiso   1.00
Cu181  Cu    0.77404   0.16108   0.24516   0.00000  Uiso   1.00
Cu182  Cu    0.89263   0.17225   0.25483   0.00000  Uiso   1.00
H183   H     0.67801   0.09606   0.02897   0.00000  Uiso   1.00
H184   H     0.98866   0.23728   0.47103   0.00000  Uiso   1.00
H185   H     0.80359   0.16332   0.10999   0.00000  Uiso   1.00
H186   H     0.86308   0.17003   0.39001   0.00000  Uiso   1.00
H187   H     0.89090   0.01025   0.26926   0.00000  Uiso   1.00
H188   H     0.77576   0.32309   0.23075   0.00000  Uiso   1.00
N189   N     0.98173   0.18068   0.26212   0.00000  Uiso   1.00
N190   N     0.68494   0.15265   0.23788   0.00000  Uiso   1.00
O191   O     0.79482   0.23809   0.24686   0.00000  Uiso   1.00
O192   O     0.87185   0.09524   0.25314   0.00000  Uiso   1.00
O193   O     0.89496   0.24753   0.25502   0.00000  Uiso   1.00
O194   O     0.77171   0.08580   0.24497   0.00000  Uiso   1.00
O195   O     0.75518   0.15930   0.30854   0.00000  Uiso   1.00
O196   O     0.91149   0.17403   0.19145   0.00000  Uiso   1.00
O197   O     0.85532   0.16874   0.31671   0.00000  Uiso   1.00
O198   O     0.81134   0.16460   0.18329   0.00000  Uiso   1.00
Br199  Br    0.69016   0.21746   0.12968   0.00000  Uiso   1.00
Br200  Br    0.97650   0.11588   0.37032   0.00000  Uiso   1.00
O201   O     0.96371   0.10280   0.46680   0.00000  Uiso   1.00
C202   C     0.95454   0.04788   0.46685   0.00000  Uiso   1.00
H203   H     0.99751   0.03189   0.46556   0.00000  Uiso   1.00
H204   H     0.93635   0.03251   0.43815   0.00000  Uiso   1.00
C205   C     0.90647   0.02842   0.00815   0.00000  Uiso   1.00
H206   H     0.86327   0.04368   0.01044   0.00000  Uiso   1.00
H207   H     0.89677   0.31860   0.00763   0.00000  Uiso   1.00
H208   H     0.92317   0.04156   0.03785   0.00000  Uiso   1.00
O209   O     0.70295   0.23055   0.03320   0.00000  Uiso   1.00
C210   C     0.71212   0.28547   0.03315   0.00000  Uiso   1.00
H211   H     0.73030   0.30084   0.06185   0.00000  Uiso   1.00
H212   H     0.66915   0.30145   0.03444   0.00000  Uiso   1.00
C213   C     0.76020   0.30493   0.49185   0.00000  Uiso   1.00
H214   H     0.74351   0.29179   0.46215   0.00000  Uiso   1.00
H215   H     0.76989   0.01475   0.49236   0.00000  Uiso   1.00
H216   H     0.80340   0.28967   0.48956   0.00000  Uiso   1.00
Br217  Br    0.75323   0.07476   0.08220   0.00000  Uiso   1.00
Br218  Br    0.91343   0.25858   0.41780   0.00000  Uiso   1.00
O219   O     0.67712   0.22995   0.26681   0.00000  Uiso   1.00
C220   C     0.98735   0.24650   0.31007   0.00000  Uiso   1.00
H221   H     0.66689   0.22306   0.33324   0.00000  Uiso   1.00
H222   H     0.93625   0.24335   0.31820   0.00000  Uiso   1.00
C223   C     0.68189   0.30349   0.31602   0.00000  Uiso   1.00
H224   H     0.67809   0.32669   0.28905   0.00000  Uiso   1.00
H225   H     0.99027   0.31984   0.34717   0.00000  Uiso   1.00
H226   H     0.73124   0.30701   0.31696   0.00000  Uiso   1.00
O227   O     0.98954   0.10338   0.23319   0.00000  Uiso   1.00
C228   C     0.67932   0.08684   0.18993   0.00000  Uiso   1.00
H229   H     0.73042   0.08997   0.18181   0.00000  Uiso   1.00
H230   H     0.99981   0.11030   0.16676   0.00000  Uiso   1.00
C231   C     0.98474   0.02986   0.18396   0.00000  Uiso   1.00
H232   H     0.93539   0.02637   0.18301   0.00000  Uiso   1.00
H233   H     0.67636   0.01348   0.15281   0.00000  Uiso   1.00
H234   H     0.98852   0.00664   0.21095   0.00000  Uiso   1.00
C235   C     0.18036   0.59958   0.25241   0.00000  Uiso   1.00
C236   C     0.15298   0.40042   0.24759   0.00000  Uiso   1.00
C237   C     0.10170   0.45776   0.03726   0.00000  Uiso   1.00
C238   C     0.23164   0.54226   0.46274   0.00000  Uiso   1.00
C239   C     0.05609   0.45147   0.01417   0.00000  Uiso   1.00
C240   C     0.27724   0.54854   0.48583   0.00000  Uiso   1.00
C241   C     0.18633   0.65499   0.25634   0.00000  Uiso   1.00
C242   C     0.14700   0.34501   0.24367   0.00000  Uiso   1.00
C243   C     0.12798   0.49397   0.33301   0.00000  Uiso   1.00
C244   C     0.20536   0.50603   0.16699   0.00000  Uiso   1.00
C245   C     0.10419   0.48589   0.38084   0.00000  Uiso   1.00
C246   C     0.22914   0.51411   0.11916   0.00000  Uiso   1.00
C247   C     0.02480   0.45580   0.44641   0.00000  Uiso   1.00
C248   C     0.30853   0.54421   0.05360   0.00000  Uiso   1.00
C249   C     0.04116   0.46663   0.40153   0.00000  Uiso   1.00
C250   C     0.29217   0.53338   0.09847   0.00000  Uiso   1.00
C251   C     0.14786   0.49571   0.40633   0.00000  Uiso   1.00
C252   C     0.18547   0.50430   0.09368   0.00000  Uiso   1.00
C253   C     0.13073   0.49242   0.45186   0.00000  Uiso   1.00
C254   C     0.20260   0.50760   0.04814   0.00000  Uiso   1.00
C255   C     0.06977   0.46788   0.47125   0.00000  Uiso   1.00
C256   C     0.26357   0.53213   0.02875   0.00000  Uiso   1.00
C257   C     0.17410   0.50877   0.47815   0.00000  Uiso   1.00
C258   C     0.15923   0.49124   0.02185   0.00000  Uiso   1.00
Cu259  Cu    0.10737   0.49441   0.24516   0.00000  Uiso   1.00
Cu260  Cu    0.22596   0.50559   0.25483   0.00000  Uiso   1.00
H261   H     0.01134   0.42939   0.02897   0.00000  Uiso   1.00
H262   H     0.32199   0.57062   0.47103   0.00000  Uiso   1.00
H263   H     0.13692   0.49665   0.10999   0.00000  Uiso   1.00
H264   H     0.19641   0.50336   0.39001   0.00000  Uiso   1.00
H265   H     0.22423   0.34358   0.26926   0.00000  Uiso   1.00
H266   H     0.10910   0.65642   0.23075   0.00000  Uiso   1.00
N267   N     0.31506   0.51401   0.26212   0.00000  Uiso   1.00
N268   N     0.01827   0.48599   0.23788   0.00000  Uiso   1.00
O269   O     0.12815   0.57142   0.24686   0.00000  Uiso   1.00
O270   O     0.20518   0.42858   0.25314   0.00000  Uiso   1.00
O271   O     0.22829   0.58086   0.25502   0.00000  Uiso   1.00
O272   O     0.10504   0.41914   0.24497   0.00000  Uiso   1.00
O273   O     0.08851   0.49263   0.30854   0.00000  Uiso   1.00
O274   O     0.24482   0.50737   0.19145   0.00000  Uiso   1.00
O275   O     0.18866   0.50207   0.31671   0.00000  Uiso   1.00
O276   O     0.14468   0.49793   0.18329   0.00000  Uiso   1.00
Br277  Br    0.02350   0.55080   0.12968   0.00000  Uiso   1.00
Br278  Br    0.30984   0.44921   0.37032   0.00000  Uiso   1.00
O279   O     0.29705   0.43613   0.46680   0.00000  Uiso   1.00
C280   C     0.28788   0.38121   0.46685   0.00000  Uiso   1.00
H281   H     0.33084   0.36523   0.46556   0.00000  Uiso   1.00
H282   H     0.26969   0.36584   0.43815   0.00000  Uiso   1.00
C283   C     0.23980   0.36175   0.00815   0.00000  Uiso   1.00
H284   H     0.19660   0.37701   0.01044   0.00000  Uiso   1.00
H285   H     0.23010   0.65193   0.00763   0.00000  Uiso   1.00
H286   H     0.25650   0.37489   0.03785   0.00000  Uiso   1.00
O287   O     0.03629   0.56388   0.03320   0.00000  Uiso   1.00
C288   C     0.04545   0.61880   0.03315   0.00000  Uiso   1.00
H289   H     0.06364   0.63418   0.06185   0.00000  Uiso   1.00
H290   H     0.00249   0.63479   0.03444   0.00000  Uiso   1.00
C291   C     0.09353   0.63826   0.49185   0.00000  Uiso   1.00
H292   H     0.07684   0.62512   0.46215   0.00000  Uiso   1.00
H293   H     0.10323   0.34808   0.49236   0.00000  Uiso   1.00
H294   H     0.13673   0.62301   0.48956   0.00000  Uiso   1.00
Br295  Br    0.08657   0.40810   0.08220   0.00000  Uiso   1.00
Br296  Br    0.24677   0.59192   0.41780   0.00000  Uiso   1.00
O297   O     0.01046   0.56328   0.26681   0.00000  Uiso   1.00
C298   C     0.32068   0.57983   0.31007   0.00000  Uiso   1.00
H299   H     0.00022   0.55640   0.33324   0.00000  Uiso   1.00
H300   H     0.26958   0.57668   0.31820   0.00000  Uiso   1.00
C301   C     0.01522   0.63682   0.31602   0.00000  Uiso   1.00
H302   H     0.01142   0.66002   0.28905   0.00000  Uiso   1.00
H303   H     0.32360   0.65318   0.34717   0.00000  Uiso   1.00
H304   H     0.06458   0.64035   0.31696   0.00000  Uiso   1.00
O305   O     0.32287   0.43672   0.23319   0.00000  Uiso   1.00
C306   C     0.01266   0.42017   0.18993   0.00000  Uiso   1.00
H307   H     0.06375   0.42330   0.18181   0.00000  Uiso   1.00
H308   H     0.33314   0.44363   0.16676   0.00000  Uiso   1.00
C309   C     0.31808   0.36319   0.18396   0.00000  Uiso   1.00
H310   H     0.26873   0.35970   0.18301   0.00000  Uiso   1.00
H311   H     0.00969   0.34681   0.15281   0.00000  Uiso   1.00
H312   H     0.32185   0.33998   0.21095   0.00000  Uiso   1.00
C313   C     0.51369   0.59958   0.25241   0.00000  Uiso   1.00
C314   C     0.48631   0.40042   0.24759   0.00000  Uiso   1.00
C315   C     0.43503   0.45776   0.03726   0.00000  Uiso   1.00
C316   C     0.56497   0.54226   0.46274   0.00000  Uiso   1.00
C317   C     0.38943   0.45147   0.01417   0.00000  Uiso   1.00
C318   C     0.61057   0.54854   0.48583   0.00000  Uiso   1.00
C319   C     0.51966   0.65499   0.25634   0.00000  Uiso   1.00
C320   C     0.48034   0.34501   0.24367   0.00000  Uiso   1.00
C321   C     0.46131   0.49397   0.33301   0.00000  Uiso   1.00
C322   C     0.53869   0.50603   0.16699   0.00000  Uiso   1.00
C323   C     0.43752   0.48589   0.38084   0.00000  Uiso   1.00
C324   C     0.56248   0.51411   0.11916   0.00000  Uiso   1.00
C325   C     0.35814   0.45580   0.44641   0.00000  Uiso   1.00
C326   C     0.64186   0.54421   0.05360   0.00000  Uiso   1.00
C327   C     0.37450   0.46663   0.40153   0.00000  Uiso   1.00
C328   C     0.62550   0.53338   0.09847   0.00000  Uiso   1.00
C329   C     0.48120   0.49571   0.40633   0.00000  Uiso   1.00
C330   C     0.51880   0.50430   0.09368   0.00000  Uiso   1.00
C331   C     0.46406   0.49242   0.45186   0.00000  Uiso   1.00
C332   C     0.53594   0.50760   0.04814   0.00000  Uiso   1.00
C333   C     0.40310   0.46788   0.47125   0.00000  Uiso   1.00
C334   C     0.59690   0.53213   0.02875   0.00000  Uiso   1.00
C335   C     0.50744   0.50877   0.47815   0.00000  Uiso   1.00
C336   C     0.49256   0.49124   0.02185   0.00000  Uiso   1.00
Cu337  Cu    0.44071   0.49441   0.24516   0.00000  Uiso   1.00
Cu338  Cu    0.55929   0.50559   0.25483   0.00000  Uiso   1.00
H339   H     0.34467   0.42939   0.02897   0.00000  Uiso   1.00
H340   H     0.65533   0.57062   0.47103   0.00000  Uiso   1.00
H341   H     0.47025   0.49665   0.10999   0.00000  Uiso   1.00
H342   H     0.52975   0.50336   0.39001   0.00000  Uiso   1.00
H343   H     0.55757   0.34358   0.26926   0.00000  Uiso   1.00
H344   H     0.44243   0.65642   0.23075   0.00000  Uiso   1.00
N345   N     0.64839   0.51401   0.26212   0.00000  Uiso   1.00
N346   N     0.35161   0.48599   0.23788   0.00000  Uiso   1.00
O347   O     0.46148   0.57142   0.24686   0.00000  Uiso   1.00
O348   O     0.53852   0.42858   0.25314   0.00000  Uiso   1.00
O349   O     0.56163   0.58086   0.25502   0.00000  Uiso   1.00
O350   O     0.43837   0.41914   0.24497   0.00000  Uiso   1.00
O351   O     0.42185   0.49263   0.30854   0.00000  Uiso   1.00
O352   O     0.57815   0.50737   0.19145   0.00000  Uiso   1.00
O353   O     0.52199   0.50207   0.31671   0.00000  Uiso   1.00
O354   O     0.47801   0.49793   0.18329   0.00000  Uiso   1.00
Br355  Br    0.35683   0.55080   0.12968   0.00000  Uiso   1.00
Br356  Br    0.64317   0.44921   0.37032   0.00000  Uiso   1.00
O357   O     0.63038   0.43613   0.46680   0.00000  Uiso   1.00
C358   C     0.62121   0.38121   0.46685   0.00000  Uiso   1.00
H359   H     0.66418   0.36523   0.46556   0.00000  Uiso   1.00
H360   H     0.60302   0.36584   0.43815   0.00000  Uiso   1.00
C361   C     0.57313   0.36175   0.00815   0.00000  Uiso   1.00
H362   H     0.52993   0.37701   0.01044   0.00000  Uiso   1.00
H363   H     0.56344   0.65193   0.00763   0.00000  Uiso   1.00
H364   H     0.58983   0.37489   0.03785   0.00000  Uiso   1.00
O365   O     0.36962   0.56388   0.03320   0.00000  Uiso   1.00
C366   C     0.37878   0.61880   0.03315   0.00000  Uiso   1.00
H367   H     0.39697   0.63418   0.06185   0.00000  Uiso   1.00
H368   H     0.33582   0.63479   0.03444   0.00000  Uiso   1.00
C369   C     0.42687   0.63826   0.49185   0.00000  Uiso   1.00
H370   H     0.41017   0.62512   0.46215   0.00000  Uiso   1.00
H371   H     0.43656   0.34808   0.49236   0.00000  Uiso   1.00
H372   H     0.47007   0.62301   0.48956   0.00000  Uiso   1.00
Br373  Br    0.41990   0.40810   0.08220   0.00000  Uiso   1.00
Br374  Br    0.58010   0.59192   0.41780   0.00000  Uiso   1.00
O375   O     0.34379   0.56328   0.26681   0.00000  Uiso   1.00
C376   C     0.65401   0.57983   0.31007   0.00000  Uiso   1.00
H377   H     0.33356   0.55640   0.33324   0.00000  Uiso   1.00
H378   H     0.60292   0.57668   0.31820   0.00000  Uiso   1.00
C379   C     0.34856   0.63682   0.31602   0.00000  Uiso   1.00
H380   H     0.34476   0.66002   0.28905   0.00000  Uiso   1.00
H381   H     0.65693   0.65318   0.34717   0.00000  Uiso   1.00
H382   H     0.39791   0.64035   0.31696   0.00000  Uiso   1.00
O383   O     0.65621   0.43672   0.23319   0.00000  Uiso   1.00
C384   C     0.34599   0.42017   0.18993   0.00000  Uiso   1.00
H385   H     0.39708   0.42330   0.18181   0.00000  Uiso   1.00
H386   H     0.66648   0.44363   0.16676   0.00000  Uiso   1.00
C387   C     0.65141   0.36319   0.18396   0.00000  Uiso   1.00
H388   H     0.60206   0.35970   0.18301   0.00000  Uiso   1.00
H389   H     0.34303   0.34681   0.15281   0.00000  Uiso   1.00
H390   H     0.65519   0.33998   0.21095   0.00000  Uiso   1.00
C391   C     0.84702   0.59958   0.25241   0.00000  Uiso   1.00
C392   C     0.81964   0.40042   0.24759   0.00000  Uiso   1.00
C393   C     0.76836   0.45776   0.03726   0.00000  Uiso   1.00
C394   C     0.89830   0.54226   0.46274   0.00000  Uiso   1.00
C395   C     0.72276   0.45147   0.01417   0.00000  Uiso   1.00
C396   C     0.94391   0.54854   0.48583   0.00000  Uiso   1.00
C397   C     0.85300   0.65499   0.25634   0.00000  Uiso   1.00
C398   C     0.81367   0.34501   0.24367   0.00000  Uiso   1.00
C399   C     0.79464   0.49397   0.33301   0.00000  Uiso   1.00
C400   C     0.87202   0.50603   0.16699   0.00000  Uiso   1.00
C401   C     0.77086   0.48589   0.38084   0.00000  Uiso   1.00
C402   C     0.89581   0.51411   0.11916   0.00000  Uiso   1.00
C403   C     0.69147   0.45580   0.44641   0.00000  Uiso   1.00
C404   C     0.97520   0.54421   0.05360   0.00000  Uiso   1.00
C405   C     0.70783   0.46663   0.40153   0.00000  Uiso   1.00
C406   C     0.95884   0.53338   0.09847   0.00000  Uiso   1.00
C407   C     0.81453   0.49571   0.40633   0.00000  Uiso   1.00
C408   C     0.85214   0.50430   0.09368   0.00000  Uiso   1.00
C409   C     0.79740   0.49242   0.45186   0.00000  Uiso   1.00
C410   C     0.86927   0.50760   0.04814   0.00000  Uiso   1.00
C411   C     0.73643   0.46788   0.47125   0.00000  Uiso   1.00
C412   C     0.93023   0.53213   0.02875   0.00000  Uiso   1.00
C413   C     0.84077   0.50877   0.47815   0.00000  Uiso   1.00
C414   C     0.82590   0.49124   0.02185   0.00000  Uiso   1.00
Cu415  Cu    0.77404   0.49441   0.24516   0.00000  Uiso   1.00
Cu416  Cu    0.89263   0.50559   0.25483   0.00000  Uiso   1.00
H417   H     0.67801   0.42939   0.02897   0.00000  Uiso   1.00
H418   H     0.98866   0.57062   0.47103   0.00000  Uiso   1.00
H419   H     0.80359   0.49665   0.10999   0.00000  Uiso   1.00
H420   H     0.86308   0.50336   0.39001   0.00000  Uiso   1.00
H421   H     0.89090   0.34358   0.26926   0.00000  Uiso   1.00
H422   H     0.77576   0.65642   0.23075   0.00000  Uiso   1.00
N423   N     0.98173   0.51401   0.26212   0.00000  Uiso   1.00
N424   N     0.68494   0.48599   0.23788   0.00000  Uiso   1.00
O425   O     0.79482   0.57142   0.24686   0.00000  Uiso   1.00
O426   O     0.87185   0.42858   0.25314   0.00000  Uiso   1.00
O427   O     0.89496   0.58086   0.25502   0.00000  Uiso   1.00
O428   O     0.77171   0.41914   0.24497   0.00000  Uiso   1.00
O429   O     0.75518   0.49263   0.30854   0.00000  Uiso   1.00
O430   O     0.91149   0.50737   0.19145   0.00000  Uiso   1.00
O431   O     0.85532   0.50207   0.31671   0.00000  Uiso   1.00
O432   O     0.81134   0.49793   0.18329   0.00000  Uiso   1.00
Br433  Br    0.69016   0.55080   0.12968   0.00000  Uiso   1.00
Br434  Br    0.97650   0.44921   0.37032   0.00000  Uiso   1.00
O435   O     0.96371   0.43613   0.46680   0.00000  Uiso   1.00
C436   C     0.95454   0.38121   0.46685   0.00000  Uiso   1.00
H437   H     0.99751   0.36523   0.46556   0.00000  Uiso   1.00
H438   H     0.93635   0.36584   0.43815   0.00000  Uiso   1.00
C439   C     0.90647   0.36175   0.00815   0.00000  Uiso   1.00
H440   H     0.86327   0.37701   0.01044   0.00000  Uiso   1.00
H441   H     0.89677   0.65193   0.00763   0.00000  Uiso   1.00
H442   H     0.92317   0.37489   0.03785   0.00000  Uiso   1.00
O443   O     0.70295   0.56388   0.03320   0.00000  Uiso   1.00
C444   C     0.71212   0.61880   0.03315   0.00000  Uiso   1.00
H445   H     0.73030   0.63418   0.06185   0.00000  Uiso   1.00
H446   H     0.66915   0.63479   0.03444   0.00000  Uiso   1.00
C447   C     0.76020   0.63826   0.49185   0.00000  Uiso   1.00
H448   H     0.74351   0.62512   0.46215   0.00000  Uiso   1.00
H449   H     0.76989   0.34808   0.49236   0.00000  Uiso   1.00
H450   H     0.80340   0.62301   0.48956   0.00000  Uiso   1.00
Br451  Br    0.75323   0.40810   0.08220   0.00000  Uiso   1.00
Br452  Br    0.91343   0.59192   0.41780   0.00000  Uiso   1.00
O453   O     0.67712   0.56328   0.26681   0.00000  Uiso   1.00
C454   C     0.98735   0.57983   0.31007   0.00000  Uiso   1.00
H455   H     0.66689   0.55640   0.33324   0.00000  Uiso   1.00
H456   H     0.93625   0.57668   0.31820   0.00000  Uiso   1.00
C457   C     0.68189   0.63682   0.31602   0.00000  Uiso   1.00
H458   H     0.67809   0.66002   0.28905   0.00000  Uiso   1.00
H459   H     0.99027   0.65318   0.34717   0.00000  Uiso   1.00
H460   H     0.73124   0.64035   0.31696   0.00000  Uiso   1.00
O461   O     0.98954   0.43672   0.23319   0.00000  Uiso   1.00
C462   C     0.67932   0.42017   0.18993   0.00000  Uiso   1.00
H463   H     0.73042   0.42330   0.18181   0.00000  Uiso   1.00
H464   H     0.99981   0.44363   0.16676   0.00000  Uiso   1.00
C465   C     0.98474   0.36319   0.18396   0.00000  Uiso   1.00
H466   H     0.93539   0.35970   0.18301   0.00000  Uiso   1.00
H467   H     0.67636   0.34681   0.15281   0.00000  Uiso   1.00
H468   H     0.98852   0.33998   0.21095   0.00000  Uiso   1.00
C469   C     0.18036   0.93291   0.25241   0.00000  Uiso   1.00
C470   C     0.15298   0.73376   0.24759   0.00000  Uiso   1.00
C471   C     0.10170   0.79109   0.03726   0.00000  Uiso   1.00
C472   C     0.23164   0.87559   0.46274   0.00000  Uiso   1.00
C473   C     0.05609   0.78481   0.01417   0.00000  Uiso   1.00
C474   C     0.27724   0.88187   0.48583   0.00000  Uiso   1.00
C475   C     0.18633   0.98832   0.25634   0.00000  Uiso   1.00
C476   C     0.14700   0.67835   0.24367   0.00000  Uiso   1.00
C477   C     0.12798   0.82730   0.33301   0.00000  Uiso   1.00
C478   C     0.20536   0.83937   0.16699   0.00000  Uiso   1.00
C479   C     0.10419   0.81923   0.38084   0.00000  Uiso   1.00
C480   C     0.22914   0.84745   0.11916   0.00000  Uiso   1.00
C481   C     0.02480   0.78914   0.44641   0.00000  Uiso   1.00
C482   C     0.30853   0.87754   0.05360   0.00000  Uiso   1.00
C483   C     0.04116   0.79996   0.40153   0.00000  Uiso   1.00
C484   C     0.29217   0.86671   0.09847   0.00000  Uiso   1.00
C485   C     0.14786   0.82905   0.40633   0.00000  Uiso   1.00
C486   C     0.18547   0.83763   0.09368   0.00000  Uiso   1.00
C487   C     0.13073   0.82575   0.45186   0.00000  Uiso   1.00
C488   C     0.20260   0.84093   0.04814   0.00000  Uiso   1.00
C489   C     0.06977   0.80122   0.47125   0.00000  Uiso   1.00
C490   C     0.26357   0.86546   0.02875   0.00000  Uiso   1.00
C491   C     0.17410   0.84211   0.47815   0.00000  Uiso   1.00
C492   C     0.15923   0.82458   0.02185   0.00000  Uiso   1.00
Cu493  Cu    0.10737   0.82775   0.24516   0.00000  Uiso   1.00
Cu494  Cu    0.22596   0.83892   0.25483   0.00000  Uiso   1.00
H495   H     0.01134   0.76273   0.02897   0.00000  Uiso   1.00
H496   H     0.32199   0.90395   0.47103   0.00000  Uiso   1.00
H497   H     0.13692   0.82999   0.10999   0.00000  Uiso   1.00
H498   H     0.19641   0.83669   0.39001   0.00000  Uiso   1.00
H499   H     0.22423   0.67691   0.26926   0.00000  Uiso   1.00
H500   H     0.10910   0.98975   0.23075   0.00000  Uiso   1.00
N501   N     0.31506   0.84735   0.26212   0.00000  Uiso   1.00
N502   N     0.01827   0.81932   0.23788   0.00000  Uiso   1.00
O503   O     0.12815   0.90476   0.24686   0.00000  Uiso   1.00
O504   O     0.20518   0.76191   0.25314   0.00000  Uiso   1.00
O505   O     0.22829   0.91420   0.25502   0.00000  Uiso   1.00
O506   O     0.10504   0.75247   0.24497   0.00000  Uiso   1.00
O507   O     0.08851   0.82597   0.30854   0.00000  Uiso   1.00
O508   O     0.24482   0.84070   0.19145   0.00000  Uiso   1.00
O509   O     0.18866   0.83540   0.31671   0.00000  Uiso   1.00
O510   O     0.14468   0.83126   0.18329   0.00000  Uiso   1.00
Br511  Br    0.02350   0.88413   0.12968   0.00000  Uiso   1.00
Br512  Br    0.30984   0.78255   0.37032   0.00000  Uiso   1.00
O513   O     0.29705   0.76947   0.46680   0.00000  Uiso   1.00
C514   C     0.28788   0.71455   0.46685   0.00000  Uiso   1.00
H515   H     0.33084   0.69856   0.46556   0.00000  Uiso   1.00
H516   H     0.26969   0.69917   0.43815   0.00000  Uiso   1.00
C517   C     0.23980   0.69509   0.00815   0.00000  Uiso   1.00
H518   H     0.19660   0.71035   0.01044   0.00000  Uiso   1.00
H519   H     0.23010   0.98527   0.00763   0.00000  Uiso   1.00
H520   H     0.25650   0.70823   0.03785   0.00000  Uiso   1.00
O521   O     0.03629   0.89721   0.03320   0.00000  Uiso   1.00
C522   C     0.04545   0.95214   0.03315   0.00000  Uiso   1.00
H523   H     0.06364   0.96751   0.06185   0.00000  Uiso   1.00
H524   H     0.00249   0.96812   0.03444   0.00000  Uiso   1.00
C525   C     0.09353   0.97160   0.49185   0.00000  Uiso   1.00
H526   H     0.07684   0.95845   0.46215   0.00000  Uiso   1.00
H527   H     0.10323   0.68142   0.49236   0.00000  Uiso   1.00
H528   H     0.13673   0.95634   0.48956   0.00000  Uiso   1.00
Br529  Br    0.08657   0.74143   0.08220   0.00000  Uiso   1.00
Br530  Br    0.24677   0.92525   0.41780   0.00000  Uiso   1.00
O531   O     0.01046   0.89662   0.26681   0.00000  Uiso   1.00
C532   C     0.32068   0.91316   0.31007   0.00000  Uiso   1.00
H533   H     0.00022   0.88973   0.33324   0.00000  Uiso   1.00
H534   H     0.26958   0.91001   0.31820   0.00000  Uiso   1.00
C535   C     0.01522   0.97016   0.31602   0.00000  Uiso   1.00
H536   H     0.01142   0.99336   0.28905   0.00000  Uiso   1.00
H537   H     0.32360   0.98651   0.34717   0.00000  Uiso   1.00
H538   H     0.06458   0.97368   0.31696   0.00000  Uiso   1.00
O539   O     0.32287   0.77005   0.23319   0.00000  Uiso   1.00
C540   C     0.01266   0.75351   0.18993   0.00000  Uiso   1.00
H541   H     0.06375   0.75663   0.18181   0.00000  Uiso   1.00
H542   H     0.33314   0.77696   0.16676   0.00000  Uiso   1.00
C543   C     0.31808   0.69652   0.18396   0.00000  Uiso   1.00
H544   H     0.26873   0.69303   0.18301   0.00000  Uiso   1.00
H545   H     0.00969   0.68014   0.15281   0.00000  Uiso   1.00
H546   H     0.32185   0.67331   0.21095   0.00000  Uiso   1.00
C547   C     0.51369   0.93291   0.25241   0.00000  Uiso   1.00
C548   C     0.48631   0.73376   0.24759   0.00000  Uiso   1.00
C549   C     0.43503   0.79109   0.03726   0.00000  Uiso   1.00
C550   C     0.56497   0.87559   0.46274   0.00000  Uiso   1.00
C551   C     0.38943   0.78481   0.01417   0.00000  Uiso   1.00
C552   C     0.61057   0.88187   0.48583   0.00000  Uiso   1.00
C553   C     0.51966   0.98832   0.25634   0.00000  Uiso   1.00
C554   C     0.48034   0.67835   0.24367   0.00000  Uiso   1.00
C555   C     0.46131   0.82730   0.33301   0.00000  Uiso   1.00
C556   C     0.53869   0.83937   0.16699   0.00000  Uiso   1.00
C557   C     0.43752   0.81923   0.38084   0.00000  Uiso   1.00
C558   C     0.56248   0.84745   0.11916   0.00000  Uiso   1.00
C559   C     0.35814   0.78914   0.44641   0.00000  Uiso   1.00
C560   C     0.64186   0.87754   0.05360   0.00000  Uiso   1.00
C561   C     0.37450   0.79996   0.40153   0.00000  Uiso   1.00
C562   C     0.62550   0.86671   0.09847   0.00000  Uiso   1.00
C563   C     0.48120   0.82905   0.40633   0.00000  Uiso   1.00
C564   C     0.51880   0.83763   0.09368   0.00000  Uiso   1.00
C565   C     0.46406   0.82575   0.45186   0.00000  Uiso   1.00
C566   C     0.53594   0.84093   0.04814   0.00000  Uiso   1.00
C567   C     0.40310   0.80122   0.47125   0.00000  Uiso   1.00
C568   C     0.59690   0.86546   0.02875   0.00000  Uiso   1.00
C569   C     0.50744   0.84211   0.47815   0.00000  Uiso   1.00
C570   C     0.49256   0.82458   0.02185   0.00000  Uiso   1.00
Cu571  Cu    0.44071   0.82775   0.24516   0.00000  Uiso   1.00
Cu572  Cu    0.55929   0.83892   0.25483   0.00000  Uiso   1.00
H573   H     0.34467   0.76273   0.02897   0.00000  Uiso   1.00
H574   H     0.65533   0.90395   0.47103   0.00000  Uiso   1.00
H575   H     0.47025   0.82999   0.10999   0.00000  Uiso   1.00
H576   H     0.52975   0.83669   0.39001   0.00000  Uiso   1.00
H577   H     0.55757   0.67691   0.26926   0.00000  Uiso   1.00
H578   H     0.44243   0.98975   0.23075   0.00000  Uiso   1.00
N579   N     0.64839   0.84735   0.26212   0.00000  Uiso   1.00
N580   N     0.35161   0.81932   0.23788   0.00000  Uiso   1.00
O581   O     0.46148   0.90476   0.24686   0.00000  Uiso   1.00
O582   O     0.53852   0.76191   0.25314   0.00000  Uiso   1.00
O583   O     0.56163   0.91420   0.25502   0.00000  Uiso   1.00
O584   O     0.43837   0.75247   0.24497   0.00000  Uiso   1.00
O585   O     0.42185   0.82597   0.30854   0.00000  Uiso   1.00
O586   O     0.57815   0.84070   0.19145   0.00000  Uiso   1.00
O587   O     0.52199   0.83540   0.31671   0.00000  Uiso   1.00
O588   O     0.47801   0.83126   0.18329   0.00000  Uiso   1.00
Br589  Br    0.35683   0.88413   0.12968   0.00000  Uiso   1.00
Br590  Br    0.64317   0.78255   0.37032   0.00000  Uiso   1.00
O591   O     0.63038   0.76947   0.46680   0.00000  Uiso   1.00
C592   C     0.62121   0.71455   0.46685   0.00000  Uiso   1.00
H593   H     0.66418   0.69856   0.46556   0.00000  Uiso   1.00
H594   H     0.60302   0.69917   0.43815   0.00000  Uiso   1.00
C595   C     0.57313   0.69509   0.00815   0.00000  Uiso   1.00
H596   H     0.52993   0.71035   0.01044   0.00000  Uiso   1.00
H597   H     0.56344   0.98527   0.00763   0.00000  Uiso   1.00
H598   H     0.58983   0.70823   0.03785   0.00000  Uiso   1.00
O599   O     0.36962   0.89721   0.03320   0.00000  Uiso   1.00
C600   C     0.37878   0.95214   0.03315   0.00000  Uiso   1.00
H601   H     0.39697   0.96751   0.06185   0.00000  Uiso   1.00
H602   H     0.33582   0.96812   0.03444   0.00000  Uiso   1.00
C603   C     0.42687   0.97160   0.49185   0.00000  Uiso   1.00
H604   H     0.41017   0.95845   0.46215   0.00000  Uiso   1.00
H605   H     0.43656   0.68142   0.49236   0.00000  Uiso   1.00
H606   H     0.47007   0.95634   0.48956   0.00000  Uiso   1.00
Br607  Br    0.41990   0.74143   0.08220   0.00000  Uiso   1.00
Br608  Br    0.58010   0.92525   0.41780   0.00000  Uiso   1.00
O609   O     0.34379   0.89662   0.26681   0.00000  Uiso   1.00
C610   C     0.65401   0.91316   0.31007   0.00000  Uiso   1.00
H611   H     0.33356   0.88973   0.33324   0.00000  Uiso   1.00
H612   H     0.60292   0.91001   0.31820   0.00000  Uiso   1.00
C613   C     0.34856   0.97016   0.31602   0.00000  Uiso   1.00
H614   H     0.34476   0.99336   0.28905   0.00000  Uiso   1.00
H615   H     0.65693   0.98651   0.34717   0.00000  Uiso   1.00
H616   H     0.39791   0.97368   0.31696   0.00000  Uiso   1.00
O617   O     0.65621   0.77005   0.23319   0.00000  Uiso   1.00
C618   C     0.34599   0.75351   0.18993   0.00000  Uiso   1.00
H619   H     0.39708   0.75663   0.18181   0.00000  Uiso   1.00
H620   H     0.66648   0.77696   0.16676   0.00000  Uiso   1.00
C621   C     0.65141   0.69652   0.18396   0.00000  Uiso   1.00
H622   H     0.60206   0.69303   0.18301   0.00000  Uiso   1.00
H623   H     0.34303   0.68014   0.15281   0.00000  Uiso   1.00
H624   H     0.65519   0.67331   0.21095   0.00000  Uiso   1.00
C625   C     0.84702   0.93291   0.25241   0.00000  Uiso   1.00
C626   C     0.81964   0.73376   0.24759   0.00000  Uiso   1.00
C627   C     0.76836   0.79109   0.03726   0.00000  Uiso   1.00
C628   C     0.89830   0.87559   0.46274   0.00000  Uiso   1.00
C629   C     0.72276   0.78481   0.01417   0.00000  Uiso   1.00
C630   C     0.94391   0.88187   0.48583   0.00000  Uiso   1.00
C631   C     0.85300   0.98832   0.25634   0.00000  Uiso   1.00
C632   C     0.81367   0.67835   0.24367   0.00000  Uiso   1.00
C633   C     0.79464   0.82730   0.33301   0.00000  Uiso   1.00
C634   C     0.87202   0.83937   0.16699   0.00000  Uiso   1.00
C635   C     0.77086   0.81923   0.38084   0.00000  Uiso   1.00
C636   C     0.89581   0.84745   0.11916   0.00000  Uiso   1.00
C637   C     0.69147   0.78914   0.44641   0.00000  Uiso   1.00
C638   C     0.97520   0.87754   0.05360   0.00000  Uiso   1.00
C639   C     0.70783   0.79996   0.40153   0.00000  Uiso   1.00
C640   C     0.95884   0.86671   0.09847   0.00000  Uiso   1.00
C641   C     0.81453   0.82905   0.40633   0.00000  Uiso   1.00
C642   C     0.85214   0.83763   0.09368   0.00000  Uiso   1.00
C643   C     0.79740   0.82575   0.45186   0.00000  Uiso   1.00
C644   C     0.86927   0.84093   0.04814   0.00000  Uiso   1.00
C645   C     0.73643   0.80122   0.47125   0.00000  Uiso   1.00
C646   C     0.93023   0.86546   0.02875   0.00000  Uiso   1.00
C647   C     0.84077   0.84211   0.47815   0.00000  Uiso   1.00
C648   C     0.82590   0.82458   0.02185   0.00000  Uiso   1.00
Cu649  Cu    0.77404   0.82775   0.24516   0.00000  Uiso   1.00
Cu650  Cu    0.89263   0.83892   0.25483   0.00000  Uiso   1.00
H651   H     0.67801   0.76273   0.02897   0.00000  Uiso   1.00
H652   H     0.98866   0.90395   0.47103   0.00000  Uiso   1.00
H653   H     0.80359   0.82999   0.10999   0.00000  Uiso   1.00
H654   H     0.86308   0.83669   0.39001   0.00000  Uiso   1.00
H655   H     0.89090   0.67691   0.26926   0.00000  Uiso   1.00
H656   H     0.77576   0.98975   0.23075   0.00000  Uiso   1.00
N657   N     0.98173   0.84735   0.26212   0.00000  Uiso   1.00
N658   N     0.68494   0.81932   0.23788   0.00000  Uiso   1.00
O659   O     0.79482   0.90476   0.24686   0.00000  Uiso   1.00
O660   O     0.87185   0.76191   0.25314   0.00000  Uiso   1.00
O661   O     0.89496   0.91420   0.25502   0.00000  Uiso   1.00
O662   O     0.77171   0.75247   0.24497   0.00000  Uiso   1.00
O663   O     0.75518   0.82597   0.30854   0.00000  Uiso   1.00
O664   O     0.91149   0.84070   0.19145   0.00000  Uiso   1.00
O665   O     0.85532   0.83540   0.31671   0.00000  Uiso   1.00
O666   O     0.81134   0.83126   0.18329   0.00000  Uiso   1.00
Br667  Br    0.69016   0.88413   0.12968   0.00000  Uiso   1.00
Br668  Br    0.97650   0.78255   0.37032   0.00000  Uiso   1.00
O669   O     0.96371   0.76947   0.46680   0.00000  Uiso   1.00
C670   C     0.95454   0.71455   0.46685   0.00000  Uiso   1.00
H671   H     0.99751   0.69856   0.46556   0.00000  Uiso   1.00
H672   H     0.93635   0.69917   0.43815   0.00000  Uiso   1.00
C673   C     0.90647   0.69509   0.00815   0.00000  Uiso   1.00
H674   H     0.86327   0.71035   0.01044   0.00000  Uiso   1.00
H675   H     0.89677   0.98527   0.00763   0.00000  Uiso   1.00
H676   H     0.92317   0.70823   0.03785   0.00000  Uiso   1.00
O677   O     0.70295   0.89721   0.03320   0.00000  Uiso   1.00
C678   C     0.71212   0.95214   0.03315   0.00000  Uiso   1.00
H679   H     0.73030   0.96751   0.06185   0.00000  Uiso   1.00
H680   H     0.66915   0.96812   0.03444   0.00000  Uiso   1.00
C681   C     0.76020   0.97160   0.49185   0.00000  Uiso   1.00
H682   H     0.74351   0.95845   0.46215   0.00000  Uiso   1.00
H683   H     0.76989   0.68142   0.49236   0.00000  Uiso   1.00
H684   H     0.80340   0.95634   0.48956   0.00000  Uiso   1.00
Br685  Br    0.75323   0.74143   0.08220   0.00000  Uiso   1.00
Br686  Br    0.91343   0.92525   0.41780   0.00000  Uiso   1.00
O687   O     0.67712   0.89662   0.26681   0.00000  Uiso   1.00
C688   C     0.98735   0.91316   0.31007   0.00000  Uiso   1.00
H689   H     0.66689   0.88973   0.33324   0.00000  Uiso   1.00
H690   H     0.93625   0.91001   0.31820   0.00000  Uiso   1.00
C691   C     0.68189   0.97016   0.31602   0.00000  Uiso   1.00
H692   H     0.67809   0.99336   0.28905   0.00000  Uiso   1.00
H693   H     0.99027   0.98651   0.34717   0.00000  Uiso   1.00
H694   H     0.73124   0.97368   0.31696   0.00000  Uiso   1.00
O695   O     0.98954   0.77005   0.23319   0.00000  Uiso   1.00
C696   C     0.67932   0.75351   0.18993   0.00000  Uiso   1.00
H697   H     0.73042   0.75663   0.18181   0.00000  Uiso   1.00
H698   H     0.99981   0.77696   0.16676   0.00000  Uiso   1.00
C699   C     0.98474   0.69652   0.18396   0.00000  Uiso   1.00
H700   H     0.93539   0.69303   0.18301   0.00000  Uiso   1.00
H701   H     0.67636   0.68014   0.15281   0.00000  Uiso   1.00
H702   H     0.98852   0.67331   0.21095   0.00000  Uiso   1.00
C703   C     0.18036   0.26624   0.75241   0.00000  Uiso   1.00
C704   C     0.15298   0.06709   0.74759   0.00000  Uiso   1.00
C705   C     0.10170   0.12442   0.53726   0.00000  Uiso   1.00
C706   C     0.23164   0.20892   0.96274   0.00000  Uiso   1.00
C707   C     0.05609   0.11814   0.51417   0.00000  Uiso   1.00
C708   C     0.27724   0.21521   0.98583   0.00000  Uiso   1.00
C709   C     0.18633   0.32165   0.75634   0.00000  Uiso   1.00
C710   C     0.14700   0.01168   0.74367   0.00000  Uiso   1.00
C711   C     0.12798   0.16064   0.83301   0.00000  Uiso   1.00
C712   C     0.20536   0.17270   0.66699   0.00000  Uiso   1.00
C713   C     0.10419   0.15256   0.88084   0.00000  Uiso   1.00
C714   C     0.22914   0.18078   0.61916   0.00000  Uiso   1.00
C715   C     0.02480   0.12247   0.94641   0.00000  Uiso   1.00
C716   C     0.30853   0.21088   0.55360   0.00000  Uiso   1.00
C717   C     0.04116   0.13330   0.90153   0.00000  Uiso   1.00
C718   C     0.29217   0.20005   0.59847   0.00000  Uiso   1.00
C719   C     0.14786   0.16238   0.90633   0.00000  Uiso   1.00
C720   C     0.18547   0.17097   0.59368   0.00000  Uiso   1.00
C721   C     0.13073   0.15908   0.95186   0.00000  Uiso   1.00
C722   C     0.20260   0.17426   0.54814   0.00000  Uiso   1.00
C723   C     0.06977   0.13455   0.97125   0.00000  Uiso   1.00
C724   C     0.26357   0.19880   0.52875   0.00000  Uiso   1.00
C725   C     0.17410   0.17544   0.97815   0.00000  Uiso   1.00
C726   C     0.15923   0.15791   0.52185   0.00000  Uiso   1.00
Cu727  Cu    0.10737   0.16108   0.74516   0.00000  Uiso   1.00
Cu728  Cu    0.22596   0.17225   0.75483   0.00000  Uiso   1.00
H729   H     0.01134   0.09606   0.52897   0.00000  Uiso   1.00
H730   H     0.32199   0.23728   0.97103   0.00000  Uiso   1.00
H731   H     0.13692   0.16332   0.60999   0.00000  Uiso   1.00
H732   H     0.19641   0.17003   0.89001   0.00000  Uiso   1.00
H733   H     0.22423   0.01025   0.76926   0.00000  Uiso   1.00
H734   H     0.10910   0.32309   0.73075   0.00000  Uiso   1.00
N735   N     0.31506   0.18068   0.76212   0.00000  Uiso   1.00
N736   N     0.01827   0.15265   0.73788   0.00000  Uiso   1.00
O737   O     0.12815   0.23809   0.74686   0.00000  Uiso   1.00
O738   O     0.20518   0.09524   0.75314   0.00000  Uiso   1.00
O739   O     0.22829   0.24753   0.75502   0.00000  Uiso   1.00
O740   O     0.10504   0.08580   0.74497   0.00000  Uiso   1.00
O741   O     0.08851   0.15930   0.80854   0.00000  Uiso   1.00
O742   O     0.24482   0.17403   0.69145   0.00000  Uiso   1.00
O743   O     0.18866   0.16874   0.81671   0.00000  Uiso   1.00
O744   O     0.14468   0.16460   0.68329   0.00000  Uiso   1.00
Br745  Br    0.02350   0.21746   0.62968   0.00000  Uiso   1.00
Br746  Br    0.30984   0.11588   0.87032   0.00000  Uiso   1.00
O747   O     0.29705   0.10280   0.96680   0.00000  Uiso   1.00
C748   C     0.28788   0.04788   0.96685   0.00000  Uiso   1.00
H749   H     0.33084   0.03189   0.96556   0.00000  Uiso   1.00
H750   H     0.26969   0.03251   0.93815   0.00000  Uiso   1.00
C751   C     0.23980   0.02842   0.50815   0.00000  Uiso   1.00
H752   H     0.19660   0.04368   0.51044   0.00000  Uiso   1.00
H753   H     0.23010   0.31860   0.50763   0.00000  Uiso   1.00
H754   H     0.25650   0.04156   0.53785   0.00000  Uiso   1.00
O755   O     0.03629   0.23055   0.53320   0.00000  Uiso   1.00
C756   C     0.04545   0.28547   0.53315   0.00000  Uiso   1.00
H757   H     0.06364   0.30084   0.56185   0.00000  Uiso   1.00
H758   H     0.00249   0.30145   0.53444   0.00000  Uiso   1.00
C759   C     0.09353   0.30493   0.99185   0.00000  Uiso   1.00
H760   H     0.07684   0.29179   0.96215   0.00000  Uiso   1.00
H761   H     0.10323   0.01475   0.99236   0.00000  Uiso   1.00
H762   H     0.13673   0.28967   0.98956   0.00000  Uiso   1.00
Br763  Br    0.08657   0.07476   0.58220   0.00000  Uiso   1.00
Br764  Br    0.24677   0.25858   0.91780   0.00000  Uiso   1.00
O765   O     0.01046   0.22995   0.76681   0.00000  Uiso   1.00
C766   C     0.32068   0.24650   0.81007   0.00000  Uiso   1.00
H767   H     0.00022   0.22306   0.83324   0.00000  Uiso   1.00
H768   H     0.26958   0.24335   0.81820   0.00000  Uiso   1.00
C769   C     0.01522   0.30349   0.81602   0.00000  Uiso   1.00
H770   H     0.01142   0.32669   0.78905   0.00000  Uiso   1.00
H771   H     0.32360   0.31984   0.84717   0.00000  Uiso   1.00
H772   H     0.06458   0.30701   0.81696   0.00000  Uiso   1.00
O773   O     0.32287   0.10338   0.73319   0.00000  Uiso   1.00
C774   C     0.01266   0.08684   0.68993   0.00000  Uiso   1.00
H775   H     0.06375   0.08997   0.68181   0.00000  Uiso   1.00
H776   H     0.33314   0.11030   0.66676   0.00000  Uiso   1.00
C777   C     0.31808   0.02986   0.68396   0.00000  Uiso   1.00
H778   H     0.26873   0.02637   0.68301   0.00000  Uiso   1.00
H779   H     0.00969   0.01348   0.65281   0.00000  Uiso   1.00
H780   H     0.32185   0.00664   0.71095   0.00000  Uiso   1.00
C781   C     0.51369   0.26624   0.75241   0.00000  Uiso   1.00
C782   C     0.48631   0.06709   0.74759   0.00000  Uiso   1.00
C783   C     0.43503   0.12442   0.53726   0.00000  Uiso   1.00
C784   C     0.56497   0.20892   0.96274   0.00000  Uiso   1.00
C785   C     0.38943   0.11814   0.51417   0.00000  Uiso   1.00
C786   C     0.61057   0.21521   0.98583   0.00000  Uiso   1.00
C787   C     0.51966   0.32165   0.75634   0.00000  Uiso   1.00
C788   C     0.48034   0.01168   0.74367   0.00000  Uiso   1.00
C789   C     0.46131   0.16064   0.83301   0.00000  Uiso   1.00
C790   C     0.53869   0.17270   0.66699   0.00000  Uiso   1.00
C791   C     0.43752   0.15256   0.88084   0.00000  Uiso   1.00
C792   C     0.56248   0.18078   0.61916   0.00000  Uiso   1.00
C793   C     0.35814   0.12247   0.94641   0.00000  Uiso   1.00
C794   C     0.64186   0.21088   0.55360   0.00000  Uiso   1.00
C795   C     0.37450   0.13330   0.90153   0.00000  Uiso   1.00
C796   C     0.62550   0.20005   0.59847   0.00000  Uiso   1.00
C797   C     0.48120   0.16238   0.90633   0.00000  Uiso   1.00
C798   C     0.51880   0.17097   0.59368   0.00000  Uiso   1.00
C799   C     0.46406   0.15908   0.95186   0.00000  Uiso   1.00
C800   C     0.53594   0.17426   0.54814   0.00000  Uiso   1.00
C801   C     0.40310   0.13455   0.97125   0.00000  Uiso   1.00
C802   C     0.59690   0.19880   0.52875   0.00000  Uiso   1.00
C803   C     0.50744   0.17544   0.97815   0.00000  Uiso   1.00
C804   C     0.49256   0.15791   0.52185   0.00000  Uiso   1.00
Cu805  Cu    0.44071   0.16108   0.74516   0.00000  Uiso   1.00
Cu806  Cu    0.55929   0.17225   0.75483   0.00000  Uiso   1.00
H807   H     0.34467   0.09606   0.52897   0.00000  Uiso   1.00
H808   H     0.65533   0.23728   0.97103   0.00000  Uiso   1.00
H809   H     0.47025   0.16332   0.60999   0.00000  Uiso   1.00
H810   H     0.52975   0.17003   0.89001   0.00000  Uiso   1.00
H811   H     0.55757   0.01025   0.76926   0.00000  Uiso   1.00
H812   H     0.44243   0.32309   0.73075   0.00000  Uiso   1.00
N813   N     0.64839   0.18068   0.76212   0.00000  Uiso   1.00
N814   N     0.35161   0.15265   0.73788   0.00000  Uiso   1.00
O815   O     0.46148   0.23809   0.74686   0.00000  Uiso   1.00
O816   O     0.53852   0.09524   0.75314   0.00000  Uiso   1.00
O817   O     0.56163   0.24753   0.75502   0.00000  Uiso   1.00
O818   O     0.43837   0.08580   0.74497   0.00000  Uiso   1.00
O819   O     0.42185   0.15930   0.80854   0.00000  Uiso   1.00
O820   O     0.57815   0.17403   0.69145   0.00000  Uiso   1.00
O821   O     0.52199   0.16874   0.81671   0.00000  Uiso   1.00
O822   O     0.47801   0.16460   0.68329   0.00000  Uiso   1.00
Br823  Br    0.35683   0.21746   0.62968   0.00000  Uiso   1.00
Br824  Br    0.64317   0.11588   0.87032   0.00000  Uiso   1.00
O825   O     0.63038   0.10280   0.96680   0.00000  Uiso   1.00
C826   C     0.62121   0.04788   0.96685   0.00000  Uiso   1.00
H827   H     0.66418   0.03189   0.96556   0.00000  Uiso   1.00
H828   H     0.60302   0.03251   0.93815   0.00000  Uiso   1.00
C829   C     0.57313   0.02842   0.50815   0.00000  Uiso   1.00
H830   H     0.52993   0.04368   0.51044   0.00000  Uiso   1.00
H831   H     0.56344   0.31860   0.50763   0.00000  Uiso   1.00
H832   H     0.58983   0.04156   0.53785   0.00000  Uiso   1.00
O833   O     0.36962   0.23055   0.53320   0.00000  Uiso   1.00
C834   C     0.37878   0.28547   0.53315   0.00000  Uiso   1.00
H835   H     0.39697   0.30084   0.56185   0.00000  Uiso   1.00
H836   H     0.33582   0.30145   0.53444   0.00000  Uiso   1.00
C837   C     0.42687   0.30493   0.99185   0.00000  Uiso   1.00
H838   H     0.41017   0.29179   0.96215   0.00000  Uiso   1.00
H839   H     0.43656   0.01475   0.99236   0.00000  Uiso   1.00
H840   H     0.47007   0.28967   0.98956   0.00000  Uiso   1.00
Br841  Br    0.41990   0.07476   0.58220   0.00000  Uiso   1.00
Br842  Br    0.58010   0.25858   0.91780   0.00000  Uiso   1.00
O843   O     0.34379   0.22995   0.76681   0.00000  Uiso   1.00
C844   C     0.65401   0.24650   0.81007   0.00000  Uiso   1.00
H845   H     0.33356   0.22306   0.83324   0.00000  Uiso   1.00
H846   H     0.60292   0.24335   0.81820   0.00000  Uiso   1.00
C847   C     0.34856   0.30349   0.81602   0.00000  Uiso   1.00
H848   H     0.34476   0.32669   0.78905   0.00000  Uiso   1.00
H849   H     0.65693   0.31984   0.84717   0.00000  Uiso   1.00
H850   H     0.39791   0.30701   0.81696   0.00000  Uiso   1.00
O851   O     0.65621   0.10338   0.73319   0.00000  Uiso   1.00
C852   C     0.34599   0.08684   0.68993   0.00000  Uiso   1.00
H853   H     0.39708   0.08997   0.68181   0.00000  Uiso   1.00
H854   H     0.66648   0.11030   0.66676   0.00000  Uiso   1.00
C855   C     0.65141   0.02986   0.68396   0.00000  Uiso   1.00
H856   H     0.60206   0.02637   0.68301   0.00000  Uiso   1.00
H857   H     0.34303   0.01348   0.65281   0.00000  Uiso   1.00
H858   H     0.65519   0.00664   0.71095   0.00000  Uiso   1.00
C859   C     0.84702   0.26624   0.75241   0.00000  Uiso   1.00
C860   C     0.81964   0.06709   0.74759   0.00000  Uiso   1.00
C861   C     0.76836   0.12442   0.53726   0.00000  Uiso   1.00
C862   C     0.89830   0.20892   0.96274   0.00000  Uiso   1.00
C863   C     0.72276   0.11814   0.51417   0.00000  Uiso   1.00
C864   C     0.94391   0.21521   0.98583   0.00000  Uiso   1.00
C865   C     0.85300   0.32165   0.75634   0.00000  Uiso   1.00
C866   C     0.81367   0.01168   0.74367   0.00000  Uiso   1.00
C867   C     0.79464   0.16064   0.83301   0.00000  Uiso   1.00
C868   C     0.87202   0.17270   0.66699   0.00000  Uiso   1.00
C869   C     0.77086   0.15256   0.88084   0.00000  Uiso   1.00
C870   C     0.89581   0.18078   0.61916   0.00000  Uiso   1.00
C871   C     0.69147   0.12247   0.94641   0.00000  Uiso   1.00
C872   C     0.97520   0.21088   0.55360   0.00000  Uiso   1.00
C873   C     0.70783   0.13330   0.90153   0.00000  Uiso   1.00
C874   C     0.95884   0.20005   0.59847   0.00000  Uiso   1.00
C875   C     0.81453   0.16238   0.90633   0.00000  Uiso   1.00
C876   C     0.85214   0.17097   0.59368   0.00000  Uiso   1.00
C877   C     0.79740   0.15908   0.95186   0.00000  Uiso   1.00
C878   C     0.86927   0.17426   0.54814   0.00000  Uiso   1.00
C879   C     0.73643   0.13455   0.97125   0.00000  Uiso   1.00
C880   C     0.93023   0.19880   0.52875   0.00000  Uiso   1.00
C881   C     0.84077   0.17544   0.97815   0.00000  Uiso   1.00
C882   C     0.82590   0.15791   0.52185   0.00000  Uiso   1.00
Cu883  Cu    0.77404   0.16108   0.74516   0.00000  Uiso   1.00
Cu884  Cu    0.89263   0.17225   0.75483   0.00000  Uiso   1.00
H885   H     0.67801   0.09606   0.52897   0.00000  Uiso   1.00
H886   H     0.98866   0.23728   0.97103   0.00000  Uiso   1.00
H887   H     0.80359   0.16332   0.60999   0.00000  Uiso   1.00
H888   H     0.86308   0.17003   0.89001   0.00000  Uiso   1.00
H889   H     0.89090   0.01025   0.76926   0.00000  Uiso   1.00
H890   H     0.77576   0.32309   0.73075   0.00000  Uiso   1.00
N891   N     0.98173   0.18068   0.76212   0.00000  Uiso   1.00
N892   N     0.68494   0.15265   0.73788   0.00000  Uiso   1.00
O893   O     0.79482   0.23809   0.74686   0.00000  Uiso   1.00
O894   O     0.87185   0.09524   0.75314   0.00000  Uiso   1.00
O895   O     0.89496   0.24753   0.75502   0.00000  Uiso   1.00
O896   O     0.77171   0.08580   0.74497   0.00000  Uiso   1.00
O897   O     0.75518   0.15930   0.80854   0.00000  Uiso   1.00
O898   O     0.91149   0.17403   0.69145   0.00000  Uiso   1.00
O899   O     0.85532   0.16874   0.81671   0.00000  Uiso   1.00
O900   O     0.81134   0.16460   0.68329   0.00000  Uiso   1.00
Br901  Br    0.69016   0.21746   0.62968   0.00000  Uiso   1.00
Br902  Br    0.97650   0.11588   0.87032   0.00000  Uiso   1.00
O903   O     0.96371   0.10280   0.96680   0.00000  Uiso   1.00
C904   C     0.95454   0.04788   0.96685   0.00000  Uiso   1.00
H905   H     0.99751   0.03189   0.96556   0.00000  Uiso   1.00
H906   H     0.93635   0.03251   0.93815   0.00000  Uiso   1.00
C907   C     0.90647   0.02842   0.50815   0.00000  Uiso   1.00
H908   H     0.86327   0.04368   0.51044   0.00000  Uiso   1.00
H909   H     0.89677   0.31860   0.50763   0.00000  Uiso   1.00
H910   H     0.92317   0.04156   0.53785   0.00000  Uiso   1.00
O911   O     0.70295   0.23055   0.53320   0.00000  Uiso   1.00
C912   C     0.71212   0.28547   0.53315   0.00000  Uiso   1.00
H913   H     0.73030   0.30084   0.56185   0.00000  Uiso   1.00
H914   H     0.66915   0.30145   0.53444   0.00000  Uiso   1.00
C915   C     0.76020   0.30493   0.99185   0.00000  Uiso   1.00
H916   H     0.74351   0.29179   0.96215   0.00000  Uiso   1.00
H917   H     0.76989   0.01475   0.99236   0.00000  Uiso   1.00
H918   H     0.80340   0.28967   0.98956   0.00000  Uiso   1.00
Br919  Br    0.75323   0.07476   0.58220   0.00000  Uiso   1.00
Br920  Br    0.91343   0.25858   0.91780   0.00000  Uiso   1.00
O921   O     0.67712   0.22995   0.76681   0.00000  Uiso   1.00
C922   C     0.98735   0.24650   0.81007   0.00000  Uiso   1.00
H923   H     0.66689   0.22306   0.83324   0.00000  Uiso   1.00
H924   H     0.93625   0.24335   0.81820   0.00000  Uiso   1.00
C925   C     0.68189   0.30349   0.81602   0.00000  Uiso   1.00
H926   H     0.67809   0.32669   0.78905   0.00000  Uiso   1.00
H927   H     0.99027   0.31984   0.84717   0.00000  Uiso   1.00
H928   H     0.73124   0.30701   0.81696   0.00000  Uiso   1.00
O929   O     0.98954   0.10338   0.73319   0.00000  Uiso   1.00
C930   C     0.67932   0.08684   0.68993   0.00000  Uiso   1.00
H931   H     0.73042   0.08997   0.68181   0.00000  Uiso   1.00
H932   H     0.99981   0.11030   0.66676   0.00000  Uiso   1.00
C933   C     0.98474   0.02986   0.68396   0.00000  Uiso   1.00
H934   H     0.93539   0.02637   0.68301   0.00000  Uiso   1.00
H935   H     0.67636   0.01348   0.65281   0.00000  Uiso   1.00
H936   H     0.98852   0.00664   0.71095   0.00000  Uiso   1.00
C937   C     0.18036   0.59958   0.75241   0.00000  Uiso   1.00
C938   C     0.15298   0.40042   0.74759   0.00000  Uiso   1.00
C939   C     0.10170   0.45776   0.53726   0.00000  Uiso   1.00
C940   C     0.23164   0.54226   0.96274   0.00000  Uiso   1.00
C941   C     0.05609   0.45147   0.51417   0.00000  Uiso   1.00
C942   C     0.27724   0.54854   0.98583   0.00000  Uiso   1.00
C943   C     0.18633   0.65499   0.75634   0.00000  Uiso   1.00
C944   C     0.14700   0.34501   0.74367   0.00000  Uiso   1.00
C945   C     0.12798   0.49397   0.83301   0.00000  Uiso   1.00
C946   C     0.20536   0.50603   0.66699   0.00000  Uiso   1.00
C947   C     0.10419   0.48589   0.88084   0.00000  Uiso   1.00
C948   C     0.22914   0.51411   0.61916   0.00000  Uiso   1.00
C949   C     0.02480   0.45580   0.94641   0.00000  Uiso   1.00
C950   C     0.30853   0.54421   0.55360   0.00000  Uiso   1.00
C951   C     0.04116   0.46663   0.90153   0.00000  Uiso   1.00
C952   C     0.29217   0.53338   0.59847   0.00000  Uiso   1.00
C953   C     0.14786   0.49571   0.90633   0.00000  Uiso   1.00
C954   C     0.18547   0.50430   0.59368   0.00000  Uiso   1.00
C955   C     0.13073   0.49242   0.95186   0.00000  Uiso   1.00
C956   C     0.20260   0.50760   0.54814   0.00000  Uiso   1.00
C957   C     0.06977   0.46788   0.97125   0.00000  Uiso   1.00
C958   C     0.26357   0.53213   0.52875   0.00000  Uiso   1.00
C959   C     0.17410   0.50877   0.97815   0.00000  Uiso   1.00
C960   C     0.15923   0.49124   0.52185   0.00000  Uiso   1.00
Cu961  Cu    0.10737   0.49441   0.74516   0.00000  Uiso   1.00
Cu962  Cu    0.22596   0.50559   0.75483   0.00000  Uiso   1.00
H963   H     0.01134   0.42939   0.52897   0.00000  Uiso   1.00
H964   H     0.32199   0.57062   0.97103   0.00000  Uiso   1.00
H965   H     0.13692   0.49665   0.60999   0.00000  Uiso   1.00
H966   H     0.19641   0.50336   0.89001   0.00000  Uiso   1.00
H967   H     0.22423   0.34358   0.76926   0.00000  Uiso   1.00
H968   H     0.10910   0.65642   0.73075   0.00000  Uiso   1.00
N969   N     0.31506   0.51401   0.76212   0.00000  Uiso   1.00
N970   N     0.01827   0.48599   0.73788   0.00000  Uiso   1.00
O971   O     0.12815   0.57142   0.74686   0.00000  Uiso   1.00
O972   O     0.20518   0.42858   0.75314   0.00000  Uiso   1.00
O973   O     0.22829   0.58086   0.75502   0.00000  Uiso   1.00
O974   O     0.10504   0.41914   0.74497   0.00000  Uiso   1.00
O975   O     0.08851   0.49263   0.80854   0.00000  Uiso   1.00
O976   O     0.24482   0.50737   0.69145   0.00000  Uiso   1.00
O977   O     0.18866   0.50207   0.81671   0.00000  Uiso   1.00
O978   O     0.14468   0.49793   0.68329   0.00000  Uiso   1.00
Br979  Br    0.02350   0.55080   0.62968   0.00000  Uiso   1.00
Br980  Br    0.30984   0.44921   0.87032   0.00000  Uiso   1.00
O981   O     0.29705   0.43613   0.96680   0.00000  Uiso   1.00
C982   C     0.28788   0.38121   0.96685   0.00000  Uiso   1.00
H983   H     0.33084   0.36523   0.96556   0.00000  Uiso   1.00
H984   H     0.26969   0.36584   0.93815   0.00000  Uiso   1.00
C985   C     0.23980   0.36175   0.50815   0.00000  Uiso   1.00
H986   H     0.19660   0.37701   0.51044   0.00000  Uiso   1.00
H987   H     0.23010   0.65193   0.50763   0.00000  Uiso   1.00
H988   H     0.25650   0.37489   0.53785   0.00000  Uiso   1.00
O989   O     0.03629   0.56388   0.53320   0.00000  Uiso   1.00
C990   C     0.04545   0.61880   0.53315   0.00000  Uiso   1.00
H991   H     0.06364   0.63418   0.56185   0.00000  Uiso   1.00
H992   H     0.00249   0.63479   0.53444   0.00000  Uiso   1.00
C993   C     0.09353   0.63826   0.99185   0.00000  Uiso   1.00
H994   H     0.07684   0.62512   0.96215   0.00000  Uiso   1.00
H995   H     0.10323   0.34808   0.99236   0.00000  Uiso   1.00
H996   H     0.13673   0.62301   0.98956   0.00000  Uiso   1.00
Br997  Br    0.08657   0.40810   0.58220   0.00000  Uiso   1.00
Br998  Br    0.24677   0.59192   0.91780   0.00000  Uiso   1.00
O999   O     0.01046   0.56328   0.76681   0.00000  Uiso   1.00
C1000  C     0.32068   0.57983   0.81007   0.00000  Uiso   1.00
H1001  H     0.00022   0.55640   0.83324   0.00000  Uiso   1.00
H1002  H     0.26958   0.57668   0.81820   0.00000  Uiso   1.00
C1003  C     0.01522   0.63682   0.81602   0.00000  Uiso   1.00
H1004  H     0.01142   0.66002   0.78905   0.00000  Uiso   1.00
H1005  H     0.32360   0.65318   0.84717   0.00000  Uiso   1.00
H1006  H     0.06458   0.64035   0.81696   0.00000  Uiso   1.00
O1007  O     0.32287   0.43672   0.73319   0.00000  Uiso   1.00
C1008  C     0.01266   0.42017   0.68993   0.00000  Uiso   1.00
H1009  H     0.06375   0.42330   0.68181   0.00000  Uiso   1.00
H1010  H     0.33314   0.44363   0.66676   0.00000  Uiso   1.00
C1011  C     0.31808   0.36319   0.68396   0.00000  Uiso   1.00
H1012  H     0.26873   0.35970   0.68301   0.00000  Uiso   1.00
H1013  H     0.00969   0.34681   0.65281   0.00000  Uiso   1.00
H1014  H     0.32185   0.33998   0.71095   0.00000  Uiso   1.00
C1015  C     0.51369   0.59958   0.75241   0.00000  Uiso   1.00
C1016  C     0.48631   0.40042   0.74759   0.00000  Uiso   1.00
C1017  C     0.43503   0.45776   0.53726   0.00000  Uiso   1.00
C1018  C     0.56497   0.54226   0.96274   0.00000  Uiso   1.00
C1019  C     0.38943   0.45147   0.51417   0.00000  Uiso   1.00
C1020  C     0.61057   0.54854   0.98583   0.00000  Uiso   1.00
C1021  C     0.51966   0.65499   0.75634   0.00000  Uiso   1.00
C1022  C     0.48034   0.34501   0.74367   0.00000  Uiso   1.00
C1023  C     0.46131   0.49397   0.83301   0.00000  Uiso   1.00
C1024  C     0.53869   0.50603   0.66699   0.00000  Uiso   1.00
C1025  C     0.43752   0.48589   0.88084   0.00000  Uiso   1.00
C1026  C     0.56248   0.51411   0.61916   0.00000  Uiso   1.00
C1027  C     0.35814   0.45580   0.94641   0.00000  Uiso   1.00
C1028  C     0.64186   0.54421   0.55360   0.00000  Uiso   1.00
C1029  C     0.37450   0.46663   0.90153   0.00000  Uiso   1.00
C1030  C     0.62550   0.53338   0.59847   0.00000  Uiso   1.00
C1031  C     0.48120   0.49571   0.90633   0.00000  Uiso   1.00
C1032  C     0.51880   0.50430   0.59368   0.00000  Uiso   1.00
C1033  C     0.46406   0.49242   0.95186   0.00000  Uiso   1.00
C1034  C     0.53594   0.50760   0.54814   0.00000  Uiso   1.00
C1035  C     0.40310   0.46788   0.97125   0.00000  Uiso   1.00
C1036  C     0.59690   0.53213   0.52875   0.00000  Uiso   1.00
C1037  C     0.50744   0.50877   0.97815   0.00000  Uiso   1.00
C1038  C     0.49256   0.49124   0.52185   0.00000  Uiso   1.00
Cu1039 Cu    0.44071   0.49441   0.74516   0.00000  Uiso   1.00
Cu1040 Cu    0.55929   0.50559   0.75483   0.00000  Uiso   1.00
H1041  H     0.34467   0.42939   0.52897   0.00000  Uiso   1.00
H1042  H     0.65533   0.57062   0.97103   0.00000  Uiso   1.00
H1043  H     0.47025   0.49665   0.60999   0.00000  Uiso   1.00
H1044  H     0.52975   0.50336   0.89001   0.00000  Uiso   1.00
H1045  H     0.55757   0.34358   0.76926   0.00000  Uiso   1.00
H1046  H     0.44243   0.65642   0.73075   0.00000  Uiso   1.00
N1047  N     0.64839   0.51401   0.76212   0.00000  Uiso   1.00
N1048  N     0.35161   0.48599   0.73788   0.00000  Uiso   1.00
O1049  O     0.46148   0.57142   0.74686   0.00000  Uiso   1.00
O1050  O     0.53852   0.42858   0.75314   0.00000  Uiso   1.00
O1051  O     0.56163   0.58086   0.75502   0.00000  Uiso   1.00
O1052  O     0.43837   0.41914   0.74497   0.00000  Uiso   1.00
O1053  O     0.42185   0.49263   0.80854   0.00000  Uiso   1.00
O1054  O     0.57815   0.50737   0.69145   0.00000  Uiso   1.00
O1055  O     0.52199   0.50207   0.81671   0.00000  Uiso   1.00
O1056  O     0.47801   0.49793   0.68329   0.00000  Uiso   1.00
Br1057 Br    0.35683   0.55080   0.62968   0.00000  Uiso   1.00
Br1058 Br    0.64317   0.44921   0.87032   0.00000  Uiso   1.00
O1059  O     0.63038   0.43613   0.96680   0.00000  Uiso   1.00
C1060  C     0.62121   0.38121   0.96685   0.00000  Uiso   1.00
H1061  H     0.66418   0.36523   0.96556   0.00000  Uiso   1.00
H1062  H     0.60302   0.36584   0.93815   0.00000  Uiso   1.00
C1063  C     0.57313   0.36175   0.50815   0.00000  Uiso   1.00
H1064  H     0.52993   0.37701   0.51044   0.00000  Uiso   1.00
H1065  H     0.56344   0.65193   0.50763   0.00000  Uiso   1.00
H1066  H     0.58983   0.37489   0.53785   0.00000  Uiso   1.00
O1067  O     0.36962   0.56388   0.53320   0.00000  Uiso   1.00
C1068  C     0.37878   0.61880   0.53315   0.00000  Uiso   1.00
H1069  H     0.39697   0.63418   0.56185   0.00000  Uiso   1.00
H1070  H     0.33582   0.63479   0.53444   0.00000  Uiso   1.00
C1071  C     0.42687   0.63826   0.99185   0.00000  Uiso   1.00
H1072  H     0.41017   0.62512   0.96215   0.00000  Uiso   1.00
H1073  H     0.43656   0.34808   0.99236   0.00000  Uiso   1.00
H1074  H     0.47007   0.62301   0.98956   0.00000  Uiso   1.00
Br1075 Br    0.41990   0.40810   0.58220   0.00000  Uiso   1.00
Br1076 Br    0.58010   0.59192   0.91780   0.00000  Uiso   1.00
O1077  O     0.34379   0.56328   0.76681   0.00000  Uiso   1.00
C1078  C     0.65401   0.57983   0.81007   0.00000  Uiso   1.00
H1079  H     0.33356   0.55640   0.83324   0.00000  Uiso   1.00
H1080  H     0.60292   0.57668   0.81820   0.00000  Uiso   1.00
C1081  C     0.34856   0.63682   0.81602   0.00000  Uiso   1.00
H1082  H     0.34476   0.66002   0.78905   0.00000  Uiso   1.00
H1083  H     0.65693   0.65318   0.84717   0.00000  Uiso   1.00
H1084  H     0.39791   0.64035   0.81696   0.00000  Uiso   1.00
O1085  O     0.65621   0.43672   0.73319   0.00000  Uiso   1.00
C1086  C     0.34599   0.42017   0.68993   0.00000  Uiso   1.00
H1087  H     0.39708   0.42330   0.68181   0.00000  Uiso   1.00
H1088  H     0.66648   0.44363   0.66676   0.00000  Uiso   1.00
C1089  C     0.65141   0.36319   0.68396   0.00000  Uiso   1.00
H1090  H     0.60206   0.35970   0.68301   0.00000  Uiso   1.00
H1091  H     0.34303   0.34681   0.65281   0.00000  Uiso   1.00
H1092  H     0.65519   0.33998   0.71095   0.00000  Uiso   1.00
C1093  C     0.84702   0.59958   0.75241   0.00000  Uiso   1.00
C1094  C     0.81964   0.40042   0.74759   0.00000  Uiso   1.00
C1095  C     0.76836   0.45776   0.53726   0.00000  Uiso   1.00
C1096  C     0.89830   0.54226   0.96274   0.00000  Uiso   1.00
C1097  C     0.72276   0.45147   0.51417   0.00000  Uiso   1.00
C1098  C     0.94391   0.54854   0.98583   0.00000  Uiso   1.00
C1099  C     0.85300   0.65499   0.75634   0.00000  Uiso   1.00
C1100  C     0.81367   0.34501   0.74367   0.00000  Uiso   1.00
C1101  C     0.79464   0.49397   0.83301   0.00000  Uiso   1.00
C1102  C     0.87202   0.50603   0.66699   0.00000  Uiso   1.00
C1103  C     0.77086   0.48589   0.88084   0.00000  Uiso   1.00
C1104  C     0.89581   0.51411   0.61916   0.00000  Uiso   1.00
C1105  C     0.69147   0.45580   0.94641   0.00000  Uiso   1.00
C1106  C     0.97520   0.54421   0.55360   0.00000  Uiso   1.00
C1107  C     0.70783   0.46663   0.90153   0.00000  Uiso   1.00
C1108  C     0.95884   0.53338   0.59847   0.00000  Uiso   1.00
C1109  C     0.81453   0.49571   0.90633   0.00000  Uiso   1.00
C1110  C     0.85214   0.50430   0.59368   0.00000  Uiso   1.00
C1111  C     0.79740   0.49242   0.95186   0.00000  Uiso   1.00
C1112  C     0.86927   0.50760   0.54814   0.00000  Uiso   1.00
C1113  C     0.73643   0.46788   0.97125   0.00000  Uiso   1.00
C1114  C     0.93023   0.53213   0.52875   0.00000  Uiso   1.00
C1115  C     0.84077   0.50877   0.97815   0.00000  Uiso   1.00
C1116  C     0.82590   0.49124   0.52185   0.00000  Uiso   1.00
Cu1117 Cu    0.77404   0.49441   0.74516   0.00000  Uiso   1.00
Cu1118 Cu    0.89263   0.50559   0.75483   0.00000  Uiso   1.00
H1119  H     0.67801   0.42939   0.52897   0.00000  Uiso   1.00
H1120  H     0.98866   0.57062   0.97103   0.00000  Uiso   1.00
H1121  H     0.80359   0.49665   0.60999   0.00000  Uiso   1.00
H1122  H     0.86308   0.50336   0.89001   0.00000  Uiso   1.00
H1123  H     0.89090   0.34358   0.76926   0.00000  Uiso   1.00
H1124  H     0.77576   0.65642   0.73075   0.00000  Uiso   1.00
N1125  N     0.98173   0.51401   0.76212   0.00000  Uiso   1.00
N1126  N     0.68494   0.48599   0.73788   0.00000  Uiso   1.00
O1127  O     0.79482   0.57142   0.74686   0.00000  Uiso   1.00
O1128  O     0.87185   0.42858   0.75314   0.00000  Uiso   1.00
O1129  O     0.89496   0.58086   0.75502   0.00000  Uiso   1.00
O1130  O     0.77171   0.41914   0.74497   0.00000  Uiso   1.00
O1131  O     0.75518   0.49263   0.80854   0.00000  Uiso   1.00
O1132  O     0.91149   0.50737   0.69145   0.00000  Uiso   1.00
O1133  O     0.85532   0.50207   0.81671   0.00000  Uiso   1.00
O1134  O     0.81134   0.49793   0.68329   0.00000  Uiso   1.00
Br1135 Br    0.69016   0.55080   0.62968   0.00000  Uiso   1.00
Br1136 Br    0.97650   0.44921   0.87032   0.00000  Uiso   1.00
O1137  O     0.96371   0.43613   0.96680   0.00000  Uiso   1.00
C1138  C     0.95454   0.38121   0.96685   0.00000  Uiso   1.00
H1139  H     0.99751   0.36523   0.96556   0.00000  Uiso   1.00
H1140  H     0.93635   0.36584   0.93815   0.00000  Uiso   1.00
C1141  C     0.90647   0.36175   0.50815   0.00000  Uiso   1.00
H1142  H     0.86327   0.37701   0.51044   0.00000  Uiso   1.00
H1143  H     0.89677   0.65193   0.50763   0.00000  Uiso   1.00
H1144  H     0.92317   0.37489   0.53785   0.00000  Uiso   1.00
O1145  O     0.70295   0.56388   0.53320   0.00000  Uiso   1.00
C1146  C     0.71212   0.61880   0.53315   0.00000  Uiso   1.00
H1147  H     0.73030   0.63418   0.56185   0.00000  Uiso   1.00
H1148  H     0.66915   0.63479   0.53444   0.00000  Uiso   1.00
C1149  C     0.76020   0.63826   0.99185   0.00000  Uiso   1.00
H1150  H     0.74351   0.62512   0.96215   0.00000  Uiso   1.00
H1151  H     0.76989   0.34808   0.99236   0.00000  Uiso   1.00
H1152  H     0.80340   0.62301   0.98956   0.00000  Uiso   1.00
Br1153 Br    0.75323   0.40810   0.58220   0.00000  Uiso   1.00
Br1154 Br    0.91343   0.59192   0.91780   0.00000  Uiso   1.00
O1155  O     0.67712   0.56328   0.76681   0.00000  Uiso   1.00
C1156  C     0.98735   0.57983   0.81007   0.00000  Uiso   1.00
H1157  H     0.66689   0.55640   0.83324   0.00000  Uiso   1.00
H1158  H     0.93625   0.57668   0.81820   0.00000  Uiso   1.00
C1159  C     0.68189   0.63682   0.81602   0.00000  Uiso   1.00
H1160  H     0.67809   0.66002   0.78905   0.00000  Uiso   1.00
H1161  H     0.99027   0.65318   0.84717   0.00000  Uiso   1.00
H1162  H     0.73124   0.64035   0.81696   0.00000  Uiso   1.00
O1163  O     0.98954   0.43672   0.73319   0.00000  Uiso   1.00
C1164  C     0.67932   0.42017   0.68993   0.00000  Uiso   1.00
H1165  H     0.73042   0.42330   0.68181   0.00000  Uiso   1.00
H1166  H     0.99981   0.44363   0.66676   0.00000  Uiso   1.00
C1167  C     0.98474   0.36319   0.68396   0.00000  Uiso   1.00
H1168  H     0.93539   0.35970   0.68301   0.00000  Uiso   1.00
H1169  H     0.67636   0.34681   0.65281   0.00000  Uiso   1.00
H1170  H     0.98852   0.33998   0.71095   0.00000  Uiso   1.00
C1171  C     0.18036   0.93291   0.75241   0.00000  Uiso   1.00
C1172  C     0.15298   0.73376   0.74759   0.00000  Uiso   1.00
C1173  C     0.10170   0.79109   0.53726   0.00000  Uiso   1.00
C1174  C     0.23164   0.87559   0.96274   0.00000  Uiso   1.00
C1175  C     0.05609   0.78481   0.51417   0.00000  Uiso   1.00
C1176  C     0.27724   0.88187   0.98583   0.00000  Uiso   1.00
C1177  C     0.18633   0.98832   0.75634   0.00000  Uiso   1.00
C1178  C     0.14700   0.67835   0.74367   0.00000  Uiso   1.00
C1179  C     0.12798   0.82730   0.83301   0.00000  Uiso   1.00
C1180  C     0.20536   0.83937   0.66699   0.00000  Uiso   1.00
C1181  C     0.10419   0.81923   0.88084   0.00000  Uiso   1.00
C1182  C     0.22914   0.84745   0.61916   0.00000  Uiso   1.00
C1183  C     0.02480   0.78914   0.94641   0.00000  Uiso   1.00
C1184  C     0.30853   0.87754   0.55360   0.00000  Uiso   1.00
C1185  C     0.04116   0.79996   0.90153   0.00000  Uiso   1.00
C1186  C     0.29217   0.86671   0.59847   0.00000  Uiso   1.00
C1187  C     0.14786   0.82905   0.90633   0.00000  Uiso   1.00
C1188  C     0.18547   0.83763   0.59368   0.00000  Uiso   1.00
C1189  C     0.13073   0.82575   0.95186   0.00000  Uiso   1.00
C1190  C     0.20260   0.84093   0.54814   0.00000  Uiso   1.00
C1191  C     0.06977   0.80122   0.97125   0.00000  Uiso   1.00
C1192  C     0.26357   0.86546   0.52875   0.00000  Uiso   1.00
C1193  C     0.17410   0.84211   0.97815   0.00000  Uiso   1.00
C1194  C     0.15923   0.82458   0.52185   0.00000  Uiso   1.00
Cu1195 Cu    0.10737   0.82775   0.74516   0.00000  Uiso   1.00
Cu1196 Cu    0.22596   0.83892   0.75483   0.00000  Uiso   1.00
H1197  H     0.01134   0.76273   0.52897   0.00000  Uiso   1.00
H1198  H     0.32199   0.90395   0.97103   0.00000  Uiso   1.00
H1199  H     0.13692   0.82999   0.60999   0.00000  Uiso   1.00
H1200  H     0.19641   0.83669   0.89001   0.00000  Uiso   1.00
H1201  H     0.22423   0.67691   0.76926   0.00000  Uiso   1.00
H1202  H     0.10910   0.98975   0.73075   0.00000  Uiso   1.00
N1203  N     0.31506   0.84735   0.76212   0.00000  Uiso   1.00
N1204  N     0.01827   0.81932   0.73788   0.00000  Uiso   1.00
O1205  O     0.12815   0.90476   0.74686   0.00000  Uiso   1.00
O1206  O     0.20518   0.76191   0.75314   0.00000  Uiso   1.00
O1207  O     0.22829   0.91420   0.75502   0.00000  Uiso   1.00
O1208  O     0.10504   0.75247   0.74497   0.00000  Uiso   1.00
O1209  O     0.08851   0.82597   0.80854   0.00000  Uiso   1.00
O1210  O     0.24482   0.84070   0.69145   0.00000  Uiso   1.00
O1211  O     0.18866   0.83540   0.81671   0.00000  Uiso   1.00
O1212  O     0.14468   0.83126   0.68329   0.00000  Uiso   1.00
Br1213 Br    0.02350   0.88413   0.62968   0.00000  Uiso   1.00
Br1214 Br    0.30984   0.78255   0.87032   0.00000  Uiso   1.00
O1215  O     0.29705   0.76947   0.96680   0.00000  Uiso   1.00
C1216  C     0.28788   0.71455   0.96685   0.00000  Uiso   1.00
H1217  H     0.33084   0.69856   0.96556   0.00000  Uiso   1.00
H1218  H     0.26969   0.69917   0.93815   0.00000  Uiso   1.00
C1219  C     0.23980   0.69509   0.50815   0.00000  Uiso   1.00
H1220  H     0.19660   0.71035   0.51044   0.00000  Uiso   1.00
H1221  H     0.23010   0.98527   0.50763   0.00000  Uiso   1.00
H1222  H     0.25650   0.70823   0.53785   0.00000  Uiso   1.00
O1223  O     0.03629   0.89721   0.53320   0.00000  Uiso   1.00
C1224  C     0.04545   0.95214   0.53315   0.00000  Uiso   1.00
H1225  H     0.06364   0.96751   0.56185   0.00000  Uiso   1.00
H1226  H     0.00249   0.96812   0.53444   0.00000  Uiso   1.00
C1227  C     0.09353   0.97160   0.99185   0.00000  Uiso   1.00
H1228  H     0.07684   0.95845   0.96215   0.00000  Uiso   1.00
H1229  H     0.10323   0.68142   0.99236   0.00000  Uiso   1.00
H1230  H     0.13673   0.95634   0.98956   0.00000  Uiso   1.00
Br1231 Br    0.08657   0.74143   0.58220   0.00000  Uiso   1.00
Br1232 Br    0.24677   0.92525   0.91780   0.00000  Uiso   1.00
O1233  O     0.01046   0.89662   0.76681   0.00000  Uiso   1.00
C1234  C     0.32068   0.91316   0.81007   0.00000  Uiso   1.00
H1235  H     0.00022   0.88973   0.83324   0.00000  Uiso   1.00
H1236  H     0.26958   0.91001   0.81820   0.00000  Uiso   1.00
C1237  C     0.01522   0.97016   0.81602   0.00000  Uiso   1.00
H1238  H     0.01142   0.99336   0.78905   0.00000  Uiso   1.00
H1239  H     0.32360   0.98651   0.84717   0.00000  Uiso   1.00
H1240  H     0.06458   0.97368   0.81696   0.00000  Uiso   1.00
O1241  O     0.32287   0.77005   0.73319   0.00000  Uiso   1.00
C1242  C     0.01266   0.75351   0.68993   0.00000  Uiso   1.00
H1243  H     0.06375   0.75663   0.68181   0.00000  Uiso   1.00
H1244  H     0.33314   0.77696   0.66676   0.00000  Uiso   1.00
C1245  C     0.31808   0.69652   0.68396   0.00000  Uiso   1.00
H1246  H     0.26873   0.69303   0.68301   0.00000  Uiso   1.00
H1247  H     0.00969   0.68014   0.65281   0.00000  Uiso   1.00
H1248  H     0.32185   0.67331   0.71095   0.00000  Uiso   1.00
C1249  C     0.51369   0.93291   0.75241   0.00000  Uiso   1.00
C1250  C     0.48631   0.73376   0.74759   0.00000  Uiso   1.00
C1251  C     0.43503   0.79109   0.53726   0.00000  Uiso   1.00
C1252  C     0.56497   0.87559   0.96274   0.00000  Uiso   1.00
C1253  C     0.38943   0.78481   0.51417   0.00000  Uiso   1.00
C1254  C     0.61057   0.88187   0.98583   0.00000  Uiso   1.00
C1255  C     0.51966   0.98832   0.75634   0.00000  Uiso   1.00
C1256  C     0.48034   0.67835   0.74367   0.00000  Uiso   1.00
C1257  C     0.46131   0.82730   0.83301   0.00000  Uiso   1.00
C1258  C     0.53869   0.83937   0.66699   0.00000  Uiso   1.00
C1259  C     0.43752   0.81923   0.88084   0.00000  Uiso   1.00
C1260  C     0.56248   0.84745   0.61916   0.00000  Uiso   1.00
C1261  C     0.35814   0.78914   0.94641   0.00000  Uiso   1.00
C1262  C     0.64186   0.87754   0.55360   0.00000  Uiso   1.00
C1263  C     0.37450   0.79996   0.90153   0.00000  Uiso   1.00
C1264  C     0.62550   0.86671   0.59847   0.00000  Uiso   1.00
C1265  C     0.48120   0.82905   0.90633   0.00000  Uiso   1.00
C1266  C     0.51880   0.83763   0.59368   0.00000  Uiso   1.00
C1267  C     0.46406   0.82575   0.95186   0.00000  Uiso   1.00
C1268  C     0.53594   0.84093   0.54814   0.00000  Uiso   1.00
C1269  C     0.40310   0.80122   0.97125   0.00000  Uiso   1.00
C1270  C     0.59690   0.86546   0.52875   0.00000  Uiso   1.00
C1271  C     0.50744   0.84211   0.97815   0.00000  Uiso   1.00
C1272  C     0.49256   0.82458   0.52185   0.00000  Uiso   1.00
Cu1273 Cu    0.44071   0.82775   0.74516   0.00000  Uiso   1.00
Cu1274 Cu    0.55929   0.83892   0.75483   0.00000  Uiso   1.00
H1275  H     0.34467   0.76273   0.52897   0.00000  Uiso   1.00
H1276  H     0.65533   0.90395   0.97103   0.00000  Uiso   1.00
H1277  H     0.47025   0.82999   0.60999   0.00000  Uiso   1.00
H1278  H     0.52975   0.83669   0.89001   0.00000  Uiso   1.00
H1279  H     0.55757   0.67691   0.76926   0.00000  Uiso   1.00
H1280  H     0.44243   0.98975   0.73075   0.00000  Uiso   1.00
N1281  N     0.64839   0.84735   0.76212   0.00000  Uiso   1.00
N1282  N     0.35161   0.81932   0.73788   0.00000  Uiso   1.00
O1283  O     0.46148   0.90476   0.74686   0.00000  Uiso   1.00
O1284  O     0.53852   0.76191   0.75314   0.00000  Uiso   1.00
O1285  O     0.56163   0.91420   0.75502   0.00000  Uiso   1.00
O1286  O     0.43837   0.75247   0.74497   0.00000  Uiso   1.00
O1287  O     0.42185   0.82597   0.80854   0.00000  Uiso   1.00
O1288  O     0.57815   0.84070   0.69145   0.00000  Uiso   1.00
O1289  O     0.52199   0.83540   0.81671   0.00000  Uiso   1.00
O1290  O     0.47801   0.83126   0.68329   0.00000  Uiso   1.00
Br1291 Br    0.35683   0.88413   0.62968   0.00000  Uiso   1.00
Br1292 Br    0.64317   0.78255   0.87032   0.00000  Uiso   1.00
O1293  O     0.63038   0.76947   0.96680   0.00000  Uiso   1.00
C1294  C     0.62121   0.71455   0.96685   0.00000  Uiso   1.00
H1295  H     0.66418   0.69856   0.96556   0.00000  Uiso   1.00
H1296  H     0.60302   0.69917   0.93815   0.00000  Uiso   1.00
C1297  C     0.57313   0.69509   0.50815   0.00000  Uiso   1.00
H1298  H     0.52993   0.71035   0.51044   0.00000  Uiso   1.00
H1299  H     0.56344   0.98527   0.50763   0.00000  Uiso   1.00
H1300  H     0.58983   0.70823   0.53785   0.00000  Uiso   1.00
O1301  O     0.36962   0.89721   0.53320   0.00000  Uiso   1.00
C1302  C     0.37878   0.95214   0.53315   0.00000  Uiso   1.00
H1303  H     0.39697   0.96751   0.56185   0.00000  Uiso   1.00
H1304  H     0.33582   0.96812   0.53444   0.00000  Uiso   1.00
C1305  C     0.42687   0.97160   0.99185   0.00000  Uiso   1.00
H1306  H     0.41017   0.95845   0.96215   0.00000  Uiso   1.00
H1307  H     0.43656   0.68142   0.99236   0.00000  Uiso   1.00
H1308  H     0.47007   0.95634   0.98956   0.00000  Uiso   1.00
Br1309 Br    0.41990   0.74143   0.58220   0.00000  Uiso   1.00
Br1310 Br    0.58010   0.92525   0.91780   0.00000  Uiso   1.00
O1311  O     0.34379   0.89662   0.76681   0.00000  Uiso   1.00
C1312  C     0.65401   0.91316   0.81007   0.00000  Uiso   1.00
H1313  H     0.33356   0.88973   0.83324   0.00000  Uiso   1.00
H1314  H     0.60292   0.91001   0.81820   0.00000  Uiso   1.00
C1315  C     0.34856   0.97016   0.81602   0.00000  Uiso   1.00
H1316  H     0.34476   0.99336   0.78905   0.00000  Uiso   1.00
H1317  H     0.65693   0.98651   0.84717   0.00000  Uiso   1.00
H1318  H     0.39791   0.97368   0.81696   0.00000  Uiso   1.00
O1319  O     0.65621   0.77005   0.73319   0.00000  Uiso   1.00
C1320  C     0.34599   0.75351   0.68993   0.00000  Uiso   1.00
H1321  H     0.39708   0.75663   0.68181   0.00000  Uiso   1.00
H1322  H     0.66648   0.77696   0.66676   0.00000  Uiso   1.00
C1323  C     0.65141   0.69652   0.68396   0.00000  Uiso   1.00
H1324  H     0.60206   0.69303   0.68301   0.00000  Uiso   1.00
H1325  H     0.34303   0.68014   0.65281   0.00000  Uiso   1.00
H1326  H     0.65519   0.67331   0.71095   0.00000  Uiso   1.00
C1327  C     0.84702   0.93291   0.75241   0.00000  Uiso   1.00
C1328  C     0.81964   0.73376   0.74759   0.00000  Uiso   1.00
C1329  C     0.76836   0.79109   0.53726   0.00000  Uiso   1.00
C1330  C     0.89830   0.87559   0.96274   0.00000  Uiso   1.00
C1331  C     0.72276   0.78481   0.51417   0.00000  Uiso   1.00
C1332  C     0.94391   0.88187   0.98583   0.00000  Uiso   1.00
C1333  C     0.85300   0.98832   0.75634   0.00000  Uiso   1.00
C1334  C     0.81367   0.67835   0.74367   0.00000  Uiso   1.00
C1335  C     0.79464   0.82730   0.83301   0.00000  Uiso   1.00
C1336  C     0.87202   0.83937   0.66699   0.00000  Uiso   1.00
C1337  C     0.77086   0.81923   0.88084   0.00000  Uiso   1.00
C1338  C     0.89581   0.84745   0.61916   0.00000  Uiso   1.00
C1339  C     0.69147   0.78914   0.94641   0.00000  Uiso   1.00
C1340  C     0.97520   0.87754   0.55360   0.00000  Uiso   1.00
C1341  C     0.70783   0.79996   0.90153   0.00000  Uiso   1.00
C1342  C     0.95884   0.86671   0.59847   0.00000  Uiso   1.00
C1343  C     0.81453   0.82905   0.90633   0.00000  Uiso   1.00
C1344  C     0.85214   0.83763   0.59368   0.00000  Uiso   1.00
C1345  C     0.79740   0.82575   0.95186   0.00000  Uiso   1.00
C1346  C     0.86927   0.84093   0.54814   0.00000  Uiso   1.00
C1347  C     0.73643   0.80122   0.97125   0.00000  Uiso   1.00
C1348  C     0.93023   0.86546   0.52875   0.00000  Uiso   1.00
C1349  C     0.84077   0.84211   0.97815   0.00000  Uiso   1.00
C1350  C     0.82590   0.82458   0.52185   0.00000  Uiso   1.00
Cu1351 Cu    0.77404   0.82775   0.74516   0.00000  Uiso   1.00
Cu1352 Cu    0.89263   0.83892   0.75483   0.00000  Uiso   1.00
H1353  H     0.67801   0.76273   0.52897   0.00000  Uiso   1.00
H1354  H     0.98866   0.90395   0.97103   0.00000  Uiso   1.00
H1355  H     0.80359   0.82999   0.60999   0.00000  Uiso   1.00
H1356  H     0.86308   0.83669   0.89001   0.00000  Uiso   1.00
H1357  H     0.89090   0.67691   0.76926   0.00000  Uiso   1.00
H1358  H     0.77576   0.98975   0.73075   0.00000  Uiso   1.00
N1359  N     0.98173   0.84735   0.76212   0.00000  Uiso   1.00
N1360  N     0.68494   0.81932   0.73788   0.00000  Uiso   1.00
O1361  O     0.79482   0.90476   0.74686   0.00000  Uiso   1.00
O1362  O     0.87185   0.76191   0.75314   0.00000  Uiso   1.00
O1363  O     0.89496   0.91420   0.75502   0.00000  Uiso   1.00
O1364  O     0.77171   0.75247   0.74497   0.00000  Uiso   1.00
O1365  O     0.75518   0.82597   0.80854   0.00000  Uiso   1.00
O1366  O     0.91149   0.84070   0.69145   0.00000  Uiso   1.00
O1367  O     0.85532   0.83540   0.81671   0.00000  Uiso   1.00
O1368  O     0.81134   0.83126   0.68329   0.00000  Uiso   1.00
Br1369 Br    0.69016   0.88413   0.62968   0.00000  Uiso   1.00
Br1370 Br    0.97650   0.78255   0.87032   0.00000  Uiso   1.00
O1371  O     0.96371   0.76947   0.96680   0.00000  Uiso   1.00
C1372  C     0.95454   0.71455   0.96685   0.00000  Uiso   1.00
H1373  H     0.99751   0.69856   0.96556   0.00000  Uiso   1.00
H1374  H     0.93635   0.69917   0.93815   0.00000  Uiso   1.00
C1375  C     0.90647   0.69509   0.50815   0.00000  Uiso   1.00
H1376  H     0.86327   0.71035   0.51044   0.00000  Uiso   1.00
H1377  H     0.89677   0.98527   0.50763   0.00000  Uiso   1.00
H1378  H     0.92317   0.70823   0.53785   0.00000  Uiso   1.00
O1379  O     0.70295   0.89721   0.53320   0.00000  Uiso   1.00
C1380  C     0.71212   0.95214   0.53315   0.00000  Uiso   1.00
H1381  H     0.73030   0.96751   0.56185   0.00000  Uiso   1.00
H1382  H     0.66915   0.96812   0.53444   0.00000  Uiso   1.00
C1383  C     0.76020   0.97160   0.99185   0.00000  Uiso   1.00
H1384  H     0.74351   0.95845   0.96215   0.00000  Uiso   1.00
H1385  H     0.76989   0.68142   0.99236   0.00000  Uiso   1.00
H1386  H     0.80340   0.95634   0.98956   0.00000  Uiso   1.00
Br1387 Br    0.75323   0.74143   0.58220   0.00000  Uiso   1.00
Br1388 Br    0.91343   0.92525   0.91780   0.00000  Uiso   1.00
O1389  O     0.67712   0.89662   0.76681   0.00000  Uiso   1.00
C1390  C     0.98735   0.91316   0.81007   0.00000  Uiso   1.00
H1391  H     0.66689   0.88973   0.83324   0.00000  Uiso   1.00
H1392  H     0.93625   0.91001   0.81820   0.00000  Uiso   1.00
C1393  C     0.68189   0.97016   0.81602   0.00000  Uiso   1.00
H1394  H     0.67809   0.99336   0.78905   0.00000  Uiso   1.00
H1395  H     0.99027   0.98651   0.84717   0.00000  Uiso   1.00
H1396  H     0.73124   0.97368   0.81696   0.00000  Uiso   1.00
O1397  O     0.98954   0.77005   0.73319   0.00000  Uiso   1.00
C1398  C     0.67932   0.75351   0.68993   0.00000  Uiso   1.00
H1399  H     0.73042   0.75663   0.68181   0.00000  Uiso   1.00
H1400  H     0.99981   0.77696   0.66676   0.00000  Uiso   1.00
C1401  C     0.98474   0.69652   0.68396   0.00000  Uiso   1.00
H1402  H     0.93539   0.69303   0.68301   0.00000  Uiso   1.00
H1403  H     0.67636   0.68014   0.65281   0.00000  Uiso   1.00
H1404  H     0.98852   0.67331   0.71095   0.00000  Uiso   1.00
loop_
_geom_bond_atom_site_label_1
_geom_bond_atom_site_label_2
_geom_bond_distance
_geom_bond_site_symmetry_2
_ccdc_geom_bond_type
C1     O37     1.292   .     A
C1     O35     1.311   .     A
C1     C7      1.430   .     S
C2     O38     1.292   .     A
C2     O36     1.311   .     A
C2     C8      1.430   .     S
C3     C24     1.415   .     A
C3     Br61    1.917   .     S
C3     C5      1.384   .     A
C4     Br62    1.917   .     S
C4     C23     1.415   .     A
C4     C6      1.384   .     A
C5     H27     1.074   .     S
C5     C723    1.395   1_554 S
C6     H28     1.074   .     S
C6     C724    1.395   .     S
C7     C242    1.319   .     S
C7     H265    1.088   .     S
C8     C475    1.319   1_545 S
C8     H500    1.088   1_545 S
C9     O39     1.312   .     A
C9     C11     1.489   .     S
C9     O41     1.319   .     A
C10    O42     1.319   .     A
C10    O40     1.312   .     A
C10    C12     1.489   .     S
C11    C15     1.420   .     A
C11    C17     1.400   .     A
C12    C16     1.420   .     A
C12    C18     1.400   .     A
C13    C21     1.410   .     A
C13    C15     1.409   .     A
C13    O201    1.384   1_455 S
C14    C16     1.410   .     A
C14    C22     1.410   .     A
C14    O131    1.384   .     S
C15    Br200   1.928   1_455 S
C16    Br121   1.928   .     S
C17    H30     1.075   .     S
C17    C19     1.400   .     A
C18    H29     1.075   .     S
C18    C20     1.400   .     A
C19    C21     1.407   .     A
C19    C23     1.425   .     A
C20    C24     1.425   .     A
C20    C22     1.407   .     A
C21    C707    1.395   .     S
C22    C708    1.395   1_554 S
C23    C726    1.426   .     S
C24    C725    1.426   1_554 S
Cu25   N34     2.050   .     S
Cu25   Cu26    2.728   .     S
Cu25   O38     1.960   .     S
Cu25   O35     1.980   .     S
Cu25   O42     1.929   .     S
Cu25   O39     1.945   .     S
Cu26   O36     1.980   .     S
Cu26   N33     2.050   .     S
Cu26   O37     1.960   .     S
Cu26   O40     1.945   .     S
Cu26   O41     1.929   .     S
H31    C475    1.088   1_545 S
H32    C242    1.088   .     S
N33    N112    1.281   .     S
N33    O141    1.345   .     S
N34    N189    1.281   1_455 S
N34    O227    1.345   1_455 S
Br43   C172    1.928   1_455 S
Br44   C93     1.928   .     S
O45    C46     1.412   .     S
O45    C91     1.384   .     S
C46    H47     1.117   .     S
C46    H48     1.108   .     S
C46    C751    1.523   .     S
C49    H52     1.107   .     S
C49    H50     1.106   .     S
C49    C748    1.523   1_554 S
C49    H519    1.108   1_545 S
H51    C283    1.108   .     S
O53    C54     1.413   .     S
O53    C170    1.384   1_455 S
C54    H56     1.117   .     S
C54    H55     1.108   .     S
C54    C759    1.523   1_554 S
C57    H60     1.106   .     S
C57    H58     1.107   .     S
C57    C756    1.523   .     S
C57    H293    1.108   .     S
H59    C525    1.108   1_545 S
O63    N189    1.345   1_455 S
O63    C220    1.407   1_455 S
C64    H66     1.105   .     S
C64    O141    1.407   .     S
C64    H143    1.111   .     S
C64    C145    1.523   .     S
H65    C220    1.111   1_455 S
C67    H68     1.111   .     S
C67    H70     1.108   .     S
C67    C220    1.523   1_455 S
C67    H225    1.108   1_455 S
H69    C145    1.108   .     S
O71    N112    1.345   .     S
O71    C150    1.407   .     S
C72    H73     1.105   .     S
C72    O227    1.407   1_455 S
C72    H230    1.111   1_455 S
C72    C231    1.523   1_455 S
H74    C150    1.111   .     S
C75    H76     1.108   .     S
C75    H78     1.111   .     S
C75    C150    1.523   .     S
C75    H155    1.108   .     S
H77    C231    1.108   1_455 S
C79    O115    1.292   .     A
C79    O113    1.311   .     A
C79    C85     1.430   .     S
C80    O116    1.292   .     A
C80    O114    1.311   .     A
C80    C86     1.430   .     S
C81    C102    1.415   .     A
C81    Br139   1.917   .     S
C81    C83     1.384   .     A
C82    Br140   1.917   .     S
C82    C101    1.415   .     A
C82    C84     1.384   .     A
C83    H105    1.074   .     S
C83    C801    1.395   1_554 S
C84    H106    1.074   .     S
C84    C802    1.395   .     S
C85    C320    1.319   .     S
C85    H343    1.088   .     S
C86    C553    1.319   1_545 S
C86    H578    1.088   1_545 S
C87    O117    1.312   .     A
C87    C89     1.489   .     S
C87    O119    1.319   .     A
C88    O120    1.319   .     A
C88    O118    1.312   .     A
C88    C90     1.489   .     S
C89    C93     1.420   .     A
C89    C95     1.400   .     A
C90    C94     1.420   .     A
C90    C96     1.400   .     A
C91    C99     1.410   .     A
C91    C93     1.409   .     A
C92    C94     1.410   .     A
C92    C100    1.410   .     A
C92    O209    1.384   .     S
C94    Br199   1.928   .     S
C95    H108    1.075   .     S
C95    C97     1.400   .     A
C96    H107    1.075   .     S
C96    C98     1.400   .     A
C97    C99     1.407   .     A
C97    C101    1.425   .     A
C98    C102    1.425   .     A
C98    C100    1.407   .     A
C99    C785    1.395   .     S
C100   C786    1.395   1_554 S
C101   C804    1.426   .     S
C102   C803    1.426   1_554 S
Cu103  N112    2.050   .     S
Cu103  Cu104   2.728   .     S
Cu103  O116    1.960   .     S
Cu103  O113    1.980   .     S
Cu103  O120    1.929   .     S
Cu103  O117    1.945   .     S
Cu104  O114    1.980   .     S
Cu104  N111    2.050   .     S
Cu104  O115    1.960   .     S
Cu104  O118    1.945   .     S
Cu104  O119    1.929   .     S
H109   C553    1.088   1_545 S
H110   C320    1.088   .     S
N111   N190    1.281   .     S
N111   O219    1.345   .     S
Br122  C171    1.928   .     S
O123   C124    1.412   .     S
O123   C169    1.384   .     S
C124   H125    1.117   .     S
C124   H126    1.108   .     S
C124   C829    1.523   .     S
C127   H130    1.107   .     S
C127   H128    1.106   .     S
C127   C826    1.523   1_554 S
C127   H597    1.108   1_545 S
H129   C361    1.108   .     S
O131   C132    1.413   .     S
C132   H134    1.117   .     S
C132   H133    1.108   .     S
C132   C837    1.523   1_554 S
C135   H138    1.106   .     S
C135   H136    1.107   .     S
C135   C834    1.523   .     S
C135   H371    1.108   .     S
H137   C603    1.108   1_545 S
C142   H144    1.105   .     S
C142   O219    1.407   .     S
C142   H221    1.111   .     S
C142   C223    1.523   .     S
C145   H146    1.111   .     S
C145   H148    1.108   .     S
H147   C223    1.108   .     S
O149   N190    1.345   .     S
O149   C228    1.407   .     S
C150   H151    1.105   .     S
H152   C228    1.111   .     S
C153   H154    1.108   .     S
C153   H156    1.111   .     S
C153   C228    1.523   .     S
C153   H233    1.108   .     S
C157   O193    1.292   .     A
C157   O191    1.311   .     A
C157   C163    1.430   .     S
C158   O194    1.292   .     A
C158   O192    1.311   .     A
C158   C164    1.430   .     S
C159   C180    1.415   .     A
C159   Br217   1.917   .     S
C159   C161    1.384   .     A
C160   Br218   1.917   .     S
C160   C179    1.415   .     A
C160   C162    1.384   .     A
C161   H183    1.074   .     S
C161   C879    1.395   1_554 S
C162   H184    1.074   .     S
C162   C880    1.395   .     S
C163   C398    1.319   .     S
C163   H421    1.088   .     S
C164   C631    1.319   1_545 S
C164   H656    1.088   1_545 S
C165   O195    1.312   .     A
C165   C167    1.489   .     S
C165   O197    1.319   .     A
C166   O198    1.319   .     A
C166   O196    1.312   .     A
C166   C168    1.489   .     S
C167   C171    1.420   .     A
C167   C173    1.400   .     A
C168   C172    1.420   .     A
C168   C174    1.400   .     A
C169   C177    1.410   .     A
C169   C171    1.409   .     A
C170   C172    1.410   .     A
C170   C178    1.410   .     A
C170   O53     1.384   1_655 S
C172   Br43    1.928   1_655 S
C173   H186    1.075   .     S
C173   C175    1.400   .     A
C174   H185    1.075   .     S
C174   C176    1.400   .     A
C175   C177    1.407   .     A
C175   C179    1.425   .     A
C176   C180    1.425   .     A
C176   C178    1.407   .     A
C177   C863    1.395   .     S
C178   C864    1.395   1_554 S
C179   C882    1.426   .     S
C180   C881    1.426   1_554 S
Cu181  N190    2.050   .     S
Cu181  Cu182   2.728   .     S
Cu181  O194    1.960   .     S
Cu181  O191    1.980   .     S
Cu181  O198    1.929   .     S
Cu181  O195    1.945   .     S
Cu182  O192    1.980   .     S
Cu182  N189    2.050   .     S
Cu182  O193    1.960   .     S
Cu182  O196    1.945   .     S
Cu182  O197    1.929   .     S
H187   C631    1.088   1_545 S
H188   C398    1.088   .     S
N189   N34     1.281   1_655 S
N189   O63     1.345   1_655 S
Br200  C15     1.928   1_655 S
O201   C202    1.412   .     S
O201   C13     1.384   1_655 S
C202   H203    1.117   .     S
C202   H204    1.108   .     S
C202   C907    1.523   .     S
C205   H208    1.107   .     S
C205   H206    1.106   .     S
C205   C904    1.523   1_554 S
C205   H675    1.108   1_545 S
H207   C439    1.108   .     S
O209   C210    1.413   .     S
C210   H212    1.117   .     S
C210   H211    1.108   .     S
C210   C915    1.523   1_554 S
C213   H216    1.106   .     S
C213   H214    1.107   .     S
C213   C912    1.523   .     S
C213   H449    1.108   .     S
H215   C681    1.108   1_545 S
C220   H222    1.105   .     S
C220   O63     1.407   1_655 S
C220   H65     1.111   1_655 S
C220   C67     1.523   1_655 S
C223   H224    1.111   .     S
C223   H226    1.108   .     S
H225   C67     1.108   1_655 S
O227   N34     1.345   1_655 S
O227   C72     1.407   1_655 S
C228   H229    1.105   .     S
H230   C72     1.111   1_655 S
C231   H232    1.108   .     S
C231   H234    1.111   .     S
C231   C72     1.523   1_655 S
C231   H77     1.108   1_655 S
C235   O271    1.292   .     A
C235   O269    1.311   .     A
C235   C241    1.430   .     S
C236   O272    1.292   .     A
C236   O270    1.311   .     A
C236   C242    1.430   .     S
C237   C258    1.415   .     A
C237   Br295   1.917   .     S
C237   C239    1.384   .     A
C238   Br296   1.917   .     S
C238   C257    1.415   .     A
C238   C240    1.384   .     A
C239   H261    1.074   .     S
C239   C957    1.395   1_554 S
C240   H262    1.074   .     S
C240   C958    1.395   .     S
C241   C476    1.319   .     S
C241   H499    1.088   .     S
C243   O273    1.312   .     A
C243   C245    1.489   .     S
C243   O275    1.319   .     A
C244   O276    1.319   .     A
C244   O274    1.312   .     A
C244   C246    1.489   .     S
C245   C249    1.420   .     A
C245   C251    1.400   .     A
C246   C250    1.420   .     A
C246   C252    1.400   .     A
C247   C255    1.410   .     A
C247   C249    1.409   .     A
C247   O435    1.384   1_455 S
C248   C250    1.410   .     A
C248   C256    1.410   .     A
C248   O365    1.384   .     S
C249   Br434   1.928   1_455 S
C250   Br355   1.928   .     S
C251   H264    1.075   .     S
C251   C253    1.400   .     A
C252   H263    1.075   .     S
C252   C254    1.400   .     A
C253   C255    1.407   .     A
C253   C257    1.425   .     A
C254   C258    1.425   .     A
C254   C256    1.407   .     A
C255   C941    1.395   .     S
C256   C942    1.395   1_554 S
C257   C960    1.426   .     S
C258   C959    1.426   1_554 S
Cu259  N268    2.050   .     S
Cu259  Cu260   2.728   .     S
Cu259  O272    1.960   .     S
Cu259  O269    1.980   .     S
Cu259  O276    1.929   .     S
Cu259  O273    1.945   .     S
Cu260  O270    1.980   .     S
Cu260  N267    2.050   .     S
Cu260  O271    1.960   .     S
Cu260  O274    1.945   .     S
Cu260  O275    1.929   .     S
H266   C476    1.088   .     S
N267   N346    1.281   .     S
N267   O375    1.345   .     S
N268   N423    1.281   1_455 S
N268   O461    1.345   1_455 S
Br277  C406    1.928   1_455 S
Br278  C327    1.928   .     S
O279   C280    1.412   .     S
O279   C325    1.384   .     S
C280   H281    1.117   .     S
C280   H282    1.108   .     S
C280   C985    1.523   .     S
C283   H286    1.107   .     S
C283   H284    1.106   .     S
C283   C982    1.523   1_554 S
H285   C517    1.108   .     S
O287   C288    1.413   .     S
O287   C404    1.384   1_455 S
C288   H290    1.117   .     S
C288   H289    1.108   .     S
C288   C993    1.523   1_554 S
C291   H294    1.106   .     S
C291   H292    1.107   .     S
C291   C990    1.523   .     S
C291   H527    1.108   .     S
O297   N423    1.345   1_455 S
O297   C454    1.407   1_455 S
C298   H300    1.105   .     S
C298   O375    1.407   .     S
C298   H377    1.111   .     S
C298   C379    1.523   .     S
H299   C454    1.111   1_455 S
C301   H302    1.111   .     S
C301   H304    1.108   .     S
C301   C454    1.523   1_455 S
C301   H459    1.108   1_455 S
H303   C379    1.108   .     S
O305   N346    1.345   .     S
O305   C384    1.407   .     S
C306   H307    1.105   .     S
C306   O461    1.407   1_455 S
C306   H464    1.111   1_455 S
C306   C465    1.523   1_455 S
H308   C384    1.111   .     S
C309   H310    1.108   .     S
C309   H312    1.111   .     S
C309   C384    1.523   .     S
C309   H389    1.108   .     S
H311   C465    1.108   1_455 S
C313   O349    1.292   .     A
C313   O347    1.311   .     A
C313   C319    1.430   .     S
C314   O350    1.292   .     A
C314   O348    1.311   .     A
C314   C320    1.430   .     S
C315   C336    1.415   .     A
C315   Br373   1.917   .     S
C315   C317    1.384   .     A
C316   Br374   1.917   .     S
C316   C335    1.415   .     A
C316   C318    1.384   .     A
C317   H339    1.074   .     S
C317   C1035   1.395   1_554 S
C318   H340    1.074   .     S
C318   C1036   1.395   .     S
C319   C554    1.319   .     S
C319   H577    1.088   .     S
C321   O351    1.312   .     A
C321   C323    1.489   .     S
C321   O353    1.319   .     A
C322   O354    1.319   .     A
C322   O352    1.312   .     A
C322   C324    1.489   .     S
C323   C327    1.420   .     A
C323   C329    1.400   .     A
C324   C328    1.420   .     A
C324   C330    1.400   .     A
C325   C333    1.410   .     A
C325   C327    1.409   .     A
C326   C328    1.410   .     A
C326   C334    1.410   .     A
C326   O443    1.384   .     S
C328   Br433   1.928   .     S
C329   H342    1.075   .     S
C329   C331    1.400   .     A
C330   H341    1.075   .     S
C330   C332    1.400   .     A
C331   C333    1.407   .     A
C331   C335    1.425   .     A
C332   C336    1.425   .     A
C332   C334    1.407   .     A
C333   C1019   1.395   .     S
C334   C1020   1.395   1_554 S
C335   C1038   1.426   .     S
C336   C1037   1.426   1_554 S
Cu337  N346    2.050   .     S
Cu337  Cu338   2.728   .     S
Cu337  O350    1.960   .     S
Cu337  O347    1.980   .     S
Cu337  O354    1.929   .     S
Cu337  O351    1.945   .     S
Cu338  O348    1.980   .     S
Cu338  N345    2.050   .     S
Cu338  O349    1.960   .     S
Cu338  O352    1.945   .     S
Cu338  O353    1.929   .     S
H344   C554    1.088   .     S
N345   N424    1.281   .     S
N345   O453    1.345   .     S
Br356  C405    1.928   .     S
O357   C358    1.412   .     S
O357   C403    1.384   .     S
C358   H359    1.117   .     S
C358   H360    1.108   .     S
C358   C1063   1.523   .     S
C361   H364    1.107   .     S
C361   H362    1.106   .     S
C361   C1060   1.523   1_554 S
H363   C595    1.108   .     S
O365   C366    1.413   .     S
C366   H368    1.117   .     S
C366   H367    1.108   .     S
C366   C1071   1.523   1_554 S
C369   H372    1.106   .     S
C369   H370    1.107   .     S
C369   C1068   1.523   .     S
C369   H605    1.108   .     S
C376   H378    1.105   .     S
C376   O453    1.407   .     S
C376   H455    1.111   .     S
C376   C457    1.523   .     S
C379   H380    1.111   .     S
C379   H382    1.108   .     S
H381   C457    1.108   .     S
O383   N424    1.345   .     S
O383   C462    1.407   .     S
C384   H385    1.105   .     S
H386   C462    1.111   .     S
C387   H388    1.108   .     S
C387   H390    1.111   .     S
C387   C462    1.523   .     S
C387   H467    1.108   .     S
C391   O427    1.292   .     A
C391   O425    1.311   .     A
C391   C397    1.430   .     S
C392   O428    1.292   .     A
C392   O426    1.311   .     A
C392   C398    1.430   .     S
C393   C414    1.415   .     A
C393   Br451   1.917   .     S
C393   C395    1.384   .     A
C394   Br452   1.917   .     S
C394   C413    1.415   .     A
C394   C396    1.384   .     A
C395   H417    1.074   .     S
C395   C1113   1.395   1_554 S
C396   H418    1.074   .     S
C396   C1114   1.395   .     S
C397   C632    1.319   .     S
C397   H655    1.088   .     S
C399   O429    1.312   .     A
C399   C401    1.489   .     S
C399   O431    1.319   .     A
C400   O432    1.319   .     A
C400   O430    1.312   .     A
C400   C402    1.489   .     S
C401   C405    1.420   .     A
C401   C407    1.400   .     A
C402   C406    1.420   .     A
C402   C408    1.400   .     A
C403   C411    1.410   .     A
C403   C405    1.409   .     A
C404   C406    1.410   .     A
C404   C412    1.410   .     A
C404   O287    1.384   1_655 S
C406   Br277   1.928   1_655 S
C407   H420    1.075   .     S
C407   C409    1.400   .     A
C408   H419    1.075   .     S
C408   C410    1.400   .     A
C409   C411    1.407   .     A
C409   C413    1.425   .     A
C410   C414    1.425   .     A
C410   C412    1.407   .     A
C411   C1097   1.395   .     S
C412   C1098   1.395   1_554 S
C413   C1116   1.426   .     S
C414   C1115   1.426   1_554 S
Cu415  N424    2.050   .     S
Cu415  Cu416   2.728   .     S
Cu415  O428    1.960   .     S
Cu415  O425    1.980   .     S
Cu415  O432    1.929   .     S
Cu415  O429    1.945   .     S
Cu416  O426    1.980   .     S
Cu416  N423    2.050   .     S
Cu416  O427    1.960   .     S
Cu416  O430    1.945   .     S
Cu416  O431    1.929   .     S
H422   C632    1.088   .     S
N423   N268    1.281   1_655 S
N423   O297    1.345   1_655 S
Br434  C249    1.928   1_655 S
O435   C436    1.412   .     S
O435   C247    1.384   1_655 S
C436   H437    1.117   .     S
C436   H438    1.108   .     S
C436   C1141   1.523   .     S
C439   H442    1.107   .     S
C439   H440    1.106   .     S
C439   C1138   1.523   1_554 S
H441   C673    1.108   .     S
O443   C444    1.413   .     S
C444   H446    1.117   .     S
C444   H445    1.108   .     S
C444   C1149   1.523   1_554 S
C447   H450    1.106   .     S
C447   H448    1.107   .     S
C447   C1146   1.523   .     S
C447   H683    1.108   .     S
C454   H456    1.105   .     S
C454   O297    1.407   1_655 S
C454   H299    1.111   1_655 S
C454   C301    1.523   1_655 S
C457   H458    1.111   .     S
C457   H460    1.108   .     S
H459   C301    1.108   1_655 S
O461   N268    1.345   1_655 S
O461   C306    1.407   1_655 S
C462   H463    1.105   .     S
H464   C306    1.111   1_655 S
C465   H466    1.108   .     S
C465   H468    1.111   .     S
C465   C306    1.523   1_655 S
C465   H311    1.108   1_655 S
C469   O505    1.292   .     A
C469   O503    1.311   .     A
C469   C475    1.430   .     S
C470   O506    1.292   .     A
C470   O504    1.311   .     A
C470   C476    1.430   .     S
C471   C492    1.415   .     A
C471   Br529   1.917   .     S
C471   C473    1.384   .     A
C472   Br530   1.917   .     S
C472   C491    1.415   .     A
C472   C474    1.384   .     A
C473   H495    1.074   .     S
C473   C1191   1.395   1_554 S
C474   H496    1.074   .     S
C474   C1192   1.395   .     S
C475   C8      1.319   1_565 S
C475   H31     1.088   1_565 S
C477   O507    1.312   .     A
C477   C479    1.489   .     S
C477   O509    1.319   .     A
C478   O510    1.319   .     A
C478   O508    1.312   .     A
C478   C480    1.489   .     S
C479   C483    1.420   .     A
C479   C485    1.400   .     A
C480   C484    1.420   .     A
C480   C486    1.400   .     A
C481   C489    1.410   .     A
C481   C483    1.409   .     A
C481   O669    1.384   1_455 S
C482   C484    1.410   .     A
C482   C490    1.410   .     A
C482   O599    1.384   .     S
C483   Br668   1.928   1_455 S
C484   Br589   1.928   .     S
C485   H498    1.075   .     S
C485   C487    1.400   .     A
C486   H497    1.075   .     S
C486   C488    1.400   .     A
C487   C489    1.407   .     A
C487   C491    1.425   .     A
C488   C492    1.425   .     A
C488   C490    1.407   .     A
C489   C1175   1.395   .     S
C490   C1176   1.395   1_554 S
C491   C1194   1.426   .     S
C492   C1193   1.426   1_554 S
Cu493  N502    2.050   .     S
Cu493  Cu494   2.728   .     S
Cu493  O506    1.960   .     S
Cu493  O503    1.980   .     S
Cu493  O510    1.929   .     S
Cu493  O507    1.945   .     S
Cu494  O504    1.980   .     S
Cu494  N501    2.050   .     S
Cu494  O505    1.960   .     S
Cu494  O508    1.945   .     S
Cu494  O509    1.929   .     S
H500   C8      1.088   1_565 S
N501   N580    1.281   .     S
N501   O609    1.345   .     S
N502   N657    1.281   1_455 S
N502   O695    1.345   1_455 S
Br511  C640    1.928   1_455 S
Br512  C561    1.928   .     S
O513   C514    1.412   .     S
O513   C559    1.384   .     S
C514   H515    1.117   .     S
C514   H516    1.108   .     S
C514   C1219   1.523   .     S
C517   H520    1.107   .     S
C517   H518    1.106   .     S
C517   C1216   1.523   1_554 S
H519   C49     1.108   1_565 S
O521   C522    1.413   .     S
O521   C638    1.384   1_455 S
C522   H524    1.117   .     S
C522   H523    1.108   .     S
C522   C1227   1.523   1_554 S
C525   H528    1.106   .     S
C525   H526    1.107   .     S
C525   C1224   1.523   .     S
C525   H59     1.108   1_565 S
O531   N657    1.345   1_455 S
O531   C688    1.407   1_455 S
C532   H534    1.105   .     S
C532   O609    1.407   .     S
C532   H611    1.111   .     S
C532   C613    1.523   .     S
H533   C688    1.111   1_455 S
C535   H536    1.111   .     S
C535   H538    1.108   .     S
C535   C688    1.523   1_455 S
C535   H693    1.108   1_455 S
H537   C613    1.108   .     S
O539   N580    1.345   .     S
O539   C618    1.407   .     S
C540   H541    1.105   .     S
C540   O695    1.407   1_455 S
C540   H698    1.111   1_455 S
C540   C699    1.523   1_455 S
H542   C618    1.111   .     S
C543   H544    1.108   .     S
C543   H546    1.111   .     S
C543   C618    1.523   .     S
C543   H623    1.108   .     S
H545   C699    1.108   1_455 S
C547   O583    1.292   .     A
C547   O581    1.311   .     A
C547   C553    1.430   .     S
C548   O584    1.292   .     A
C548   O582    1.311   .     A
C548   C554    1.430   .     S
C549   C570    1.415   .     A
C549   Br607   1.917   .     S
C549   C551    1.384   .     A
C550   Br608   1.917   .     S
C550   C569    1.415   .     A
C550   C552    1.384   .     A
C551   H573    1.074   .     S
C551   C1269   1.395   1_554 S
C552   H574    1.074   .     S
C552   C1270   1.395   .     S
C553   C86     1.319   1_565 S
C553   H109    1.088   1_565 S
C555   O585    1.312   .     A
C555   C557    1.489   .     S
C555   O587    1.319   .     A
C556   O588    1.319   .     A
C556   O586    1.312   .     A
C556   C558    1.489   .     S
C557   C561    1.420   .     A
C557   C563    1.400   .     A
C558   C562    1.420   .     A
C558   C564    1.400   .     A
C559   C567    1.410   .     A
C559   C561    1.409   .     A
C560   C562    1.410   .     A
C560   C568    1.410   .     A
C560   O677    1.384   .     S
C562   Br667   1.928   .     S
C563   H576    1.075   .     S
C563   C565    1.400   .     A
C564   H575    1.075   .     S
C564   C566    1.400   .     A
C565   C567    1.407   .     A
C565   C569    1.425   .     A
C566   C570    1.425   .     A
C566   C568    1.407   .     A
C567   C1253   1.395   .     S
C568   C1254   1.395   1_554 S
C569   C1272   1.426   .     S
C570   C1271   1.426   1_554 S
Cu571  N580    2.050   .     S
Cu571  Cu572   2.728   .     S
Cu571  O584    1.960   .     S
Cu571  O581    1.980   .     S
Cu571  O588    1.929   .     S
Cu571  O585    1.945   .     S
Cu572  O582    1.980   .     S
Cu572  N579    2.050   .     S
Cu572  O583    1.960   .     S
Cu572  O586    1.945   .     S
Cu572  O587    1.929   .     S
H578   C86     1.088   1_565 S
N579   N658    1.281   .     S
N579   O687    1.345   .     S
Br590  C639    1.928   .     S
O591   C592    1.412   .     S
O591   C637    1.384   .     S
C592   H593    1.117   .     S
C592   H594    1.108   .     S
C592   C1297   1.523   .     S
C595   H598    1.107   .     S
C595   H596    1.106   .     S
C595   C1294   1.523   1_554 S
H597   C127    1.108   1_565 S
O599   C600    1.413   .     S
C600   H602    1.117   .     S
C600   H601    1.108   .     S
C600   C1305   1.523   1_554 S
C603   H606    1.106   .     S
C603   H604    1.107   .     S
C603   C1302   1.523   .     S
C603   H137    1.108   1_565 S
C610   H612    1.105   .     S
C610   O687    1.407   .     S
C610   H689    1.111   .     S
C610   C691    1.523   .     S
C613   H614    1.111   .     S
C613   H616    1.108   .     S
H615   C691    1.108   .     S
O617   N658    1.345   .     S
O617   C696    1.407   .     S
C618   H619    1.105   .     S
H620   C696    1.111   .     S
C621   H622    1.108   .     S
C621   H624    1.111   .     S
C621   C696    1.523   .     S
C621   H701    1.108   .     S
C625   O661    1.292   .     A
C625   O659    1.311   .     A
C625   C631    1.430   .     S
C626   O662    1.292   .     A
C626   O660    1.311   .     A
C626   C632    1.430   .     S
C627   C648    1.415   .     A
C627   Br685   1.917   .     S
C627   C629    1.384   .     A
C628   Br686   1.917   .     S
C628   C647    1.415   .     A
C628   C630    1.384   .     A
C629   H651    1.074   .     S
C629   C1347   1.395   1_554 S
C630   H652    1.074   .     S
C630   C1348   1.395   .     S
C631   C164    1.319   1_565 S
C631   H187    1.088   1_565 S
C633   O663    1.312   .     A
C633   C635    1.489   .     S
C633   O665    1.319   .     A
C634   O666    1.319   .     A
C634   O664    1.312   .     A
C634   C636    1.489   .     S
C635   C639    1.420   .     A
C635   C641    1.400   .     A
C636   C640    1.420   .     A
C636   C642    1.400   .     A
C637   C645    1.410   .     A
C637   C639    1.409   .     A
C638   C640    1.410   .     A
C638   C646    1.410   .     A
C638   O521    1.384   1_655 S
C640   Br511   1.928   1_655 S
C641   H654    1.075   .     S
C641   C643    1.400   .     A
C642   H653    1.075   .     S
C642   C644    1.400   .     A
C643   C645    1.407   .     A
C643   C647    1.425   .     A
C644   C648    1.425   .     A
C644   C646    1.407   .     A
C645   C1331   1.395   .     S
C646   C1332   1.395   1_554 S
C647   C1350   1.426   .     S
C648   C1349   1.426   1_554 S
Cu649  N658    2.050   .     S
Cu649  Cu650   2.728   .     S
Cu649  O662    1.960   .     S
Cu649  O659    1.980   .     S
Cu649  O666    1.929   .     S
Cu649  O663    1.945   .     S
Cu650  O660    1.980   .     S
Cu650  N657    2.050   .     S
Cu650  O661    1.960   .     S
Cu650  O664    1.945   .     S
Cu650  O665    1.929   .     S
H656   C164    1.088   1_565 S
N657   N502    1.281   1_655 S
N657   O531    1.345   1_655 S
Br668  C483    1.928   1_655 S
O669   C670    1.412   .     S
O669   C481    1.384   1_655 S
C670   H671    1.117   .     S
C670   H672    1.108   .     S
C670   C1375   1.523   .     S
C673   H676    1.107   .     S
C673   H674    1.106   .     S
C673   C1372   1.523   1_554 S
H675   C205    1.108   1_565 S
O677   C678    1.413   .     S
C678   H680    1.117   .     S
C678   H679    1.108   .     S
C678   C1383   1.523   1_554 S
C681   H684    1.106   .     S
C681   H682    1.107   .     S
C681   C1380   1.523   .     S
C681   H215    1.108   1_565 S
C688   H690    1.105   .     S
C688   O531    1.407   1_655 S
C688   H533    1.111   1_655 S
C688   C535    1.523   1_655 S
C691   H692    1.111   .     S
C691   H694    1.108   .     S
H693   C535    1.108   1_655 S
O695   N502    1.345   1_655 S
O695   C540    1.407   1_655 S
C696   H697    1.105   .     S
H698   C540    1.111   1_655 S
C699   H700    1.108   .     S
C699   H702    1.111   .     S
C699   C540    1.523   1_655 S
C699   H545    1.108   1_655 S
C703   O739    1.292   .     A
C703   O737    1.311   .     A
C703   C709    1.430   .     S
C704   O740    1.292   .     A
C704   O738    1.311   .     A
C704   C710    1.430   .     S
C705   C726    1.415   .     A
C705   Br763   1.917   .     S
C705   C707    1.384   .     A
C706   Br764   1.917   .     S
C706   C725    1.415   .     A
C706   C708    1.384   .     A
C707   H729    1.074   .     S
C708   H730    1.074   .     S
C708   C22     1.395   1_556 S
C709   C944    1.319   .     S
C709   H967    1.088   .     S
C710   C1177   1.319   1_545 S
C710   H1202   1.088   1_545 S
C711   O741    1.312   .     A
C711   C713    1.489   .     S
C711   O743    1.319   .     A
C712   O744    1.319   .     A
C712   O742    1.312   .     A
C712   C714    1.489   .     S
C713   C717    1.420   .     A
C713   C719    1.400   .     A
C714   C718    1.420   .     A
C714   C720    1.400   .     A
C715   C723    1.410   .     A
C715   C717    1.409   .     A
C715   O903    1.384   1_455 S
C716   C718    1.410   .     A
C716   C724    1.410   .     A
C716   O833    1.384   .     S
C717   Br902   1.928   1_455 S
C718   Br823   1.928   .     S
C719   H732    1.075   .     S
C719   C721    1.400   .     A
C720   H731    1.075   .     S
C720   C722    1.400   .     A
C721   C723    1.407   .     A
C721   C725    1.425   .     A
C722   C726    1.425   .     A
C722   C724    1.407   .     A
C723   C5      1.395   1_556 S
C725   C24     1.426   1_556 S
Cu727  N736    2.050   .     S
Cu727  Cu728   2.728   .     S
Cu727  O740    1.960   .     S
Cu727  O737    1.980   .     S
Cu727  O744    1.929   .     S
Cu727  O741    1.945   .     S
Cu728  O738    1.980   .     S
Cu728  N735    2.050   .     S
Cu728  O739    1.960   .     S
Cu728  O742    1.945   .     S
Cu728  O743    1.929   .     S
H733   C1177   1.088   1_545 S
H734   C944    1.088   .     S
N735   N814    1.281   .     S
N735   O843    1.345   .     S
N736   N891    1.281   1_455 S
N736   O929    1.345   1_455 S
Br745  C874    1.928   1_455 S
Br746  C795    1.928   .     S
O747   C748    1.412   .     S
O747   C793    1.384   .     S
C748   H749    1.117   .     S
C748   H750    1.108   .     S
C748   C49     1.523   1_556 S
C751   H754    1.107   .     S
C751   H752    1.106   .     S
C751   H1221   1.108   1_545 S
H753   C985    1.108   .     S
O755   C756    1.413   .     S
O755   C872    1.384   1_455 S
C756   H758    1.117   .     S
C756   H757    1.108   .     S
C759   H762    1.106   .     S
C759   H760    1.107   .     S
C759   C54     1.523   1_556 S
C759   H995    1.108   .     S
H761   C1227   1.108   1_545 S
O765   N891    1.345   1_455 S
O765   C922    1.407   1_455 S
C766   H768    1.105   .     S
C766   O843    1.407   .     S
C766   H845    1.111   .     S
C766   C847    1.523   .     S
H767   C922    1.111   1_455 S
C769   H770    1.111   .     S
C769   H772    1.108   .     S
C769   C922    1.523   1_455 S
C769   H927    1.108   1_455 S
H771   C847    1.108   .     S
O773   N814    1.345   .     S
O773   C852    1.407   .     S
C774   H775    1.105   .     S
C774   O929    1.407   1_455 S
C774   H932    1.111   1_455 S
C774   C933    1.523   1_455 S
H776   C852    1.111   .     S
C777   H778    1.108   .     S
C777   H780    1.111   .     S
C777   C852    1.523   .     S
C777   H857    1.108   .     S
H779   C933    1.108   1_455 S
C781   O817    1.292   .     A
C781   O815    1.311   .     A
C781   C787    1.430   .     S
C782   O818    1.292   .     A
C782   O816    1.311   .     A
C782   C788    1.430   .     S
C783   C804    1.415   .     A
C783   Br841   1.917   .     S
C783   C785    1.384   .     A
C784   Br842   1.917   .     S
C784   C803    1.415   .     A
C784   C786    1.384   .     A
C785   H807    1.074   .     S
C786   H808    1.074   .     S
C786   C100    1.395   1_556 S
C787   C1022   1.319   .     S
C787   H1045   1.088   .     S
C788   C1255   1.319   1_545 S
C788   H1280   1.088   1_545 S
C789   O819    1.312   .     A
C789   C791    1.489   .     S
C789   O821    1.319   .     A
C790   O822    1.319   .     A
C790   O820    1.312   .     A
C790   C792    1.489   .     S
C791   C795    1.420   .     A
C791   C797    1.400   .     A
C792   C796    1.420   .     A
C792   C798    1.400   .     A
C793   C801    1.410   .     A
C793   C795    1.409   .     A
C794   C796    1.410   .     A
C794   C802    1.410   .     A
C794   O911    1.384   .     S
C796   Br901   1.928   .     S
C797   H810    1.075   .     S
C797   C799    1.400   .     A
C798   H809    1.075   .     S
C798   C800    1.400   .     A
C799   C801    1.407   .     A
C799   C803    1.425   .     A
C800   C804    1.425   .     A
C800   C802    1.407   .     A
C801   C83     1.395   1_556 S
C803   C102    1.426   1_556 S
Cu805  N814    2.050   .     S
Cu805  Cu806   2.728   .     S
Cu805  O818    1.960   .     S
Cu805  O815    1.980   .     S
Cu805  O822    1.929   .     S
Cu805  O819    1.945   .     S
Cu806  O816    1.980   .     S
Cu806  N813    2.050   .     S
Cu806  O817    1.960   .     S
Cu806  O820    1.945   .     S
Cu806  O821    1.929   .     S
H811   C1255   1.088   1_545 S
H812   C1022   1.088   .     S
N813   N892    1.281   .     S
N813   O921    1.345   .     S
Br824  C873    1.928   .     S
O825   C826    1.412   .     S
O825   C871    1.384   .     S
C826   H827    1.117   .     S
C826   H828    1.108   .     S
C826   C127    1.523   1_556 S
C829   H832    1.107   .     S
C829   H830    1.106   .     S
C829   H1299   1.108   1_545 S
H831   C1063   1.108   .     S
O833   C834    1.413   .     S
C834   H836    1.117   .     S
C834   H835    1.108   .     S
C837   H840    1.106   .     S
C837   H838    1.107   .     S
C837   C132    1.523   1_556 S
C837   H1073   1.108   .     S
H839   C1305   1.108   1_545 S
C844   H846    1.105   .     S
C844   O921    1.407   .     S
C844   H923    1.111   .     S
C844   C925    1.523   .     S
C847   H848    1.111   .     S
C847   H850    1.108   .     S
H849   C925    1.108   .     S
O851   N892    1.345   .     S
O851   C930    1.407   .     S
C852   H853    1.105   .     S
H854   C930    1.111   .     S
C855   H856    1.108   .     S
C855   H858    1.111   .     S
C855   C930    1.523   .     S
C855   H935    1.108   .     S
C859   O895    1.292   .     A
C859   O893    1.311   .     A
C859   C865    1.430   .     S
C860   O896    1.292   .     A
C860   O894    1.311   .     A
C860   C866    1.430   .     S
C861   C882    1.415   .     A
C861   Br919   1.917   .     S
C861   C863    1.384   .     A
C862   Br920   1.917   .     S
C862   C881    1.415   .     A
C862   C864    1.384   .     A
C863   H885    1.074   .     S
C864   H886    1.074   .     S
C864   C178    1.395   1_556 S
C865   C1100   1.319   .     S
C865   H1123   1.088   .     S
C866   C1333   1.319   1_545 S
C866   H1358   1.088   1_545 S
C867   O897    1.312   .     A
C867   C869    1.489   .     S
C867   O899    1.319   .     A
C868   O900    1.319   .     A
C868   O898    1.312   .     A
C868   C870    1.489   .     S
C869   C873    1.420   .     A
C869   C875    1.400   .     A
C870   C874    1.420   .     A
C870   C876    1.400   .     A
C871   C879    1.410   .     A
C871   C873    1.409   .     A
C872   C874    1.410   .     A
C872   C880    1.410   .     A
C872   O755    1.384   1_655 S
C874   Br745   1.928   1_655 S
C875   H888    1.075   .     S
C875   C877    1.400   .     A
C876   H887    1.075   .     S
C876   C878    1.400   .     A
C877   C879    1.407   .     A
C877   C881    1.425   .     A
C878   C882    1.425   .     A
C878   C880    1.407   .     A
C879   C161    1.395   1_556 S
C881   C180    1.426   1_556 S
Cu883  N892    2.050   .     S
Cu883  Cu884   2.728   .     S
Cu883  O896    1.960   .     S
Cu883  O893    1.980   .     S
Cu883  O900    1.929   .     S
Cu883  O897    1.945   .     S
Cu884  O894    1.980   .     S
Cu884  N891    2.050   .     S
Cu884  O895    1.960   .     S
Cu884  O898    1.945   .     S
Cu884  O899    1.929   .     S
H889   C1333   1.088   1_545 S
H890   C1100   1.088   .     S
N891   N736    1.281   1_655 S
N891   O765    1.345   1_655 S
Br902  C717    1.928   1_655 S
O903   C904    1.412   .     S
O903   C715    1.384   1_655 S
C904   H905    1.117   .     S
C904   H906    1.108   .     S
C904   C205    1.523   1_556 S
C907   H910    1.107   .     S
C907   H908    1.106   .     S
C907   H1377   1.108   1_545 S
H909   C1141   1.108   .     S
O911   C912    1.413   .     S
C912   H914    1.117   .     S
C912   H913    1.108   .     S
C915   H918    1.106   .     S
C915   H916    1.107   .     S
C915   C210    1.523   1_556 S
C915   H1151   1.108   .     S
H917   C1383   1.108   1_545 S
C922   H924    1.105   .     S
C922   O765    1.407   1_655 S
C922   H767    1.111   1_655 S
C922   C769    1.523   1_655 S
C925   H926    1.111   .     S
C925   H928    1.108   .     S
H927   C769    1.108   1_655 S
O929   N736    1.345   1_655 S
O929   C774    1.407   1_655 S
C930   H931    1.105   .     S
H932   C774    1.111   1_655 S
C933   H934    1.108   .     S
C933   H936    1.111   .     S
C933   C774    1.523   1_655 S
C933   H779    1.108   1_655 S
C937   O973    1.292   .     A
C937   O971    1.311   .     A
C937   C943    1.430   .     S
C938   O974    1.292   .     A
C938   O972    1.311   .     A
C938   C944    1.430   .     S
C939   C960    1.415   .     A
C939   Br997   1.917   .     S
C939   C941    1.384   .     A
C940   Br998   1.917   .     S
C940   C959    1.415   .     A
C940   C942    1.384   .     A
C941   H963    1.074   .     S
C942   H964    1.074   .     S
C942   C256    1.395   1_556 S
C943   C1178   1.319   .     S
C943   H1201   1.088   .     S
C945   O975    1.312   .     A
C945   C947    1.489   .     S
C945   O977    1.319   .     A
C946   O978    1.319   .     A
C946   O976    1.312   .     A
C946   C948    1.489   .     S
C947   C951    1.420   .     A
C947   C953    1.400   .     A
C948   C952    1.420   .     A
C948   C954    1.400   .     A
C949   C957    1.410   .     A
C949   C951    1.409   .     A
C949   O1137   1.384   1_455 S
C950   C952    1.410   .     A
C950   C958    1.410   .     A
C950   O1067   1.384   .     S
C951   Br1136  1.928   1_455 S
C952   Br1057  1.928   .     S
C953   H966    1.075   .     S
C953   C955    1.400   .     A
C954   H965    1.075   .     S
C954   C956    1.400   .     A
C955   C957    1.407   .     A
C955   C959    1.425   .     A
C956   C960    1.425   .     A
C956   C958    1.407   .     A
C957   C239    1.395   1_556 S
C959   C258    1.426   1_556 S
Cu961  N970    2.050   .     S
Cu961  Cu962   2.728   .     S
Cu961  O974    1.960   .     S
Cu961  O971    1.980   .     S
Cu961  O978    1.929   .     S
Cu961  O975    1.945   .     S
Cu962  O972    1.980   .     S
Cu962  N969    2.050   .     S
Cu962  O973    1.960   .     S
Cu962  O976    1.945   .     S
Cu962  O977    1.929   .     S
H968   C1178   1.088   .     S
N969   N1048   1.281   .     S
N969   O1077   1.345   .     S
N970   N1125   1.281   1_455 S
N970   O1163   1.345   1_455 S
Br979  C1108   1.928   1_455 S
Br980  C1029   1.928   .     S
O981   C982    1.412   .     S
O981   C1027   1.384   .     S
C982   H983    1.117   .     S
C982   H984    1.108   .     S
C982   C283    1.523   1_556 S
C985   H988    1.107   .     S
C985   H986    1.106   .     S
H987   C1219   1.108   .     S
O989   C990    1.413   .     S
O989   C1106   1.384   1_455 S
C990   H992    1.117   .     S
C990   H991    1.108   .     S
C993   H996    1.106   .     S
C993   H994    1.107   .     S
C993   C288    1.523   1_556 S
C993   H1229   1.108   .     S
O999   N1125   1.345   1_455 S
O999   C1156   1.407   1_455 S
C1000  H1002   1.105   .     S
C1000  O1077   1.407   .     S
C1000  H1079   1.111   .     S
C1000  C1081   1.523   .     S
H1001  C1156   1.111   1_455 S
C1003  H1004   1.111   .     S
C1003  H1006   1.108   .     S
C1003  C1156   1.523   1_455 S
C1003  H1161   1.108   1_455 S
H1005  C1081   1.108   .     S
O1007  N1048   1.345   .     S
O1007  C1086   1.407   .     S
C1008  H1009   1.105   .     S
C1008  O1163   1.407   1_455 S
C1008  H1166   1.111   1_455 S
C1008  C1167   1.523   1_455 S
H1010  C1086   1.111   .     S
C1011  H1012   1.108   .     S
C1011  H1014   1.111   .     S
C1011  C1086   1.523   .     S
C1011  H1091   1.108   .     S
H1013  C1167   1.108   1_455 S
C1015  O1051   1.292   .     A
C1015  O1049   1.311   .     A
C1015  C1021   1.430   .     S
C1016  O1052   1.292   .     A
C1016  O1050   1.311   .     A
C1016  C1022   1.430   .     S
C1017  C1038   1.415   .     A
C1017  Br1075  1.917   .     S
C1017  C1019   1.384   .     A
C1018  Br1076  1.917   .     S
C1018  C1037   1.415   .     A
C1018  C1020   1.384   .     A
C1019  H1041   1.074   .     S
C1020  H1042   1.074   .     S
C1020  C334    1.395   1_556 S
C1021  C1256   1.319   .     S
C1021  H1279   1.088   .     S
C1023  O1053   1.312   .     A
C1023  C1025   1.489   .     S
C1023  O1055   1.319   .     A
C1024  O1056   1.319   .     A
C1024  O1054   1.312   .     A
C1024  C1026   1.489   .     S
C1025  C1029   1.420   .     A
C1025  C1031   1.400   .     A
C1026  C1030   1.420   .     A
C1026  C1032   1.400   .     A
C1027  C1035   1.410   .     A
C1027  C1029   1.409   .     A
C1028  C1030   1.410   .     A
C1028  C1036   1.410   .     A
C1028  O1145   1.384   .     S
C1030  Br1135  1.928   .     S
C1031  H1044   1.075   .     S
C1031  C1033   1.400   .     A
C1032  H1043   1.075   .     S
C1032  C1034   1.400   .     A
C1033  C1035   1.407   .     A
C1033  C1037   1.425   .     A
C1034  C1038   1.425   .     A
C1034  C1036   1.407   .     A
C1035  C317    1.395   1_556 S
C1037  C336    1.426   1_556 S
Cu1039 N1048   2.050   .     S
Cu1039 Cu1040  2.728   .     S
Cu1039 O1052   1.960   .     S
Cu1039 O1049   1.980   .     S
Cu1039 O1056   1.929   .     S
Cu1039 O1053   1.945   .     S
Cu1040 O1050   1.980   .     S
Cu1040 N1047   2.050   .     S
Cu1040 O1051   1.960   .     S
Cu1040 O1054   1.945   .     S
Cu1040 O1055   1.929   .     S
H1046  C1256   1.088   .     S
N1047  N1126   1.281   .     S
N1047  O1155   1.345   .     S
Br1058 C1107   1.928   .     S
O1059  C1060   1.412   .     S
O1059  C1105   1.384   .     S
C1060  H1061   1.117   .     S
C1060  H1062   1.108   .     S
C1060  C361    1.523   1_556 S
C1063  H1066   1.107   .     S
C1063  H1064   1.106   .     S
H1065  C1297   1.108   .     S
O1067  C1068   1.413   .     S
C1068  H1070   1.117   .     S
C1068  H1069   1.108   .     S
C1071  H1074   1.106   .     S
C1071  H1072   1.107   .     S
C1071  C366    1.523   1_556 S
C1071  H1307   1.108   .     S
C1078  H1080   1.105   .     S
C1078  O1155   1.407   .     S
C1078  H1157   1.111   .     S
C1078  C1159   1.523   .     S
C1081  H1082   1.111   .     S
C1081  H1084   1.108   .     S
H1083  C1159   1.108   .     S
O1085  N1126   1.345   .     S
O1085  C1164   1.407   .     S
C1086  H1087   1.105   .     S
H1088  C1164   1.111   .     S
C1089  H1090   1.108   .     S
C1089  H1092   1.111   .     S
C1089  C1164   1.523   .     S
C1089  H1169   1.108   .     S
C1093  O1129   1.292   .     A
C1093  O1127   1.311   .     A
C1093  C1099   1.430   .     S
C1094  O1130   1.292   .     A
C1094  O1128   1.311   .     A
C1094  C1100   1.430   .     S
C1095  C1116   1.415   .     A
C1095  Br1153  1.917   .     S
C1095  C1097   1.384   .     A
C1096  Br1154  1.917   .     S
C1096  C1115   1.415   .     A
C1096  C1098   1.384   .     A
C1097  H1119   1.074   .     S
C1098  H1120   1.074   .     S
C1098  C412    1.395   1_556 S
C1099  C1334   1.319   .     S
C1099  H1357   1.088   .     S
C1101  O1131   1.312   .     A
C1101  C1103   1.489   .     S
C1101  O1133   1.319   .     A
C1102  O1134   1.319   .     A
C1102  O1132   1.312   .     A
C1102  C1104   1.489   .     S
C1103  C1107   1.420   .     A
C1103  C1109   1.400   .     A
C1104  C1108   1.420   .     A
C1104  C1110   1.400   .     A
C1105  C1113   1.410   .     A
C1105  C1107   1.409   .     A
C1106  C1108   1.410   .     A
C1106  C1114   1.410   .     A
C1106  O989    1.384   1_655 S
C1108  Br979   1.928   1_655 S
C1109  H1122   1.075   .     S
C1109  C1111   1.400   .     A
C1110  H1121   1.075   .     S
C1110  C1112   1.400   .     A
C1111  C1113   1.407   .     A
C1111  C1115   1.425   .     A
C1112  C1116   1.425   .     A
C1112  C1114   1.407   .     A
C1113  C395    1.395   1_556 S
C1115  C414    1.426   1_556 S
Cu1117 N1126   2.050   .     S
Cu1117 Cu1118  2.728   .     S
Cu1117 O1130   1.960   .     S
Cu1117 O1127   1.980   .     S
Cu1117 O1134   1.929   .     S
Cu1117 O1131   1.945   .     S
Cu1118 O1128   1.980   .     S
Cu1118 N1125   2.050   .     S
Cu1118 O1129   1.960   .     S
Cu1118 O1132   1.945   .     S
Cu1118 O1133   1.929   .     S
H1124  C1334   1.088   .     S
N1125  N970    1.281   1_655 S
N1125  O999    1.345   1_655 S
Br1136 C951    1.928   1_655 S
O1137  C1138   1.412   .     S
O1137  C949    1.384   1_655 S
C1138  H1139   1.117   .     S
C1138  H1140   1.108   .     S
C1138  C439    1.523   1_556 S
C1141  H1144   1.107   .     S
C1141  H1142   1.106   .     S
H1143  C1375   1.108   .     S
O1145  C1146   1.413   .     S
C1146  H1148   1.117   .     S
C1146  H1147   1.108   .     S
C1149  H1152   1.106   .     S
C1149  H1150   1.107   .     S
C1149  C444    1.523   1_556 S
C1149  H1385   1.108   .     S
C1156  H1158   1.105   .     S
C1156  O999    1.407   1_655 S
C1156  H1001   1.111   1_655 S
C1156  C1003   1.523   1_655 S
C1159  H1160   1.111   .     S
C1159  H1162   1.108   .     S
H1161  C1003   1.108   1_655 S
O1163  N970    1.345   1_655 S
O1163  C1008   1.407   1_655 S
C1164  H1165   1.105   .     S
H1166  C1008   1.111   1_655 S
C1167  H1168   1.108   .     S
C1167  H1170   1.111   .     S
C1167  C1008   1.523   1_655 S
C1167  H1013   1.108   1_655 S
C1171  O1207   1.292   .     A
C1171  O1205   1.311   .     A
C1171  C1177   1.430   .     S
C1172  O1208   1.292   .     A
C1172  O1206   1.311   .     A
C1172  C1178   1.430   .     S
C1173  C1194   1.415   .     A
C1173  Br1231  1.917   .     S
C1173  C1175   1.384   .     A
C1174  Br1232  1.917   .     S
C1174  C1193   1.415   .     A
C1174  C1176   1.384   .     A
C1175  H1197   1.074   .     S
C1176  H1198   1.074   .     S
C1176  C490    1.395   1_556 S
C1177  C710    1.319   1_565 S
C1177  H733    1.088   1_565 S
C1179  O1209   1.312   .     A
C1179  C1181   1.489   .     S
C1179  O1211   1.319   .     A
C1180  O1212   1.319   .     A
C1180  O1210   1.312   .     A
C1180  C1182   1.489   .     S
C1181  C1185   1.420   .     A
C1181  C1187   1.400   .     A
C1182  C1186   1.420   .     A
C1182  C1188   1.400   .     A
C1183  C1191   1.410   .     A
C1183  C1185   1.409   .     A
C1183  O1371   1.384   1_455 S
C1184  C1186   1.410   .     A
C1184  C1192   1.410   .     A
C1184  O1301   1.384   .     S
C1185  Br1370  1.928   1_455 S
C1186  Br1291  1.928   .     S
C1187  H1200   1.075   .     S
C1187  C1189   1.400   .     A
C1188  H1199   1.075   .     S
C1188  C1190   1.400   .     A
C1189  C1191   1.407   .     A
C1189  C1193   1.425   .     A
C1190  C1194   1.425   .     A
C1190  C1192   1.407   .     A
C1191  C473    1.395   1_556 S
C1193  C492    1.426   1_556 S
Cu1195 N1204   2.050   .     S
Cu1195 Cu1196  2.728   .     S
Cu1195 O1208   1.960   .     S
Cu1195 O1205   1.980   .     S
Cu1195 O1212   1.929   .     S
Cu1195 O1209   1.945   .     S
Cu1196 O1206   1.980   .     S
Cu1196 N1203   2.050   .     S
Cu1196 O1207   1.960   .     S
Cu1196 O1210   1.945   .     S
Cu1196 O1211   1.929   .     S
H1202  C710    1.088   1_565 S
N1203  N1282   1.281   .     S
N1203  O1311   1.345   .     S
N1204  N1359   1.281   1_455 S
N1204  O1397   1.345   1_455 S
Br1213 C1342   1.928   1_455 S
Br1214 C1263   1.928   .     S
O1215  C1216   1.412   .     S
O1215  C1261   1.384   .     S
C1216  H1217   1.117   .     S
C1216  H1218   1.108   .     S
C1216  C517    1.523   1_556 S
C1219  H1222   1.107   .     S
C1219  H1220   1.106   .     S
H1221  C751    1.108   1_565 S
O1223  C1224   1.413   .     S
O1223  C1340   1.384   1_455 S
C1224  H1226   1.117   .     S
C1224  H1225   1.108   .     S
C1227  H1230   1.106   .     S
C1227  H1228   1.107   .     S
C1227  C522    1.523   1_556 S
C1227  H761    1.108   1_565 S
O1233  N1359   1.345   1_455 S
O1233  C1390   1.407   1_455 S
C1234  H1236   1.105   .     S
C1234  O1311   1.407   .     S
C1234  H1313   1.111   .     S
C1234  C1315   1.523   .     S
H1235  C1390   1.111   1_455 S
C1237  H1238   1.111   .     S
C1237  H1240   1.108   .     S
C1237  C1390   1.523   1_455 S
C1237  H1395   1.108   1_455 S
H1239  C1315   1.108   .     S
O1241  N1282   1.345   .     S
O1241  C1320   1.407   .     S
C1242  H1243   1.105   .     S
C1242  O1397   1.407   1_455 S
C1242  H1400   1.111   1_455 S
C1242  C1401   1.523   1_455 S
H1244  C1320   1.111   .     S
C1245  H1246   1.108   .     S
C1245  H1248   1.111   .     S
C1245  C1320   1.523   .     S
C1245  H1325   1.108   .     S
H1247  C1401   1.108   1_455 S
C1249  O1285   1.292   .     A
C1249  O1283   1.311   .     A
C1249  C1255   1.430   .     S
C1250  O1286   1.292   .     A
C1250  O1284   1.311   .     A
C1250  C1256   1.430   .     S
C1251  C1272   1.415   .     A
C1251  Br1309  1.917   .     S
C1251  C1253   1.384   .     A
C1252  Br1310  1.917   .     S
C1252  C1271   1.415   .     A
C1252  C1254   1.384   .     A
C1253  H1275   1.074   .     S
C1254  H1276   1.074   .     S
C1254  C568    1.395   1_556 S
C1255  C788    1.319   1_565 S
C1255  H811    1.088   1_565 S
C1257  O1287   1.312   .     A
C1257  C1259   1.489   .     S
C1257  O1289   1.319   .     A
C1258  O1290   1.319   .     A
C1258  O1288   1.312   .     A
C1258  C1260   1.489   .     S
C1259  C1263   1.420   .     A
C1259  C1265   1.400   .     A
C1260  C1264   1.420   .     A
C1260  C1266   1.400   .     A
C1261  C1269   1.410   .     A
C1261  C1263   1.409   .     A
C1262  C1264   1.410   .     A
C1262  C1270   1.410   .     A
C1262  O1379   1.384   .     S
C1264  Br1369  1.928   .     S
C1265  H1278   1.075   .     S
C1265  C1267   1.400   .     A
C1266  H1277   1.075   .     S
C1266  C1268   1.400   .     A
C1267  C1269   1.407   .     A
C1267  C1271   1.425   .     A
C1268  C1272   1.425   .     A
C1268  C1270   1.407   .     A
C1269  C551    1.395   1_556 S
C1271  C570    1.426   1_556 S
Cu1273 N1282   2.050   .     S
Cu1273 Cu1274  2.728   .     S
Cu1273 O1286   1.960   .     S
Cu1273 O1283   1.980   .     S
Cu1273 O1290   1.929   .     S
Cu1273 O1287   1.945   .     S
Cu1274 O1284   1.980   .     S
Cu1274 N1281   2.050   .     S
Cu1274 O1285   1.960   .     S
Cu1274 O1288   1.945   .     S
Cu1274 O1289   1.929   .     S
H1280  C788    1.088   1_565 S
N1281  N1360   1.281   .     S
N1281  O1389   1.345   .     S
Br1292 C1341   1.928   .     S
O1293  C1294   1.412   .     S
O1293  C1339   1.384   .     S
C1294  H1295   1.117   .     S
C1294  H1296   1.108   .     S
C1294  C595    1.523   1_556 S
C1297  H1300   1.107   .     S
C1297  H1298   1.106   .     S
H1299  C829    1.108   1_565 S
O1301  C1302   1.413   .     S
C1302  H1304   1.117   .     S
C1302  H1303   1.108   .     S
C1305  H1308   1.106   .     S
C1305  H1306   1.107   .     S
C1305  C600    1.523   1_556 S
C1305  H839    1.108   1_565 S
C1312  H1314   1.105   .     S
C1312  O1389   1.407   .     S
C1312  H1391   1.111   .     S
C1312  C1393   1.523   .     S
C1315  H1316   1.111   .     S
C1315  H1318   1.108   .     S
H1317  C1393   1.108   .     S
O1319  N1360   1.345   .     S
O1319  C1398   1.407   .     S
C1320  H1321   1.105   .     S
H1322  C1398   1.111   .     S
C1323  H1324   1.108   .     S
C1323  H1326   1.111   .     S
C1323  C1398   1.523   .     S
C1323  H1403   1.108   .     S
C1327  O1363   1.292   .     A
C1327  O1361   1.311   .     A
C1327  C1333   1.430   .     S
C1328  O1364   1.292   .     A
C1328  O1362   1.311   .     A
C1328  C1334   1.430   .     S
C1329  C1350   1.415   .     A
C1329  Br1387  1.917   .     S
C1329  C1331   1.384   .     A
C1330  Br1388  1.917   .     S
C1330  C1349   1.415   .     A
C1330  C1332   1.384   .     A
C1331  H1353   1.074   .     S
C1332  H1354   1.074   .     S
C1332  C646    1.395   1_556 S
C1333  C866    1.319   1_565 S
C1333  H889    1.088   1_565 S
C1335  O1365   1.312   .     A
C1335  C1337   1.489   .     S
C1335  O1367   1.319   .     A
C1336  O1368   1.319   .     A
C1336  O1366   1.312   .     A
C1336  C1338   1.489   .     S
C1337  C1341   1.420   .     A
C1337  C1343   1.400   .     A
C1338  C1342   1.420   .     A
C1338  C1344   1.400   .     A
C1339  C1347   1.410   .     A
C1339  C1341   1.409   .     A
C1340  C1342   1.410   .     A
C1340  C1348   1.410   .     A
C1340  O1223   1.384   1_655 S
C1342  Br1213  1.928   1_655 S
C1343  H1356   1.075   .     S
C1343  C1345   1.400   .     A
C1344  H1355   1.075   .     S
C1344  C1346   1.400   .     A
C1345  C1347   1.407   .     A
C1345  C1349   1.425   .     A
C1346  C1350   1.425   .     A
C1346  C1348   1.407   .     A
C1347  C629    1.395   1_556 S
C1349  C648    1.426   1_556 S
Cu1351 N1360   2.050   .     S
Cu1351 Cu1352  2.728   .     S
Cu1351 O1364   1.960   .     S
Cu1351 O1361   1.980   .     S
Cu1351 O1368   1.929   .     S
Cu1351 O1365   1.945   .     S
Cu1352 O1362   1.980   .     S
Cu1352 N1359   2.050   .     S
Cu1352 O1363   1.960   .     S
Cu1352 O1366   1.945   .     S
Cu1352 O1367   1.929   .     S
H1358  C866    1.088   1_565 S
N1359  N1204   1.281   1_655 S
N1359  O1233   1.345   1_655 S
Br1370 C1185   1.928   1_655 S
O1371  C1372   1.412   .     S
O1371  C1183   1.384   1_655 S
C1372  H1373   1.117   .     S
C1372  H1374   1.108   .     S
C1372  C673    1.523   1_556 S
C1375  H1378   1.107   .     S
C1375  H1376   1.106   .     S
H1377  C907    1.108   1_565 S
O1379  C1380   1.413   .     S
C1380  H1382   1.117   .     S
C1380  H1381   1.108   .     S
C1383  H1386   1.106   .     S
C1383  H1384   1.107   .     S
C1383  C678    1.523   1_556 S
C1383  H917    1.108   1_565 S
C1390  H1392   1.105   .     S
C1390  O1233   1.407   1_655 S
C1390  H1235   1.111   1_655 S
C1390  C1237   1.523   1_655 S
C1393  H1394   1.111   .     S
C1393  H1396   1.108   .     S
H1395  C1237   1.108   1_655 S
O1397  N1204   1.345   1_655 S
O1397  C1242   1.407   1_655 S
C1398  H1399   1.105   .     S
H1400  C1242   1.111   1_655 S
C1401  H1402   1.108   .     S
C1401  H1404   1.111   .     S
C1401  C1242   1.523   1_655 S
C1401  H1247   1.108   1_655 S
