data_str_m2_o10_o17_pcu_sym.130
_audit_creation_date              2020-01-03
_audit_creation_method            'Materials Studio'
_symmetry_space_group_name_H-M    'P1'
_symmetry_Int_Tables_number       1
_symmetry_cell_setting            triclinic
loop_
_symmetry_equiv_pos_as_xyz
  x,y,z
_cell_length_a                    30.0614
_cell_length_b                    26.1450
_cell_length_c                    22.5115
_cell_angle_alpha                 102.7618
_cell_angle_beta                  95.0954
_cell_angle_gamma                 93.7336
loop_
_atom_site_label
_atom_site_type_symbol
_atom_site_fract_x
_atom_site_fract_y
_atom_site_fract_z
_atom_site_U_iso_or_equiv
_atom_site_adp_type
_atom_site_occupancy
C1     C     0.24807   0.06677   0.15151   0.00000  Uiso   1.00
C2     C     0.25193   0.26656   0.18183   0.00000  Uiso   1.00
C3     C     0.01411   0.12304   0.05857   0.00000  Uiso   1.00
C4     C     0.48589   0.21029   0.27476   0.00000  Uiso   1.00
C5     C     0.24062   0.01132   0.14500   0.00000  Uiso   1.00
C6     C     0.25938   0.32202   0.18833   0.00000  Uiso   1.00
C7     C     0.16444   0.16636   0.16693   0.00000  Uiso   1.00
C8     C     0.33556   0.16697   0.16640   0.00000  Uiso   1.00
C9     C     0.41183   0.18865   0.22009   0.00000  Uiso   1.00
C10    C     0.08817   0.14468   0.11324   0.00000  Uiso   1.00
C11    C     0.38394   0.16732   0.16598   0.00000  Uiso   1.00
C12    C     0.11606   0.16601   0.16735   0.00000  Uiso   1.00
C13    C     0.40220   0.14598   0.11179   0.00000  Uiso   1.00
C14    C     0.09780   0.18735   0.22154   0.00000  Uiso   1.00
C15    C     0.44859   0.14510   0.11122   0.00000  Uiso   1.00
C16    C     0.05141   0.18823   0.22211   0.00000  Uiso   1.00
C17    C     0.47667   0.16681   0.16625   0.00000  Uiso   1.00
C18    C     0.02333   0.16653   0.16709   0.00000  Uiso   1.00
C19    C     0.45809   0.18871   0.22059   0.00000  Uiso   1.00
C20    C     0.04191   0.14462   0.11275   0.00000  Uiso   1.00
C21    C     0.46770   0.12293   0.05739   0.00000  Uiso   1.00
C22    C     0.03230   0.21040   0.27594   0.00000  Uiso   1.00
Cu23   Cu    0.25501   0.17246   0.22813   0.00000  Uiso   1.00
Cu24   Cu    0.24500   0.16087   0.10521   0.00000  Uiso   1.00
H25    H     0.39753   0.20548   0.26188   0.00000  Uiso   1.00
H26    H     0.10247   0.12785   0.07145   0.00000  Uiso   1.00
H27    H     0.37990   0.12953   0.07060   0.00000  Uiso   1.00
H28    H     0.12011   0.20380   0.26273   0.00000  Uiso   1.00
H29    H     0.02851   0.10616   0.01691   0.00000  Uiso   1.00
H30    H     0.47149   0.22717   0.31642   0.00000  Uiso   1.00
N31    N     0.23745   0.15214   0.01284   0.00000  Uiso   1.00
N32    N     0.26256   0.18119   0.32049   0.00000  Uiso   1.00
O33    O     0.25326   0.09538   0.20659   0.00000  Uiso   1.00
O34    O     0.24675   0.23796   0.12674   0.00000  Uiso   1.00
O35    O     0.24480   0.08559   0.10279   0.00000  Uiso   1.00
O36    O     0.25520   0.24774   0.23055   0.00000  Uiso   1.00
O37    O     0.18936   0.17155   0.21857   0.00000  Uiso   1.00
O38    O     0.31065   0.16179   0.11476   0.00000  Uiso   1.00
O39    O     0.18090   0.16176   0.11477   0.00000  Uiso   1.00
O40    O     0.31910   0.17157   0.21857   0.00000  Uiso   1.00
Br41   Br    0.43250   0.09113   0.31436   0.00000  Uiso   1.00
Br42   Br    0.06750   0.24221   0.01897   0.00000  Uiso   1.00
Br43   Br    0.19576   0.30966   0.07862   0.00000  Uiso   1.00
Br44   Br    0.30424   0.02367   0.25471   0.00000  Uiso   1.00
Br45   Br    0.19288   0.10115   0.30078   0.00000  Uiso   1.00
Br46   Br    0.30712   0.23218   0.03255   0.00000  Uiso   1.00
C47    C     0.74807   0.06677   0.15151   0.00000  Uiso   1.00
C48    C     0.75193   0.26656   0.18183   0.00000  Uiso   1.00
C49    C     0.51411   0.12304   0.05857   0.00000  Uiso   1.00
C50    C     0.98589   0.21029   0.27476   0.00000  Uiso   1.00
C51    C     0.74062   0.01132   0.14500   0.00000  Uiso   1.00
C52    C     0.75938   0.32202   0.18833   0.00000  Uiso   1.00
C53    C     0.66444   0.16636   0.16693   0.00000  Uiso   1.00
C54    C     0.83556   0.16697   0.16640   0.00000  Uiso   1.00
C55    C     0.91183   0.18865   0.22009   0.00000  Uiso   1.00
C56    C     0.58817   0.14468   0.11324   0.00000  Uiso   1.00
C57    C     0.88394   0.16732   0.16598   0.00000  Uiso   1.00
C58    C     0.61606   0.16601   0.16735   0.00000  Uiso   1.00
C59    C     0.90220   0.14598   0.11179   0.00000  Uiso   1.00
C60    C     0.59780   0.18735   0.22154   0.00000  Uiso   1.00
C61    C     0.94859   0.14510   0.11122   0.00000  Uiso   1.00
C62    C     0.55141   0.18823   0.22211   0.00000  Uiso   1.00
C63    C     0.97667   0.16681   0.16625   0.00000  Uiso   1.00
C64    C     0.52333   0.16653   0.16709   0.00000  Uiso   1.00
C65    C     0.95809   0.18871   0.22059   0.00000  Uiso   1.00
C66    C     0.54191   0.14462   0.11275   0.00000  Uiso   1.00
C67    C     0.96770   0.12293   0.05739   0.00000  Uiso   1.00
C68    C     0.53230   0.21040   0.27594   0.00000  Uiso   1.00
Cu69   Cu    0.75501   0.17246   0.22813   0.00000  Uiso   1.00
Cu70   Cu    0.74500   0.16087   0.10521   0.00000  Uiso   1.00
H71    H     0.89753   0.20548   0.26188   0.00000  Uiso   1.00
H72    H     0.60247   0.12785   0.07145   0.00000  Uiso   1.00
H73    H     0.87990   0.12953   0.07060   0.00000  Uiso   1.00
H74    H     0.62011   0.20380   0.26273   0.00000  Uiso   1.00
H75    H     0.52851   0.10616   0.01691   0.00000  Uiso   1.00
H76    H     0.97149   0.22717   0.31642   0.00000  Uiso   1.00
N77    N     0.73745   0.15214   0.01284   0.00000  Uiso   1.00
N78    N     0.76256   0.18119   0.32049   0.00000  Uiso   1.00
O79    O     0.75326   0.09538   0.20659   0.00000  Uiso   1.00
O80    O     0.74675   0.23796   0.12674   0.00000  Uiso   1.00
O81    O     0.74480   0.08559   0.10279   0.00000  Uiso   1.00
O82    O     0.75520   0.24774   0.23055   0.00000  Uiso   1.00
O83    O     0.68936   0.17155   0.21857   0.00000  Uiso   1.00
O84    O     0.81065   0.16179   0.11476   0.00000  Uiso   1.00
O85    O     0.68090   0.16176   0.11477   0.00000  Uiso   1.00
O86    O     0.81910   0.17157   0.21857   0.00000  Uiso   1.00
Br87   Br    0.93250   0.09113   0.31436   0.00000  Uiso   1.00
Br88   Br    0.56750   0.24221   0.01897   0.00000  Uiso   1.00
Br89   Br    0.69576   0.30966   0.07862   0.00000  Uiso   1.00
Br90   Br    0.80424   0.02367   0.25471   0.00000  Uiso   1.00
Br91   Br    0.69288   0.10115   0.30078   0.00000  Uiso   1.00
Br92   Br    0.80712   0.23218   0.03255   0.00000  Uiso   1.00
C93    C     0.24807   0.40010   0.15151   0.00000  Uiso   1.00
C94    C     0.25193   0.59990   0.18183   0.00000  Uiso   1.00
C95    C     0.01411   0.45637   0.05857   0.00000  Uiso   1.00
C96    C     0.48589   0.54363   0.27476   0.00000  Uiso   1.00
C97    C     0.24062   0.34465   0.14500   0.00000  Uiso   1.00
C98    C     0.25938   0.65535   0.18833   0.00000  Uiso   1.00
C99    C     0.16444   0.49970   0.16693   0.00000  Uiso   1.00
C100   C     0.33556   0.50030   0.16640   0.00000  Uiso   1.00
C101   C     0.41183   0.52199   0.22009   0.00000  Uiso   1.00
C102   C     0.08817   0.47801   0.11324   0.00000  Uiso   1.00
C103   C     0.38394   0.50065   0.16598   0.00000  Uiso   1.00
C104   C     0.11606   0.49935   0.16735   0.00000  Uiso   1.00
C105   C     0.40220   0.47932   0.11179   0.00000  Uiso   1.00
C106   C     0.09780   0.52068   0.22154   0.00000  Uiso   1.00
C107   C     0.44859   0.47844   0.11122   0.00000  Uiso   1.00
C108   C     0.05141   0.52156   0.22211   0.00000  Uiso   1.00
C109   C     0.47667   0.50014   0.16625   0.00000  Uiso   1.00
C110   C     0.02333   0.49986   0.16709   0.00000  Uiso   1.00
C111   C     0.45809   0.52205   0.22059   0.00000  Uiso   1.00
C112   C     0.04191   0.47795   0.11275   0.00000  Uiso   1.00
C113   C     0.46770   0.45627   0.05739   0.00000  Uiso   1.00
C114   C     0.03230   0.54373   0.27594   0.00000  Uiso   1.00
Cu115  Cu    0.25501   0.50579   0.22813   0.00000  Uiso   1.00
Cu116  Cu    0.24500   0.49421   0.10521   0.00000  Uiso   1.00
H117   H     0.39753   0.53882   0.26188   0.00000  Uiso   1.00
H118   H     0.10247   0.46118   0.07145   0.00000  Uiso   1.00
H119   H     0.37990   0.46286   0.07060   0.00000  Uiso   1.00
H120   H     0.12011   0.53714   0.26273   0.00000  Uiso   1.00
H121   H     0.02851   0.43950   0.01691   0.00000  Uiso   1.00
H122   H     0.47149   0.56050   0.31642   0.00000  Uiso   1.00
N123   N     0.23745   0.48547   0.01284   0.00000  Uiso   1.00
N124   N     0.26256   0.51453   0.32049   0.00000  Uiso   1.00
O125   O     0.25326   0.42871   0.20659   0.00000  Uiso   1.00
O126   O     0.24675   0.57129   0.12674   0.00000  Uiso   1.00
O127   O     0.24480   0.41892   0.10279   0.00000  Uiso   1.00
O128   O     0.25520   0.58108   0.23055   0.00000  Uiso   1.00
O129   O     0.18936   0.50488   0.21857   0.00000  Uiso   1.00
O130   O     0.31065   0.49512   0.11476   0.00000  Uiso   1.00
O131   O     0.18090   0.49510   0.11477   0.00000  Uiso   1.00
O132   O     0.31910   0.50490   0.21857   0.00000  Uiso   1.00
Br133  Br    0.43250   0.42446   0.31436   0.00000  Uiso   1.00
Br134  Br    0.06750   0.57554   0.01897   0.00000  Uiso   1.00
Br135  Br    0.19576   0.64299   0.07862   0.00000  Uiso   1.00
Br136  Br    0.30424   0.35701   0.25471   0.00000  Uiso   1.00
Br137  Br    0.19288   0.43448   0.30078   0.00000  Uiso   1.00
Br138  Br    0.30712   0.56552   0.03255   0.00000  Uiso   1.00
C139   C     0.74807   0.40010   0.15151   0.00000  Uiso   1.00
C140   C     0.75193   0.59990   0.18183   0.00000  Uiso   1.00
C141   C     0.51411   0.45637   0.05857   0.00000  Uiso   1.00
C142   C     0.98589   0.54363   0.27476   0.00000  Uiso   1.00
C143   C     0.74062   0.34465   0.14500   0.00000  Uiso   1.00
C144   C     0.75938   0.65535   0.18833   0.00000  Uiso   1.00
C145   C     0.66444   0.49970   0.16693   0.00000  Uiso   1.00
C146   C     0.83556   0.50030   0.16640   0.00000  Uiso   1.00
C147   C     0.91183   0.52199   0.22009   0.00000  Uiso   1.00
C148   C     0.58817   0.47801   0.11324   0.00000  Uiso   1.00
C149   C     0.88394   0.50065   0.16598   0.00000  Uiso   1.00
C150   C     0.61606   0.49935   0.16735   0.00000  Uiso   1.00
C151   C     0.90220   0.47932   0.11179   0.00000  Uiso   1.00
C152   C     0.59780   0.52068   0.22154   0.00000  Uiso   1.00
C153   C     0.94859   0.47844   0.11122   0.00000  Uiso   1.00
C154   C     0.55141   0.52156   0.22211   0.00000  Uiso   1.00
C155   C     0.97667   0.50014   0.16625   0.00000  Uiso   1.00
C156   C     0.52333   0.49986   0.16709   0.00000  Uiso   1.00
C157   C     0.95809   0.52205   0.22059   0.00000  Uiso   1.00
C158   C     0.54191   0.47795   0.11275   0.00000  Uiso   1.00
C159   C     0.96770   0.45627   0.05739   0.00000  Uiso   1.00
C160   C     0.53230   0.54373   0.27594   0.00000  Uiso   1.00
Cu161  Cu    0.75501   0.50579   0.22813   0.00000  Uiso   1.00
Cu162  Cu    0.74500   0.49421   0.10521   0.00000  Uiso   1.00
H163   H     0.89753   0.53882   0.26188   0.00000  Uiso   1.00
H164   H     0.60247   0.46118   0.07145   0.00000  Uiso   1.00
H165   H     0.87990   0.46286   0.07060   0.00000  Uiso   1.00
H166   H     0.62011   0.53714   0.26273   0.00000  Uiso   1.00
H167   H     0.52851   0.43950   0.01691   0.00000  Uiso   1.00
H168   H     0.97149   0.56050   0.31642   0.00000  Uiso   1.00
N169   N     0.73745   0.48547   0.01284   0.00000  Uiso   1.00
N170   N     0.76256   0.51453   0.32049   0.00000  Uiso   1.00
O171   O     0.75326   0.42871   0.20659   0.00000  Uiso   1.00
O172   O     0.74675   0.57129   0.12674   0.00000  Uiso   1.00
O173   O     0.74480   0.41892   0.10279   0.00000  Uiso   1.00
O174   O     0.75520   0.58108   0.23055   0.00000  Uiso   1.00
O175   O     0.68936   0.50488   0.21857   0.00000  Uiso   1.00
O176   O     0.81065   0.49512   0.11476   0.00000  Uiso   1.00
O177   O     0.68090   0.49510   0.11477   0.00000  Uiso   1.00
O178   O     0.81910   0.50490   0.21857   0.00000  Uiso   1.00
Br179  Br    0.93250   0.42446   0.31436   0.00000  Uiso   1.00
Br180  Br    0.56750   0.57554   0.01897   0.00000  Uiso   1.00
Br181  Br    0.69576   0.64299   0.07862   0.00000  Uiso   1.00
Br182  Br    0.80424   0.35701   0.25471   0.00000  Uiso   1.00
Br183  Br    0.69288   0.43448   0.30078   0.00000  Uiso   1.00
Br184  Br    0.80712   0.56552   0.03255   0.00000  Uiso   1.00
C185   C     0.24807   0.73344   0.15151   0.00000  Uiso   1.00
C186   C     0.25193   0.93323   0.18183   0.00000  Uiso   1.00
C187   C     0.01411   0.78971   0.05857   0.00000  Uiso   1.00
C188   C     0.48589   0.87696   0.27476   0.00000  Uiso   1.00
C189   C     0.24062   0.67798   0.14500   0.00000  Uiso   1.00
C190   C     0.25938   0.98868   0.18833   0.00000  Uiso   1.00
C191   C     0.16444   0.83303   0.16693   0.00000  Uiso   1.00
C192   C     0.33556   0.83364   0.16640   0.00000  Uiso   1.00
C193   C     0.41183   0.85532   0.22009   0.00000  Uiso   1.00
C194   C     0.08817   0.81135   0.11324   0.00000  Uiso   1.00
C195   C     0.38394   0.83399   0.16598   0.00000  Uiso   1.00
C196   C     0.11606   0.83268   0.16735   0.00000  Uiso   1.00
C197   C     0.40220   0.81265   0.11179   0.00000  Uiso   1.00
C198   C     0.09780   0.85402   0.22154   0.00000  Uiso   1.00
C199   C     0.44859   0.81177   0.11122   0.00000  Uiso   1.00
C200   C     0.05141   0.85490   0.22211   0.00000  Uiso   1.00
C201   C     0.47667   0.83347   0.16625   0.00000  Uiso   1.00
C202   C     0.02333   0.83319   0.16709   0.00000  Uiso   1.00
C203   C     0.45809   0.85538   0.22059   0.00000  Uiso   1.00
C204   C     0.04191   0.81129   0.11275   0.00000  Uiso   1.00
C205   C     0.46770   0.78960   0.05739   0.00000  Uiso   1.00
C206   C     0.03230   0.87707   0.27594   0.00000  Uiso   1.00
Cu207  Cu    0.25501   0.83913   0.22813   0.00000  Uiso   1.00
Cu208  Cu    0.24500   0.82754   0.10521   0.00000  Uiso   1.00
H209   H     0.39753   0.87215   0.26188   0.00000  Uiso   1.00
H210   H     0.10247   0.79452   0.07145   0.00000  Uiso   1.00
H211   H     0.37990   0.79620   0.07060   0.00000  Uiso   1.00
H212   H     0.12011   0.87047   0.26273   0.00000  Uiso   1.00
H213   H     0.02851   0.77283   0.01691   0.00000  Uiso   1.00
H214   H     0.47149   0.89384   0.31642   0.00000  Uiso   1.00
N215   N     0.23745   0.81881   0.01284   0.00000  Uiso   1.00
N216   N     0.26256   0.84786   0.32049   0.00000  Uiso   1.00
O217   O     0.25326   0.76204   0.20659   0.00000  Uiso   1.00
O218   O     0.24675   0.90462   0.12674   0.00000  Uiso   1.00
O219   O     0.24480   0.75226   0.10279   0.00000  Uiso   1.00
O220   O     0.25520   0.91441   0.23055   0.00000  Uiso   1.00
O221   O     0.18936   0.83821   0.21857   0.00000  Uiso   1.00
O222   O     0.31065   0.82845   0.11476   0.00000  Uiso   1.00
O223   O     0.18090   0.82843   0.11477   0.00000  Uiso   1.00
O224   O     0.31910   0.83824   0.21857   0.00000  Uiso   1.00
Br225  Br    0.43250   0.75779   0.31436   0.00000  Uiso   1.00
Br226  Br    0.06750   0.90887   0.01897   0.00000  Uiso   1.00
Br227  Br    0.19576   0.97633   0.07862   0.00000  Uiso   1.00
Br228  Br    0.30424   0.69034   0.25471   0.00000  Uiso   1.00
Br229  Br    0.19288   0.76782   0.30078   0.00000  Uiso   1.00
Br230  Br    0.30712   0.89885   0.03255   0.00000  Uiso   1.00
C231   C     0.74807   0.73344   0.15151   0.00000  Uiso   1.00
C232   C     0.75193   0.93323   0.18183   0.00000  Uiso   1.00
C233   C     0.51411   0.78971   0.05857   0.00000  Uiso   1.00
C234   C     0.98589   0.87696   0.27476   0.00000  Uiso   1.00
C235   C     0.74062   0.67798   0.14500   0.00000  Uiso   1.00
C236   C     0.75938   0.98868   0.18833   0.00000  Uiso   1.00
C237   C     0.66444   0.83303   0.16693   0.00000  Uiso   1.00
C238   C     0.83556   0.83364   0.16640   0.00000  Uiso   1.00
C239   C     0.91183   0.85532   0.22009   0.00000  Uiso   1.00
C240   C     0.58817   0.81135   0.11324   0.00000  Uiso   1.00
C241   C     0.88394   0.83399   0.16598   0.00000  Uiso   1.00
C242   C     0.61606   0.83268   0.16735   0.00000  Uiso   1.00
C243   C     0.90220   0.81265   0.11179   0.00000  Uiso   1.00
C244   C     0.59780   0.85402   0.22154   0.00000  Uiso   1.00
C245   C     0.94859   0.81177   0.11122   0.00000  Uiso   1.00
C246   C     0.55141   0.85490   0.22211   0.00000  Uiso   1.00
C247   C     0.97667   0.83347   0.16625   0.00000  Uiso   1.00
C248   C     0.52333   0.83319   0.16709   0.00000  Uiso   1.00
C249   C     0.95809   0.85538   0.22059   0.00000  Uiso   1.00
C250   C     0.54191   0.81129   0.11275   0.00000  Uiso   1.00
C251   C     0.96770   0.78960   0.05739   0.00000  Uiso   1.00
C252   C     0.53230   0.87707   0.27594   0.00000  Uiso   1.00
Cu253  Cu    0.75501   0.83913   0.22813   0.00000  Uiso   1.00
Cu254  Cu    0.74500   0.82754   0.10521   0.00000  Uiso   1.00
H255   H     0.89753   0.87215   0.26188   0.00000  Uiso   1.00
H256   H     0.60247   0.79452   0.07145   0.00000  Uiso   1.00
H257   H     0.87990   0.79620   0.07060   0.00000  Uiso   1.00
H258   H     0.62011   0.87047   0.26273   0.00000  Uiso   1.00
H259   H     0.52851   0.77283   0.01691   0.00000  Uiso   1.00
H260   H     0.97149   0.89384   0.31642   0.00000  Uiso   1.00
N261   N     0.73745   0.81881   0.01284   0.00000  Uiso   1.00
N262   N     0.76256   0.84786   0.32049   0.00000  Uiso   1.00
O263   O     0.75326   0.76204   0.20659   0.00000  Uiso   1.00
O264   O     0.74675   0.90462   0.12674   0.00000  Uiso   1.00
O265   O     0.74480   0.75226   0.10279   0.00000  Uiso   1.00
O266   O     0.75520   0.91441   0.23055   0.00000  Uiso   1.00
O267   O     0.68936   0.83821   0.21857   0.00000  Uiso   1.00
O268   O     0.81065   0.82845   0.11476   0.00000  Uiso   1.00
O269   O     0.68090   0.82843   0.11477   0.00000  Uiso   1.00
O270   O     0.81910   0.83824   0.21857   0.00000  Uiso   1.00
Br271  Br    0.93250   0.75779   0.31436   0.00000  Uiso   1.00
Br272  Br    0.56750   0.90887   0.01897   0.00000  Uiso   1.00
Br273  Br    0.69576   0.97633   0.07862   0.00000  Uiso   1.00
Br274  Br    0.80424   0.69034   0.25471   0.00000  Uiso   1.00
Br275  Br    0.69288   0.76782   0.30078   0.00000  Uiso   1.00
Br276  Br    0.80712   0.89885   0.03255   0.00000  Uiso   1.00
C277   C     0.24807   0.06677   0.48484   0.00000  Uiso   1.00
C278   C     0.25193   0.26656   0.51516   0.00000  Uiso   1.00
C279   C     0.01411   0.12304   0.39190   0.00000  Uiso   1.00
C280   C     0.48589   0.21029   0.60810   0.00000  Uiso   1.00
C281   C     0.24062   0.01132   0.47833   0.00000  Uiso   1.00
C282   C     0.25938   0.32202   0.52167   0.00000  Uiso   1.00
C283   C     0.16444   0.16636   0.50026   0.00000  Uiso   1.00
C284   C     0.33556   0.16697   0.49974   0.00000  Uiso   1.00
C285   C     0.41183   0.18865   0.55342   0.00000  Uiso   1.00
C286   C     0.08817   0.14468   0.44658   0.00000  Uiso   1.00
C287   C     0.38394   0.16732   0.49931   0.00000  Uiso   1.00
C288   C     0.11606   0.16601   0.50069   0.00000  Uiso   1.00
C289   C     0.40220   0.14598   0.44513   0.00000  Uiso   1.00
C290   C     0.09780   0.18735   0.55487   0.00000  Uiso   1.00
C291   C     0.44859   0.14510   0.44455   0.00000  Uiso   1.00
C292   C     0.05141   0.18823   0.55545   0.00000  Uiso   1.00
C293   C     0.47667   0.16681   0.49958   0.00000  Uiso   1.00
C294   C     0.02333   0.16653   0.50042   0.00000  Uiso   1.00
C295   C     0.45809   0.18871   0.55392   0.00000  Uiso   1.00
C296   C     0.04191   0.14462   0.44608   0.00000  Uiso   1.00
C297   C     0.46770   0.12293   0.39072   0.00000  Uiso   1.00
C298   C     0.03230   0.21040   0.60927   0.00000  Uiso   1.00
Cu299  Cu    0.25501   0.17246   0.56146   0.00000  Uiso   1.00
Cu300  Cu    0.24500   0.16087   0.43854   0.00000  Uiso   1.00
H301   H     0.39753   0.20548   0.59521   0.00000  Uiso   1.00
H302   H     0.10247   0.12785   0.40479   0.00000  Uiso   1.00
H303   H     0.37990   0.12953   0.40393   0.00000  Uiso   1.00
H304   H     0.12011   0.20380   0.59607   0.00000  Uiso   1.00
H305   H     0.02851   0.10616   0.35025   0.00000  Uiso   1.00
H306   H     0.47149   0.22717   0.64975   0.00000  Uiso   1.00
N307   N     0.23745   0.15214   0.34617   0.00000  Uiso   1.00
N308   N     0.26256   0.18119   0.65383   0.00000  Uiso   1.00
O309   O     0.25326   0.09538   0.53992   0.00000  Uiso   1.00
O310   O     0.24675   0.23796   0.46008   0.00000  Uiso   1.00
O311   O     0.24480   0.08559   0.43612   0.00000  Uiso   1.00
O312   O     0.25520   0.24774   0.56388   0.00000  Uiso   1.00
O313   O     0.18936   0.17155   0.55191   0.00000  Uiso   1.00
O314   O     0.31065   0.16179   0.44809   0.00000  Uiso   1.00
O315   O     0.18090   0.16176   0.44810   0.00000  Uiso   1.00
O316   O     0.31910   0.17157   0.55190   0.00000  Uiso   1.00
Br317  Br    0.43250   0.09113   0.64770   0.00000  Uiso   1.00
Br318  Br    0.06750   0.24221   0.35230   0.00000  Uiso   1.00
Br319  Br    0.19576   0.30966   0.41196   0.00000  Uiso   1.00
Br320  Br    0.30424   0.02367   0.58804   0.00000  Uiso   1.00
Br321  Br    0.19288   0.10115   0.63411   0.00000  Uiso   1.00
Br322  Br    0.30712   0.23218   0.36589   0.00000  Uiso   1.00
C323   C     0.74807   0.06677   0.48484   0.00000  Uiso   1.00
C324   C     0.75193   0.26656   0.51516   0.00000  Uiso   1.00
C325   C     0.51411   0.12304   0.39190   0.00000  Uiso   1.00
C326   C     0.98589   0.21029   0.60810   0.00000  Uiso   1.00
C327   C     0.74062   0.01132   0.47833   0.00000  Uiso   1.00
C328   C     0.75938   0.32202   0.52167   0.00000  Uiso   1.00
C329   C     0.66444   0.16636   0.50026   0.00000  Uiso   1.00
C330   C     0.83556   0.16697   0.49974   0.00000  Uiso   1.00
C331   C     0.91183   0.18865   0.55342   0.00000  Uiso   1.00
C332   C     0.58817   0.14468   0.44658   0.00000  Uiso   1.00
C333   C     0.88394   0.16732   0.49931   0.00000  Uiso   1.00
C334   C     0.61606   0.16601   0.50069   0.00000  Uiso   1.00
C335   C     0.90220   0.14598   0.44513   0.00000  Uiso   1.00
C336   C     0.59780   0.18735   0.55487   0.00000  Uiso   1.00
C337   C     0.94859   0.14510   0.44455   0.00000  Uiso   1.00
C338   C     0.55141   0.18823   0.55545   0.00000  Uiso   1.00
C339   C     0.97667   0.16681   0.49958   0.00000  Uiso   1.00
C340   C     0.52333   0.16653   0.50042   0.00000  Uiso   1.00
C341   C     0.95809   0.18871   0.55392   0.00000  Uiso   1.00
C342   C     0.54191   0.14462   0.44608   0.00000  Uiso   1.00
C343   C     0.96770   0.12293   0.39072   0.00000  Uiso   1.00
C344   C     0.53230   0.21040   0.60927   0.00000  Uiso   1.00
Cu345  Cu    0.75501   0.17246   0.56146   0.00000  Uiso   1.00
Cu346  Cu    0.74500   0.16087   0.43854   0.00000  Uiso   1.00
H347   H     0.89753   0.20548   0.59521   0.00000  Uiso   1.00
H348   H     0.60247   0.12785   0.40479   0.00000  Uiso   1.00
H349   H     0.87990   0.12953   0.40393   0.00000  Uiso   1.00
H350   H     0.62011   0.20380   0.59607   0.00000  Uiso   1.00
H351   H     0.52851   0.10616   0.35025   0.00000  Uiso   1.00
H352   H     0.97149   0.22717   0.64975   0.00000  Uiso   1.00
N353   N     0.73745   0.15214   0.34617   0.00000  Uiso   1.00
N354   N     0.76256   0.18119   0.65383   0.00000  Uiso   1.00
O355   O     0.75326   0.09538   0.53992   0.00000  Uiso   1.00
O356   O     0.74675   0.23796   0.46008   0.00000  Uiso   1.00
O357   O     0.74480   0.08559   0.43612   0.00000  Uiso   1.00
O358   O     0.75520   0.24774   0.56388   0.00000  Uiso   1.00
O359   O     0.68936   0.17155   0.55191   0.00000  Uiso   1.00
O360   O     0.81065   0.16179   0.44809   0.00000  Uiso   1.00
O361   O     0.68090   0.16176   0.44810   0.00000  Uiso   1.00
O362   O     0.81910   0.17157   0.55190   0.00000  Uiso   1.00
Br363  Br    0.93250   0.09113   0.64770   0.00000  Uiso   1.00
Br364  Br    0.56750   0.24221   0.35230   0.00000  Uiso   1.00
Br365  Br    0.69576   0.30966   0.41196   0.00000  Uiso   1.00
Br366  Br    0.80424   0.02367   0.58804   0.00000  Uiso   1.00
Br367  Br    0.69288   0.10115   0.63411   0.00000  Uiso   1.00
Br368  Br    0.80712   0.23218   0.36589   0.00000  Uiso   1.00
C369   C     0.24807   0.40010   0.48484   0.00000  Uiso   1.00
C370   C     0.25193   0.59990   0.51516   0.00000  Uiso   1.00
C371   C     0.01411   0.45637   0.39190   0.00000  Uiso   1.00
C372   C     0.48589   0.54363   0.60810   0.00000  Uiso   1.00
C373   C     0.24062   0.34465   0.47833   0.00000  Uiso   1.00
C374   C     0.25938   0.65535   0.52167   0.00000  Uiso   1.00
C375   C     0.16444   0.49970   0.50026   0.00000  Uiso   1.00
C376   C     0.33556   0.50030   0.49974   0.00000  Uiso   1.00
C377   C     0.41183   0.52199   0.55342   0.00000  Uiso   1.00
C378   C     0.08817   0.47801   0.44658   0.00000  Uiso   1.00
C379   C     0.38394   0.50065   0.49931   0.00000  Uiso   1.00
C380   C     0.11606   0.49935   0.50069   0.00000  Uiso   1.00
C381   C     0.40220   0.47932   0.44513   0.00000  Uiso   1.00
C382   C     0.09780   0.52068   0.55487   0.00000  Uiso   1.00
C383   C     0.44859   0.47844   0.44455   0.00000  Uiso   1.00
C384   C     0.05141   0.52156   0.55545   0.00000  Uiso   1.00
C385   C     0.47667   0.50014   0.49958   0.00000  Uiso   1.00
C386   C     0.02333   0.49986   0.50042   0.00000  Uiso   1.00
C387   C     0.45809   0.52205   0.55392   0.00000  Uiso   1.00
C388   C     0.04191   0.47795   0.44608   0.00000  Uiso   1.00
C389   C     0.46770   0.45627   0.39072   0.00000  Uiso   1.00
C390   C     0.03230   0.54373   0.60927   0.00000  Uiso   1.00
Cu391  Cu    0.25501   0.50579   0.56146   0.00000  Uiso   1.00
Cu392  Cu    0.24500   0.49421   0.43854   0.00000  Uiso   1.00
H393   H     0.39753   0.53882   0.59521   0.00000  Uiso   1.00
H394   H     0.10247   0.46118   0.40479   0.00000  Uiso   1.00
H395   H     0.37990   0.46286   0.40393   0.00000  Uiso   1.00
H396   H     0.12011   0.53714   0.59607   0.00000  Uiso   1.00
H397   H     0.02851   0.43950   0.35025   0.00000  Uiso   1.00
H398   H     0.47149   0.56050   0.64975   0.00000  Uiso   1.00
N399   N     0.23745   0.48547   0.34617   0.00000  Uiso   1.00
N400   N     0.26256   0.51453   0.65383   0.00000  Uiso   1.00
O401   O     0.25326   0.42871   0.53992   0.00000  Uiso   1.00
O402   O     0.24675   0.57129   0.46008   0.00000  Uiso   1.00
O403   O     0.24480   0.41892   0.43612   0.00000  Uiso   1.00
O404   O     0.25520   0.58108   0.56388   0.00000  Uiso   1.00
O405   O     0.18936   0.50488   0.55191   0.00000  Uiso   1.00
O406   O     0.31065   0.49512   0.44809   0.00000  Uiso   1.00
O407   O     0.18090   0.49510   0.44810   0.00000  Uiso   1.00
O408   O     0.31910   0.50490   0.55190   0.00000  Uiso   1.00
Br409  Br    0.43250   0.42446   0.64770   0.00000  Uiso   1.00
Br410  Br    0.06750   0.57554   0.35230   0.00000  Uiso   1.00
Br411  Br    0.19576   0.64299   0.41196   0.00000  Uiso   1.00
Br412  Br    0.30424   0.35701   0.58804   0.00000  Uiso   1.00
Br413  Br    0.19288   0.43448   0.63411   0.00000  Uiso   1.00
Br414  Br    0.30712   0.56552   0.36589   0.00000  Uiso   1.00
C415   C     0.74807   0.40010   0.48484   0.00000  Uiso   1.00
C416   C     0.75193   0.59990   0.51516   0.00000  Uiso   1.00
C417   C     0.51411   0.45637   0.39190   0.00000  Uiso   1.00
C418   C     0.98589   0.54363   0.60810   0.00000  Uiso   1.00
C419   C     0.74062   0.34465   0.47833   0.00000  Uiso   1.00
C420   C     0.75938   0.65535   0.52167   0.00000  Uiso   1.00
C421   C     0.66444   0.49970   0.50026   0.00000  Uiso   1.00
C422   C     0.83556   0.50030   0.49974   0.00000  Uiso   1.00
C423   C     0.91183   0.52199   0.55342   0.00000  Uiso   1.00
C424   C     0.58817   0.47801   0.44658   0.00000  Uiso   1.00
C425   C     0.88394   0.50065   0.49931   0.00000  Uiso   1.00
C426   C     0.61606   0.49935   0.50069   0.00000  Uiso   1.00
C427   C     0.90220   0.47932   0.44513   0.00000  Uiso   1.00
C428   C     0.59780   0.52068   0.55487   0.00000  Uiso   1.00
C429   C     0.94859   0.47844   0.44455   0.00000  Uiso   1.00
C430   C     0.55141   0.52156   0.55545   0.00000  Uiso   1.00
C431   C     0.97667   0.50014   0.49958   0.00000  Uiso   1.00
C432   C     0.52333   0.49986   0.50042   0.00000  Uiso   1.00
C433   C     0.95809   0.52205   0.55392   0.00000  Uiso   1.00
C434   C     0.54191   0.47795   0.44608   0.00000  Uiso   1.00
C435   C     0.96770   0.45627   0.39072   0.00000  Uiso   1.00
C436   C     0.53230   0.54373   0.60927   0.00000  Uiso   1.00
Cu437  Cu    0.75501   0.50579   0.56146   0.00000  Uiso   1.00
Cu438  Cu    0.74500   0.49421   0.43854   0.00000  Uiso   1.00
H439   H     0.89753   0.53882   0.59521   0.00000  Uiso   1.00
H440   H     0.60247   0.46118   0.40479   0.00000  Uiso   1.00
H441   H     0.87990   0.46286   0.40393   0.00000  Uiso   1.00
H442   H     0.62011   0.53714   0.59607   0.00000  Uiso   1.00
H443   H     0.52851   0.43950   0.35025   0.00000  Uiso   1.00
H444   H     0.97149   0.56050   0.64975   0.00000  Uiso   1.00
N445   N     0.73745   0.48547   0.34617   0.00000  Uiso   1.00
N446   N     0.76256   0.51453   0.65383   0.00000  Uiso   1.00
O447   O     0.75326   0.42871   0.53992   0.00000  Uiso   1.00
O448   O     0.74675   0.57129   0.46008   0.00000  Uiso   1.00
O449   O     0.74480   0.41892   0.43612   0.00000  Uiso   1.00
O450   O     0.75520   0.58108   0.56388   0.00000  Uiso   1.00
O451   O     0.68936   0.50488   0.55191   0.00000  Uiso   1.00
O452   O     0.81065   0.49512   0.44809   0.00000  Uiso   1.00
O453   O     0.68090   0.49510   0.44810   0.00000  Uiso   1.00
O454   O     0.81910   0.50490   0.55190   0.00000  Uiso   1.00
Br455  Br    0.93250   0.42446   0.64770   0.00000  Uiso   1.00
Br456  Br    0.56750   0.57554   0.35230   0.00000  Uiso   1.00
Br457  Br    0.69576   0.64299   0.41196   0.00000  Uiso   1.00
Br458  Br    0.80424   0.35701   0.58804   0.00000  Uiso   1.00
Br459  Br    0.69288   0.43448   0.63411   0.00000  Uiso   1.00
Br460  Br    0.80712   0.56552   0.36589   0.00000  Uiso   1.00
C461   C     0.24807   0.73344   0.48484   0.00000  Uiso   1.00
C462   C     0.25193   0.93323   0.51516   0.00000  Uiso   1.00
C463   C     0.01411   0.78971   0.39190   0.00000  Uiso   1.00
C464   C     0.48589   0.87696   0.60810   0.00000  Uiso   1.00
C465   C     0.24062   0.67798   0.47833   0.00000  Uiso   1.00
C466   C     0.25938   0.98868   0.52167   0.00000  Uiso   1.00
C467   C     0.16444   0.83303   0.50026   0.00000  Uiso   1.00
C468   C     0.33556   0.83364   0.49974   0.00000  Uiso   1.00
C469   C     0.41183   0.85532   0.55342   0.00000  Uiso   1.00
C470   C     0.08817   0.81135   0.44658   0.00000  Uiso   1.00
C471   C     0.38394   0.83399   0.49931   0.00000  Uiso   1.00
C472   C     0.11606   0.83268   0.50069   0.00000  Uiso   1.00
C473   C     0.40220   0.81265   0.44513   0.00000  Uiso   1.00
C474   C     0.09780   0.85402   0.55487   0.00000  Uiso   1.00
C475   C     0.44859   0.81177   0.44455   0.00000  Uiso   1.00
C476   C     0.05141   0.85490   0.55545   0.00000  Uiso   1.00
C477   C     0.47667   0.83347   0.49958   0.00000  Uiso   1.00
C478   C     0.02333   0.83319   0.50042   0.00000  Uiso   1.00
C479   C     0.45809   0.85538   0.55392   0.00000  Uiso   1.00
C480   C     0.04191   0.81129   0.44608   0.00000  Uiso   1.00
C481   C     0.46770   0.78960   0.39072   0.00000  Uiso   1.00
C482   C     0.03230   0.87707   0.60927   0.00000  Uiso   1.00
Cu483  Cu    0.25501   0.83913   0.56146   0.00000  Uiso   1.00
Cu484  Cu    0.24500   0.82754   0.43854   0.00000  Uiso   1.00
H485   H     0.39753   0.87215   0.59521   0.00000  Uiso   1.00
H486   H     0.10247   0.79452   0.40479   0.00000  Uiso   1.00
H487   H     0.37990   0.79620   0.40393   0.00000  Uiso   1.00
H488   H     0.12011   0.87047   0.59607   0.00000  Uiso   1.00
H489   H     0.02851   0.77283   0.35025   0.00000  Uiso   1.00
H490   H     0.47149   0.89384   0.64975   0.00000  Uiso   1.00
N491   N     0.23745   0.81881   0.34617   0.00000  Uiso   1.00
N492   N     0.26256   0.84786   0.65383   0.00000  Uiso   1.00
O493   O     0.25326   0.76204   0.53992   0.00000  Uiso   1.00
O494   O     0.24675   0.90462   0.46008   0.00000  Uiso   1.00
O495   O     0.24480   0.75226   0.43612   0.00000  Uiso   1.00
O496   O     0.25520   0.91441   0.56388   0.00000  Uiso   1.00
O497   O     0.18936   0.83821   0.55191   0.00000  Uiso   1.00
O498   O     0.31065   0.82845   0.44809   0.00000  Uiso   1.00
O499   O     0.18090   0.82843   0.44810   0.00000  Uiso   1.00
O500   O     0.31910   0.83824   0.55190   0.00000  Uiso   1.00
Br501  Br    0.43250   0.75779   0.64770   0.00000  Uiso   1.00
Br502  Br    0.06750   0.90887   0.35230   0.00000  Uiso   1.00
Br503  Br    0.19576   0.97633   0.41196   0.00000  Uiso   1.00
Br504  Br    0.30424   0.69034   0.58804   0.00000  Uiso   1.00
Br505  Br    0.19288   0.76782   0.63411   0.00000  Uiso   1.00
Br506  Br    0.30712   0.89885   0.36589   0.00000  Uiso   1.00
C507   C     0.74807   0.73344   0.48484   0.00000  Uiso   1.00
C508   C     0.75193   0.93323   0.51516   0.00000  Uiso   1.00
C509   C     0.51411   0.78971   0.39190   0.00000  Uiso   1.00
C510   C     0.98589   0.87696   0.60810   0.00000  Uiso   1.00
C511   C     0.74062   0.67798   0.47833   0.00000  Uiso   1.00
C512   C     0.75938   0.98868   0.52167   0.00000  Uiso   1.00
C513   C     0.66444   0.83303   0.50026   0.00000  Uiso   1.00
C514   C     0.83556   0.83364   0.49974   0.00000  Uiso   1.00
C515   C     0.91183   0.85532   0.55342   0.00000  Uiso   1.00
C516   C     0.58817   0.81135   0.44658   0.00000  Uiso   1.00
C517   C     0.88394   0.83399   0.49931   0.00000  Uiso   1.00
C518   C     0.61606   0.83268   0.50069   0.00000  Uiso   1.00
C519   C     0.90220   0.81265   0.44513   0.00000  Uiso   1.00
C520   C     0.59780   0.85402   0.55487   0.00000  Uiso   1.00
C521   C     0.94859   0.81177   0.44455   0.00000  Uiso   1.00
C522   C     0.55141   0.85490   0.55545   0.00000  Uiso   1.00
C523   C     0.97667   0.83347   0.49958   0.00000  Uiso   1.00
C524   C     0.52333   0.83319   0.50042   0.00000  Uiso   1.00
C525   C     0.95809   0.85538   0.55392   0.00000  Uiso   1.00
C526   C     0.54191   0.81129   0.44608   0.00000  Uiso   1.00
C527   C     0.96770   0.78960   0.39072   0.00000  Uiso   1.00
C528   C     0.53230   0.87707   0.60927   0.00000  Uiso   1.00
Cu529  Cu    0.75501   0.83913   0.56146   0.00000  Uiso   1.00
Cu530  Cu    0.74500   0.82754   0.43854   0.00000  Uiso   1.00
H531   H     0.89753   0.87215   0.59521   0.00000  Uiso   1.00
H532   H     0.60247   0.79452   0.40479   0.00000  Uiso   1.00
H533   H     0.87990   0.79620   0.40393   0.00000  Uiso   1.00
H534   H     0.62011   0.87047   0.59607   0.00000  Uiso   1.00
H535   H     0.52851   0.77283   0.35025   0.00000  Uiso   1.00
H536   H     0.97149   0.89384   0.64975   0.00000  Uiso   1.00
N537   N     0.73745   0.81881   0.34617   0.00000  Uiso   1.00
N538   N     0.76256   0.84786   0.65383   0.00000  Uiso   1.00
O539   O     0.75326   0.76204   0.53992   0.00000  Uiso   1.00
O540   O     0.74675   0.90462   0.46008   0.00000  Uiso   1.00
O541   O     0.74480   0.75226   0.43612   0.00000  Uiso   1.00
O542   O     0.75520   0.91441   0.56388   0.00000  Uiso   1.00
O543   O     0.68936   0.83821   0.55191   0.00000  Uiso   1.00
O544   O     0.81065   0.82845   0.44809   0.00000  Uiso   1.00
O545   O     0.68090   0.82843   0.44810   0.00000  Uiso   1.00
O546   O     0.81910   0.83824   0.55190   0.00000  Uiso   1.00
Br547  Br    0.93250   0.75779   0.64770   0.00000  Uiso   1.00
Br548  Br    0.56750   0.90887   0.35230   0.00000  Uiso   1.00
Br549  Br    0.69576   0.97633   0.41196   0.00000  Uiso   1.00
Br550  Br    0.80424   0.69034   0.58804   0.00000  Uiso   1.00
Br551  Br    0.69288   0.76782   0.63411   0.00000  Uiso   1.00
Br552  Br    0.80712   0.89885   0.36589   0.00000  Uiso   1.00
C553   C     0.24807   0.06677   0.81817   0.00000  Uiso   1.00
C554   C     0.25193   0.26656   0.84849   0.00000  Uiso   1.00
C555   C     0.01411   0.12304   0.72523   0.00000  Uiso   1.00
C556   C     0.48589   0.21029   0.94143   0.00000  Uiso   1.00
C557   C     0.24062   0.01132   0.81167   0.00000  Uiso   1.00
C558   C     0.25938   0.32202   0.85500   0.00000  Uiso   1.00
C559   C     0.16444   0.16636   0.83360   0.00000  Uiso   1.00
C560   C     0.33556   0.16697   0.83307   0.00000  Uiso   1.00
C561   C     0.41183   0.18865   0.88675   0.00000  Uiso   1.00
C562   C     0.08817   0.14468   0.77991   0.00000  Uiso   1.00
C563   C     0.38394   0.16732   0.83265   0.00000  Uiso   1.00
C564   C     0.11606   0.16601   0.83402   0.00000  Uiso   1.00
C565   C     0.40220   0.14598   0.77846   0.00000  Uiso   1.00
C566   C     0.09780   0.18735   0.88821   0.00000  Uiso   1.00
C567   C     0.44859   0.14510   0.77789   0.00000  Uiso   1.00
C568   C     0.05141   0.18823   0.88878   0.00000  Uiso   1.00
C569   C     0.47667   0.16681   0.83291   0.00000  Uiso   1.00
C570   C     0.02333   0.16653   0.83375   0.00000  Uiso   1.00
C571   C     0.45809   0.18871   0.88725   0.00000  Uiso   1.00
C572   C     0.04191   0.14462   0.77941   0.00000  Uiso   1.00
C573   C     0.46770   0.12293   0.72406   0.00000  Uiso   1.00
C574   C     0.03230   0.21040   0.94261   0.00000  Uiso   1.00
Cu575  Cu    0.25501   0.17246   0.89479   0.00000  Uiso   1.00
Cu576  Cu    0.24500   0.16087   0.77187   0.00000  Uiso   1.00
H577   H     0.39753   0.20548   0.92855   0.00000  Uiso   1.00
H578   H     0.10247   0.12785   0.73812   0.00000  Uiso   1.00
H579   H     0.37990   0.12953   0.73727   0.00000  Uiso   1.00
H580   H     0.12011   0.20380   0.92940   0.00000  Uiso   1.00
H581   H     0.02851   0.10616   0.68358   0.00000  Uiso   1.00
H582   H     0.47149   0.22717   0.98309   0.00000  Uiso   1.00
N583   N     0.23745   0.15214   0.67951   0.00000  Uiso   1.00
N584   N     0.26256   0.18119   0.98716   0.00000  Uiso   1.00
O585   O     0.25326   0.09538   0.87326   0.00000  Uiso   1.00
O586   O     0.24675   0.23796   0.79341   0.00000  Uiso   1.00
O587   O     0.24480   0.08559   0.76945   0.00000  Uiso   1.00
O588   O     0.25520   0.24774   0.89721   0.00000  Uiso   1.00
O589   O     0.18936   0.17155   0.88524   0.00000  Uiso   1.00
O590   O     0.31065   0.16179   0.78143   0.00000  Uiso   1.00
O591   O     0.18090   0.16176   0.78143   0.00000  Uiso   1.00
O592   O     0.31910   0.17157   0.88523   0.00000  Uiso   1.00
Br593  Br    0.43250   0.09113   0.98103   0.00000  Uiso   1.00
Br594  Br    0.06750   0.24221   0.68564   0.00000  Uiso   1.00
Br595  Br    0.19576   0.30966   0.74529   0.00000  Uiso   1.00
Br596  Br    0.30424   0.02367   0.92138   0.00000  Uiso   1.00
Br597  Br    0.19288   0.10115   0.96745   0.00000  Uiso   1.00
Br598  Br    0.30712   0.23218   0.69922   0.00000  Uiso   1.00
C599   C     0.74807   0.06677   0.81817   0.00000  Uiso   1.00
C600   C     0.75193   0.26656   0.84849   0.00000  Uiso   1.00
C601   C     0.51411   0.12304   0.72523   0.00000  Uiso   1.00
C602   C     0.98589   0.21029   0.94143   0.00000  Uiso   1.00
C603   C     0.74062   0.01132   0.81167   0.00000  Uiso   1.00
C604   C     0.75938   0.32202   0.85500   0.00000  Uiso   1.00
C605   C     0.66444   0.16636   0.83360   0.00000  Uiso   1.00
C606   C     0.83556   0.16697   0.83307   0.00000  Uiso   1.00
C607   C     0.91183   0.18865   0.88675   0.00000  Uiso   1.00
C608   C     0.58817   0.14468   0.77991   0.00000  Uiso   1.00
C609   C     0.88394   0.16732   0.83265   0.00000  Uiso   1.00
C610   C     0.61606   0.16601   0.83402   0.00000  Uiso   1.00
C611   C     0.90220   0.14598   0.77846   0.00000  Uiso   1.00
C612   C     0.59780   0.18735   0.88821   0.00000  Uiso   1.00
C613   C     0.94859   0.14510   0.77789   0.00000  Uiso   1.00
C614   C     0.55141   0.18823   0.88878   0.00000  Uiso   1.00
C615   C     0.97667   0.16681   0.83291   0.00000  Uiso   1.00
C616   C     0.52333   0.16653   0.83375   0.00000  Uiso   1.00
C617   C     0.95809   0.18871   0.88725   0.00000  Uiso   1.00
C618   C     0.54191   0.14462   0.77941   0.00000  Uiso   1.00
C619   C     0.96770   0.12293   0.72406   0.00000  Uiso   1.00
C620   C     0.53230   0.21040   0.94261   0.00000  Uiso   1.00
Cu621  Cu    0.75501   0.17246   0.89479   0.00000  Uiso   1.00
Cu622  Cu    0.74500   0.16087   0.77187   0.00000  Uiso   1.00
H623   H     0.89753   0.20548   0.92855   0.00000  Uiso   1.00
H624   H     0.60247   0.12785   0.73812   0.00000  Uiso   1.00
H625   H     0.87990   0.12953   0.73727   0.00000  Uiso   1.00
H626   H     0.62011   0.20380   0.92940   0.00000  Uiso   1.00
H627   H     0.52851   0.10616   0.68358   0.00000  Uiso   1.00
H628   H     0.97149   0.22717   0.98309   0.00000  Uiso   1.00
N629   N     0.73745   0.15214   0.67951   0.00000  Uiso   1.00
N630   N     0.76256   0.18119   0.98716   0.00000  Uiso   1.00
O631   O     0.75326   0.09538   0.87326   0.00000  Uiso   1.00
O632   O     0.74675   0.23796   0.79341   0.00000  Uiso   1.00
O633   O     0.74480   0.08559   0.76945   0.00000  Uiso   1.00
O634   O     0.75520   0.24774   0.89721   0.00000  Uiso   1.00
O635   O     0.68936   0.17155   0.88524   0.00000  Uiso   1.00
O636   O     0.81065   0.16179   0.78143   0.00000  Uiso   1.00
O637   O     0.68090   0.16176   0.78143   0.00000  Uiso   1.00
O638   O     0.81910   0.17157   0.88523   0.00000  Uiso   1.00
Br639  Br    0.93250   0.09113   0.98103   0.00000  Uiso   1.00
Br640  Br    0.56750   0.24221   0.68564   0.00000  Uiso   1.00
Br641  Br    0.69576   0.30966   0.74529   0.00000  Uiso   1.00
Br642  Br    0.80424   0.02367   0.92138   0.00000  Uiso   1.00
Br643  Br    0.69288   0.10115   0.96745   0.00000  Uiso   1.00
Br644  Br    0.80712   0.23218   0.69922   0.00000  Uiso   1.00
C645   C     0.24807   0.40010   0.81817   0.00000  Uiso   1.00
C646   C     0.25193   0.59990   0.84849   0.00000  Uiso   1.00
C647   C     0.01411   0.45637   0.72523   0.00000  Uiso   1.00
C648   C     0.48589   0.54363   0.94143   0.00000  Uiso   1.00
C649   C     0.24062   0.34465   0.81167   0.00000  Uiso   1.00
C650   C     0.25938   0.65535   0.85500   0.00000  Uiso   1.00
C651   C     0.16444   0.49970   0.83360   0.00000  Uiso   1.00
C652   C     0.33556   0.50030   0.83307   0.00000  Uiso   1.00
C653   C     0.41183   0.52199   0.88675   0.00000  Uiso   1.00
C654   C     0.08817   0.47801   0.77991   0.00000  Uiso   1.00
C655   C     0.38394   0.50065   0.83265   0.00000  Uiso   1.00
C656   C     0.11606   0.49935   0.83402   0.00000  Uiso   1.00
C657   C     0.40220   0.47932   0.77846   0.00000  Uiso   1.00
C658   C     0.09780   0.52068   0.88821   0.00000  Uiso   1.00
C659   C     0.44859   0.47844   0.77789   0.00000  Uiso   1.00
C660   C     0.05141   0.52156   0.88878   0.00000  Uiso   1.00
C661   C     0.47667   0.50014   0.83291   0.00000  Uiso   1.00
C662   C     0.02333   0.49986   0.83375   0.00000  Uiso   1.00
C663   C     0.45809   0.52205   0.88725   0.00000  Uiso   1.00
C664   C     0.04191   0.47795   0.77941   0.00000  Uiso   1.00
C665   C     0.46770   0.45627   0.72406   0.00000  Uiso   1.00
C666   C     0.03230   0.54373   0.94261   0.00000  Uiso   1.00
Cu667  Cu    0.25501   0.50579   0.89479   0.00000  Uiso   1.00
Cu668  Cu    0.24500   0.49421   0.77187   0.00000  Uiso   1.00
H669   H     0.39753   0.53882   0.92855   0.00000  Uiso   1.00
H670   H     0.10247   0.46118   0.73812   0.00000  Uiso   1.00
H671   H     0.37990   0.46286   0.73727   0.00000  Uiso   1.00
H672   H     0.12011   0.53714   0.92940   0.00000  Uiso   1.00
H673   H     0.02851   0.43950   0.68358   0.00000  Uiso   1.00
H674   H     0.47149   0.56050   0.98309   0.00000  Uiso   1.00
N675   N     0.23745   0.48547   0.67951   0.00000  Uiso   1.00
N676   N     0.26256   0.51453   0.98716   0.00000  Uiso   1.00
O677   O     0.25326   0.42871   0.87326   0.00000  Uiso   1.00
O678   O     0.24675   0.57129   0.79341   0.00000  Uiso   1.00
O679   O     0.24480   0.41892   0.76945   0.00000  Uiso   1.00
O680   O     0.25520   0.58108   0.89721   0.00000  Uiso   1.00
O681   O     0.18936   0.50488   0.88524   0.00000  Uiso   1.00
O682   O     0.31065   0.49512   0.78143   0.00000  Uiso   1.00
O683   O     0.18090   0.49510   0.78143   0.00000  Uiso   1.00
O684   O     0.31910   0.50490   0.88523   0.00000  Uiso   1.00
Br685  Br    0.43250   0.42446   0.98103   0.00000  Uiso   1.00
Br686  Br    0.06750   0.57554   0.68564   0.00000  Uiso   1.00
Br687  Br    0.19576   0.64299   0.74529   0.00000  Uiso   1.00
Br688  Br    0.30424   0.35701   0.92138   0.00000  Uiso   1.00
Br689  Br    0.19288   0.43448   0.96745   0.00000  Uiso   1.00
Br690  Br    0.30712   0.56552   0.69922   0.00000  Uiso   1.00
C691   C     0.74807   0.40010   0.81817   0.00000  Uiso   1.00
C692   C     0.75193   0.59990   0.84849   0.00000  Uiso   1.00
C693   C     0.51411   0.45637   0.72523   0.00000  Uiso   1.00
C694   C     0.98589   0.54363   0.94143   0.00000  Uiso   1.00
C695   C     0.74062   0.34465   0.81167   0.00000  Uiso   1.00
C696   C     0.75938   0.65535   0.85500   0.00000  Uiso   1.00
C697   C     0.66444   0.49970   0.83360   0.00000  Uiso   1.00
C698   C     0.83556   0.50030   0.83307   0.00000  Uiso   1.00
C699   C     0.91183   0.52199   0.88675   0.00000  Uiso   1.00
C700   C     0.58817   0.47801   0.77991   0.00000  Uiso   1.00
C701   C     0.88394   0.50065   0.83265   0.00000  Uiso   1.00
C702   C     0.61606   0.49935   0.83402   0.00000  Uiso   1.00
C703   C     0.90220   0.47932   0.77846   0.00000  Uiso   1.00
C704   C     0.59780   0.52068   0.88821   0.00000  Uiso   1.00
C705   C     0.94859   0.47844   0.77789   0.00000  Uiso   1.00
C706   C     0.55141   0.52156   0.88878   0.00000  Uiso   1.00
C707   C     0.97667   0.50014   0.83291   0.00000  Uiso   1.00
C708   C     0.52333   0.49986   0.83375   0.00000  Uiso   1.00
C709   C     0.95809   0.52205   0.88725   0.00000  Uiso   1.00
C710   C     0.54191   0.47795   0.77941   0.00000  Uiso   1.00
C711   C     0.96770   0.45627   0.72406   0.00000  Uiso   1.00
C712   C     0.53230   0.54373   0.94261   0.00000  Uiso   1.00
Cu713  Cu    0.75501   0.50579   0.89479   0.00000  Uiso   1.00
Cu714  Cu    0.74500   0.49421   0.77187   0.00000  Uiso   1.00
H715   H     0.89753   0.53882   0.92855   0.00000  Uiso   1.00
H716   H     0.60247   0.46118   0.73812   0.00000  Uiso   1.00
H717   H     0.87990   0.46286   0.73727   0.00000  Uiso   1.00
H718   H     0.62011   0.53714   0.92940   0.00000  Uiso   1.00
H719   H     0.52851   0.43950   0.68358   0.00000  Uiso   1.00
H720   H     0.97149   0.56050   0.98309   0.00000  Uiso   1.00
N721   N     0.73745   0.48547   0.67951   0.00000  Uiso   1.00
N722   N     0.76256   0.51453   0.98716   0.00000  Uiso   1.00
O723   O     0.75326   0.42871   0.87326   0.00000  Uiso   1.00
O724   O     0.74675   0.57129   0.79341   0.00000  Uiso   1.00
O725   O     0.74480   0.41892   0.76945   0.00000  Uiso   1.00
O726   O     0.75520   0.58108   0.89721   0.00000  Uiso   1.00
O727   O     0.68936   0.50488   0.88524   0.00000  Uiso   1.00
O728   O     0.81065   0.49512   0.78143   0.00000  Uiso   1.00
O729   O     0.68090   0.49510   0.78143   0.00000  Uiso   1.00
O730   O     0.81910   0.50490   0.88523   0.00000  Uiso   1.00
Br731  Br    0.93250   0.42446   0.98103   0.00000  Uiso   1.00
Br732  Br    0.56750   0.57554   0.68564   0.00000  Uiso   1.00
Br733  Br    0.69576   0.64299   0.74529   0.00000  Uiso   1.00
Br734  Br    0.80424   0.35701   0.92138   0.00000  Uiso   1.00
Br735  Br    0.69288   0.43448   0.96745   0.00000  Uiso   1.00
Br736  Br    0.80712   0.56552   0.69922   0.00000  Uiso   1.00
C737   C     0.24807   0.73344   0.81817   0.00000  Uiso   1.00
C738   C     0.25193   0.93323   0.84849   0.00000  Uiso   1.00
C739   C     0.01411   0.78971   0.72523   0.00000  Uiso   1.00
C740   C     0.48589   0.87696   0.94143   0.00000  Uiso   1.00
C741   C     0.24062   0.67798   0.81167   0.00000  Uiso   1.00
C742   C     0.25938   0.98868   0.85500   0.00000  Uiso   1.00
C743   C     0.16444   0.83303   0.83360   0.00000  Uiso   1.00
C744   C     0.33556   0.83364   0.83307   0.00000  Uiso   1.00
C745   C     0.41183   0.85532   0.88675   0.00000  Uiso   1.00
C746   C     0.08817   0.81135   0.77991   0.00000  Uiso   1.00
C747   C     0.38394   0.83399   0.83265   0.00000  Uiso   1.00
C748   C     0.11606   0.83268   0.83402   0.00000  Uiso   1.00
C749   C     0.40220   0.81265   0.77846   0.00000  Uiso   1.00
C750   C     0.09780   0.85402   0.88821   0.00000  Uiso   1.00
C751   C     0.44859   0.81177   0.77789   0.00000  Uiso   1.00
C752   C     0.05141   0.85490   0.88878   0.00000  Uiso   1.00
C753   C     0.47667   0.83347   0.83291   0.00000  Uiso   1.00
C754   C     0.02333   0.83319   0.83375   0.00000  Uiso   1.00
C755   C     0.45809   0.85538   0.88725   0.00000  Uiso   1.00
C756   C     0.04191   0.81129   0.77941   0.00000  Uiso   1.00
C757   C     0.46770   0.78960   0.72406   0.00000  Uiso   1.00
C758   C     0.03230   0.87707   0.94261   0.00000  Uiso   1.00
Cu759  Cu    0.25501   0.83913   0.89479   0.00000  Uiso   1.00
Cu760  Cu    0.24500   0.82754   0.77187   0.00000  Uiso   1.00
H761   H     0.39753   0.87215   0.92855   0.00000  Uiso   1.00
H762   H     0.10247   0.79452   0.73812   0.00000  Uiso   1.00
H763   H     0.37990   0.79620   0.73727   0.00000  Uiso   1.00
H764   H     0.12011   0.87047   0.92940   0.00000  Uiso   1.00
H765   H     0.02851   0.77283   0.68358   0.00000  Uiso   1.00
H766   H     0.47149   0.89384   0.98309   0.00000  Uiso   1.00
N767   N     0.23745   0.81881   0.67951   0.00000  Uiso   1.00
N768   N     0.26256   0.84786   0.98716   0.00000  Uiso   1.00
O769   O     0.25326   0.76204   0.87326   0.00000  Uiso   1.00
O770   O     0.24675   0.90462   0.79341   0.00000  Uiso   1.00
O771   O     0.24480   0.75226   0.76945   0.00000  Uiso   1.00
O772   O     0.25520   0.91441   0.89721   0.00000  Uiso   1.00
O773   O     0.18936   0.83821   0.88524   0.00000  Uiso   1.00
O774   O     0.31065   0.82845   0.78143   0.00000  Uiso   1.00
O775   O     0.18090   0.82843   0.78143   0.00000  Uiso   1.00
O776   O     0.31910   0.83824   0.88523   0.00000  Uiso   1.00
Br777  Br    0.43250   0.75779   0.98103   0.00000  Uiso   1.00
Br778  Br    0.06750   0.90887   0.68564   0.00000  Uiso   1.00
Br779  Br    0.19576   0.97633   0.74529   0.00000  Uiso   1.00
Br780  Br    0.30424   0.69034   0.92138   0.00000  Uiso   1.00
Br781  Br    0.19288   0.76782   0.96745   0.00000  Uiso   1.00
Br782  Br    0.30712   0.89885   0.69922   0.00000  Uiso   1.00
C783   C     0.74807   0.73344   0.81817   0.00000  Uiso   1.00
C784   C     0.75193   0.93323   0.84849   0.00000  Uiso   1.00
C785   C     0.51411   0.78971   0.72523   0.00000  Uiso   1.00
C786   C     0.98589   0.87696   0.94143   0.00000  Uiso   1.00
C787   C     0.74062   0.67798   0.81167   0.00000  Uiso   1.00
C788   C     0.75938   0.98868   0.85500   0.00000  Uiso   1.00
C789   C     0.66444   0.83303   0.83360   0.00000  Uiso   1.00
C790   C     0.83556   0.83364   0.83307   0.00000  Uiso   1.00
C791   C     0.91183   0.85532   0.88675   0.00000  Uiso   1.00
C792   C     0.58817   0.81135   0.77991   0.00000  Uiso   1.00
C793   C     0.88394   0.83399   0.83265   0.00000  Uiso   1.00
C794   C     0.61606   0.83268   0.83402   0.00000  Uiso   1.00
C795   C     0.90220   0.81265   0.77846   0.00000  Uiso   1.00
C796   C     0.59780   0.85402   0.88821   0.00000  Uiso   1.00
C797   C     0.94859   0.81177   0.77789   0.00000  Uiso   1.00
C798   C     0.55141   0.85490   0.88878   0.00000  Uiso   1.00
C799   C     0.97667   0.83347   0.83291   0.00000  Uiso   1.00
C800   C     0.52333   0.83319   0.83375   0.00000  Uiso   1.00
C801   C     0.95809   0.85538   0.88725   0.00000  Uiso   1.00
C802   C     0.54191   0.81129   0.77941   0.00000  Uiso   1.00
C803   C     0.96770   0.78960   0.72406   0.00000  Uiso   1.00
C804   C     0.53230   0.87707   0.94261   0.00000  Uiso   1.00
Cu805  Cu    0.75501   0.83913   0.89479   0.00000  Uiso   1.00
Cu806  Cu    0.74500   0.82754   0.77187   0.00000  Uiso   1.00
H807   H     0.89753   0.87215   0.92855   0.00000  Uiso   1.00
H808   H     0.60247   0.79452   0.73812   0.00000  Uiso   1.00
H809   H     0.87990   0.79620   0.73727   0.00000  Uiso   1.00
H810   H     0.62011   0.87047   0.92940   0.00000  Uiso   1.00
H811   H     0.52851   0.77283   0.68358   0.00000  Uiso   1.00
H812   H     0.97149   0.89384   0.98309   0.00000  Uiso   1.00
N813   N     0.73745   0.81881   0.67951   0.00000  Uiso   1.00
N814   N     0.76256   0.84786   0.98716   0.00000  Uiso   1.00
O815   O     0.75326   0.76204   0.87326   0.00000  Uiso   1.00
O816   O     0.74675   0.90462   0.79341   0.00000  Uiso   1.00
O817   O     0.74480   0.75226   0.76945   0.00000  Uiso   1.00
O818   O     0.75520   0.91441   0.89721   0.00000  Uiso   1.00
O819   O     0.68936   0.83821   0.88524   0.00000  Uiso   1.00
O820   O     0.81065   0.82845   0.78143   0.00000  Uiso   1.00
O821   O     0.68090   0.82843   0.78143   0.00000  Uiso   1.00
O822   O     0.81910   0.83824   0.88523   0.00000  Uiso   1.00
Br823  Br    0.93250   0.75779   0.98103   0.00000  Uiso   1.00
Br824  Br    0.56750   0.90887   0.68564   0.00000  Uiso   1.00
Br825  Br    0.69576   0.97633   0.74529   0.00000  Uiso   1.00
Br826  Br    0.80424   0.69034   0.92138   0.00000  Uiso   1.00
Br827  Br    0.69288   0.76782   0.96745   0.00000  Uiso   1.00
Br828  Br    0.80712   0.89885   0.69922   0.00000  Uiso   1.00
loop_
_geom_bond_atom_site_label_1
_geom_bond_atom_site_label_2
_geom_bond_distance
_geom_bond_site_symmetry_2
_ccdc_geom_bond_type
C1     O33     1.289   .     A
C1     C5      1.425   .     S
C1     O35     1.296   .     A
C2     O34     1.289   .     A
C2     O36     1.296   .     A
C2     C6      1.425   .     S
C3     C20     1.399   .     A
C3     H29     1.084   .     S
C3     C67     1.393   1_455 S
C4     C19     1.399   .     A
C4     H30     1.084   .     S
C4     C68     1.393   .     S
C5     C190    1.349   1_545 S
C5     Br227   1.941   1_545 S
C6     C97     1.349   .     S
C6     Br136   1.941   .     S
C7     O37     1.301   .     A
C7     C12     1.455   .     S
C7     O39     1.299   .     A
C8     O38     1.301   .     A
C8     C11     1.455   .     S
C8     O40     1.299   .     A
C9     C11     1.398   .     A
C9     H25     1.085   .     S
C9     C19     1.390   .     A
C10    H26     1.085   .     S
C10    C12     1.398   .     A
C10    C20     1.390   .     A
C11    C13     1.399   .     A
C12    C14     1.399   .     A
C13    C15     1.398   .     A
C13    H27     1.082   .     S
C14    C16     1.398   .     A
C14    H28     1.082   .     S
C15    C17     1.418   .     A
C15    C21     1.411   .     A
C16    C18     1.418   .     A
C16    C22     1.411   .     A
C17    C19     1.411   .     A
C17    C64     1.402   .     S
C18    C20     1.411   .     A
C18    C63     1.402   1_455 S
C21    C49     1.393   .     S
C21    Br593   1.923   1_554 S
C22    C50     1.393   1_455 S
C22    Br318   1.923   .     S
Cu23   Cu24    2.704   .     S
Cu23   N32     2.031   .     S
Cu23   O40     1.959   .     S
Cu23   O36     1.957   .     S
Cu23   O37     1.964   .     S
Cu23   O33     1.962   .     S
Cu24   O38     1.964   .     S
Cu24   N31     2.031   .     S
Cu24   O35     1.957   .     S
Cu24   O39     1.959   .     S
Cu24   O34     1.962   .     S
N31    N584    1.295   1_554 S
N31    Br597   1.881   1_554 S
N32    N307    1.295   .     S
N32    Br322   1.881   .     S
Br41   C297    1.923   .     S
Br42   C574    1.923   1_554 S
Br43   C97     1.941   .     S
Br44   C190    1.941   1_545 S
Br45   N307    1.881   .     S
Br46   N584    1.881   1_554 S
C47    O79     1.289   .     A
C47    C51     1.425   .     S
C47    O81     1.296   .     A
C48    O80     1.289   .     A
C48    O82     1.296   .     A
C48    C52     1.425   .     S
C49    C66     1.399   .     A
C49    H75     1.084   .     S
C50    C65     1.399   .     A
C50    H76     1.084   .     S
C50    C22     1.393   1_655 S
C51    C236    1.349   1_545 S
C51    Br273   1.941   1_545 S
C52    C143    1.349   .     S
C52    Br182   1.941   .     S
C53    O83     1.301   .     A
C53    C58     1.455   .     S
C53    O85     1.299   .     A
C54    O84     1.301   .     A
C54    C57     1.455   .     S
C54    O86     1.299   .     A
C55    C57     1.398   .     A
C55    H71     1.085   .     S
C55    C65     1.390   .     A
C56    H72     1.085   .     S
C56    C58     1.398   .     A
C56    C66     1.390   .     A
C57    C59     1.399   .     A
C58    C60     1.399   .     A
C59    C61     1.398   .     A
C59    H73     1.082   .     S
C60    C62     1.398   .     A
C60    H74     1.082   .     S
C61    C63     1.418   .     A
C61    C67     1.411   .     A
C62    C64     1.418   .     A
C62    C68     1.411   .     A
C63    C65     1.411   .     A
C63    C18     1.402   1_655 S
C64    C66     1.411   .     A
C67    C3      1.393   1_655 S
C67    Br639   1.923   1_554 S
C68    Br364   1.923   .     S
Cu69   Cu70    2.704   .     S
Cu69   N78     2.031   .     S
Cu69   O86     1.959   .     S
Cu69   O82     1.957   .     S
Cu69   O83     1.964   .     S
Cu69   O79     1.962   .     S
Cu70   O84     1.964   .     S
Cu70   N77     2.031   .     S
Cu70   O81     1.957   .     S
Cu70   O85     1.959   .     S
Cu70   O80     1.962   .     S
N77    N630    1.295   1_554 S
N77    Br643   1.881   1_554 S
N78    N353    1.295   .     S
N78    Br368   1.881   .     S
Br87   C343    1.923   .     S
Br88   C620    1.923   1_554 S
Br89   C143    1.941   .     S
Br90   C236    1.941   1_545 S
Br91   N353    1.881   .     S
Br92   N630    1.881   1_554 S
C93    O125    1.289   .     A
C93    C97     1.425   .     S
C93    O127    1.296   .     A
C94    O126    1.289   .     A
C94    O128    1.296   .     A
C94    C98     1.425   .     S
C95    C112    1.399   .     A
C95    H121    1.084   .     S
C95    C159    1.393   1_455 S
C96    C111    1.399   .     A
C96    H122    1.084   .     S
C96    C160    1.393   .     S
C98    C189    1.349   .     S
C98    Br228   1.941   .     S
C99    O129    1.301   .     A
C99    C104    1.455   .     S
C99    O131    1.299   .     A
C100   O130    1.301   .     A
C100   C103    1.455   .     S
C100   O132    1.299   .     A
C101   C103    1.398   .     A
C101   H117    1.085   .     S
C101   C111    1.390   .     A
C102   H118    1.085   .     S
C102   C104    1.398   .     A
C102   C112    1.390   .     A
C103   C105    1.399   .     A
C104   C106    1.399   .     A
C105   C107    1.398   .     A
C105   H119    1.082   .     S
C106   C108    1.398   .     A
C106   H120    1.082   .     S
C107   C109    1.418   .     A
C107   C113    1.411   .     A
C108   C110    1.418   .     A
C108   C114    1.411   .     A
C109   C111    1.411   .     A
C109   C156    1.402   .     S
C110   C112    1.411   .     A
C110   C155    1.402   1_455 S
C113   C141    1.393   .     S
C113   Br685   1.923   1_554 S
C114   C142    1.393   1_455 S
C114   Br410   1.923   .     S
Cu115  Cu116   2.704   .     S
Cu115  N124    2.031   .     S
Cu115  O132    1.959   .     S
Cu115  O128    1.957   .     S
Cu115  O129    1.964   .     S
Cu115  O125    1.962   .     S
Cu116  O130    1.964   .     S
Cu116  N123    2.031   .     S
Cu116  O127    1.957   .     S
Cu116  O131    1.959   .     S
Cu116  O126    1.962   .     S
N123   N676    1.295   1_554 S
N123   Br689   1.881   1_554 S
N124   N399    1.295   .     S
N124   Br414   1.881   .     S
Br133  C389    1.923   .     S
Br134  C666    1.923   1_554 S
Br135  C189    1.941   .     S
Br137  N399    1.881   .     S
Br138  N676    1.881   1_554 S
C139   O171    1.289   .     A
C139   C143    1.425   .     S
C139   O173    1.296   .     A
C140   O172    1.289   .     A
C140   O174    1.296   .     A
C140   C144    1.425   .     S
C141   C158    1.399   .     A
C141   H167    1.084   .     S
C142   C157    1.399   .     A
C142   H168    1.084   .     S
C142   C114    1.393   1_655 S
C144   C235    1.349   .     S
C144   Br274   1.941   .     S
C145   O175    1.301   .     A
C145   C150    1.455   .     S
C145   O177    1.299   .     A
C146   O176    1.301   .     A
C146   C149    1.455   .     S
C146   O178    1.299   .     A
C147   C149    1.398   .     A
C147   H163    1.085   .     S
C147   C157    1.390   .     A
C148   H164    1.085   .     S
C148   C150    1.398   .     A
C148   C158    1.390   .     A
C149   C151    1.399   .     A
C150   C152    1.399   .     A
C151   C153    1.398   .     A
C151   H165    1.082   .     S
C152   C154    1.398   .     A
C152   H166    1.082   .     S
C153   C155    1.418   .     A
C153   C159    1.411   .     A
C154   C156    1.418   .     A
C154   C160    1.411   .     A
C155   C157    1.411   .     A
C155   C110    1.402   1_655 S
C156   C158    1.411   .     A
C159   C95     1.393   1_655 S
C159   Br731   1.923   1_554 S
C160   Br456   1.923   .     S
Cu161  Cu162   2.704   .     S
Cu161  N170    2.031   .     S
Cu161  O178    1.959   .     S
Cu161  O174    1.957   .     S
Cu161  O175    1.964   .     S
Cu161  O171    1.962   .     S
Cu162  O176    1.964   .     S
Cu162  N169    2.031   .     S
Cu162  O173    1.957   .     S
Cu162  O177    1.959   .     S
Cu162  O172    1.962   .     S
N169   N722    1.295   1_554 S
N169   Br735   1.881   1_554 S
N170   N445    1.295   .     S
N170   Br460   1.881   .     S
Br179  C435    1.923   .     S
Br180  C712    1.923   1_554 S
Br181  C235    1.941   .     S
Br183  N445    1.881   .     S
Br184  N722    1.881   1_554 S
C185   O217    1.289   .     A
C185   C189    1.425   .     S
C185   O219    1.296   .     A
C186   O218    1.289   .     A
C186   O220    1.296   .     A
C186   C190    1.425   .     S
C187   C204    1.399   .     A
C187   H213    1.084   .     S
C187   C251    1.393   1_455 S
C188   C203    1.399   .     A
C188   H214    1.084   .     S
C188   C252    1.393   .     S
C190   C5      1.349   1_565 S
C190   Br44    1.941   1_565 S
C191   O221    1.301   .     A
C191   C196    1.455   .     S
C191   O223    1.299   .     A
C192   O222    1.301   .     A
C192   C195    1.455   .     S
C192   O224    1.299   .     A
C193   C195    1.398   .     A
C193   H209    1.085   .     S
C193   C203    1.390   .     A
C194   H210    1.085   .     S
C194   C196    1.398   .     A
C194   C204    1.390   .     A
C195   C197    1.399   .     A
C196   C198    1.399   .     A
C197   C199    1.398   .     A
C197   H211    1.082   .     S
C198   C200    1.398   .     A
C198   H212    1.082   .     S
C199   C201    1.418   .     A
C199   C205    1.411   .     A
C200   C202    1.418   .     A
C200   C206    1.411   .     A
C201   C203    1.411   .     A
C201   C248    1.402   .     S
C202   C204    1.411   .     A
C202   C247    1.402   1_455 S
C205   C233    1.393   .     S
C205   Br777   1.923   1_554 S
C206   C234    1.393   1_455 S
C206   Br502   1.923   .     S
Cu207  Cu208   2.704   .     S
Cu207  N216    2.031   .     S
Cu207  O224    1.959   .     S
Cu207  O220    1.957   .     S
Cu207  O221    1.964   .     S
Cu207  O217    1.962   .     S
Cu208  O222    1.964   .     S
Cu208  N215    2.031   .     S
Cu208  O219    1.957   .     S
Cu208  O223    1.959   .     S
Cu208  O218    1.962   .     S
N215   N768    1.295   1_554 S
N215   Br781   1.881   1_554 S
N216   N491    1.295   .     S
N216   Br506   1.881   .     S
Br225  C481    1.923   .     S
Br226  C758    1.923   1_554 S
Br227  C5      1.941   1_565 S
Br229  N491    1.881   .     S
Br230  N768    1.881   1_554 S
C231   O263    1.289   .     A
C231   C235    1.425   .     S
C231   O265    1.296   .     A
C232   O264    1.289   .     A
C232   O266    1.296   .     A
C232   C236    1.425   .     S
C233   C250    1.399   .     A
C233   H259    1.084   .     S
C234   C249    1.399   .     A
C234   H260    1.084   .     S
C234   C206    1.393   1_655 S
C236   C51     1.349   1_565 S
C236   Br90    1.941   1_565 S
C237   O267    1.301   .     A
C237   C242    1.455   .     S
C237   O269    1.299   .     A
C238   O268    1.301   .     A
C238   C241    1.455   .     S
C238   O270    1.299   .     A
C239   C241    1.398   .     A
C239   H255    1.085   .     S
C239   C249    1.390   .     A
C240   H256    1.085   .     S
C240   C242    1.398   .     A
C240   C250    1.390   .     A
C241   C243    1.399   .     A
C242   C244    1.399   .     A
C243   C245    1.398   .     A
C243   H257    1.082   .     S
C244   C246    1.398   .     A
C244   H258    1.082   .     S
C245   C247    1.418   .     A
C245   C251    1.411   .     A
C246   C248    1.418   .     A
C246   C252    1.411   .     A
C247   C249    1.411   .     A
C247   C202    1.402   1_655 S
C248   C250    1.411   .     A
C251   C187    1.393   1_655 S
C251   Br823   1.923   1_554 S
C252   Br548   1.923   .     S
Cu253  Cu254   2.704   .     S
Cu253  N262    2.031   .     S
Cu253  O270    1.959   .     S
Cu253  O266    1.957   .     S
Cu253  O267    1.964   .     S
Cu253  O263    1.962   .     S
Cu254  O268    1.964   .     S
Cu254  N261    2.031   .     S
Cu254  O265    1.957   .     S
Cu254  O269    1.959   .     S
Cu254  O264    1.962   .     S
N261   N814    1.295   1_554 S
N261   Br827   1.881   1_554 S
N262   N537    1.295   .     S
N262   Br552   1.881   .     S
Br271  C527    1.923   .     S
Br272  C804    1.923   1_554 S
Br273  C51     1.941   1_565 S
Br275  N537    1.881   .     S
Br276  N814    1.881   1_554 S
C277   O309    1.289   .     A
C277   C281    1.425   .     S
C277   O311    1.296   .     A
C278   O310    1.289   .     A
C278   O312    1.296   .     A
C278   C282    1.425   .     S
C279   C296    1.399   .     A
C279   H305    1.084   .     S
C279   C343    1.393   1_455 S
C280   C295    1.399   .     A
C280   H306    1.084   .     S
C280   C344    1.393   .     S
C281   C466    1.349   1_545 S
C281   Br503   1.941   1_545 S
C282   C373    1.349   .     S
C282   Br412   1.941   .     S
C283   O313    1.301   .     A
C283   C288    1.455   .     S
C283   O315    1.299   .     A
C284   O314    1.301   .     A
C284   C287    1.455   .     S
C284   O316    1.299   .     A
C285   C287    1.398   .     A
C285   H301    1.085   .     S
C285   C295    1.390   .     A
C286   H302    1.085   .     S
C286   C288    1.398   .     A
C286   C296    1.390   .     A
C287   C289    1.399   .     A
C288   C290    1.399   .     A
C289   C291    1.398   .     A
C289   H303    1.082   .     S
C290   C292    1.398   .     A
C290   H304    1.082   .     S
C291   C293    1.418   .     A
C291   C297    1.411   .     A
C292   C294    1.418   .     A
C292   C298    1.411   .     A
C293   C295    1.411   .     A
C293   C340    1.402   .     S
C294   C296    1.411   .     A
C294   C339    1.402   1_455 S
C297   C325    1.393   .     S
C298   C326    1.393   1_455 S
C298   Br594   1.923   .     S
Cu299  Cu300   2.704   .     S
Cu299  N308    2.031   .     S
Cu299  O316    1.959   .     S
Cu299  O312    1.957   .     S
Cu299  O313    1.964   .     S
Cu299  O309    1.962   .     S
Cu300  O314    1.964   .     S
Cu300  N307    2.031   .     S
Cu300  O311    1.957   .     S
Cu300  O315    1.959   .     S
Cu300  O310    1.962   .     S
N308   N583    1.295   .     S
N308   Br598   1.881   .     S
Br317  C573    1.923   .     S
Br319  C373    1.941   .     S
Br320  C466    1.941   1_545 S
Br321  N583    1.881   .     S
C323   O355    1.289   .     A
C323   C327    1.425   .     S
C323   O357    1.296   .     A
C324   O356    1.289   .     A
C324   O358    1.296   .     A
C324   C328    1.425   .     S
C325   C342    1.399   .     A
C325   H351    1.084   .     S
C326   C341    1.399   .     A
C326   H352    1.084   .     S
C326   C298    1.393   1_655 S
C327   C512    1.349   1_545 S
C327   Br549   1.941   1_545 S
C328   C419    1.349   .     S
C328   Br458   1.941   .     S
C329   O359    1.301   .     A
C329   C334    1.455   .     S
C329   O361    1.299   .     A
C330   O360    1.301   .     A
C330   C333    1.455   .     S
C330   O362    1.299   .     A
C331   C333    1.398   .     A
C331   H347    1.085   .     S
C331   C341    1.390   .     A
C332   H348    1.085   .     S
C332   C334    1.398   .     A
C332   C342    1.390   .     A
C333   C335    1.399   .     A
C334   C336    1.399   .     A
C335   C337    1.398   .     A
C335   H349    1.082   .     S
C336   C338    1.398   .     A
C336   H350    1.082   .     S
C337   C339    1.418   .     A
C337   C343    1.411   .     A
C338   C340    1.418   .     A
C338   C344    1.411   .     A
C339   C341    1.411   .     A
C339   C294    1.402   1_655 S
C340   C342    1.411   .     A
C343   C279    1.393   1_655 S
C344   Br640   1.923   .     S
Cu345  Cu346   2.704   .     S
Cu345  N354    2.031   .     S
Cu345  O362    1.959   .     S
Cu345  O358    1.957   .     S
Cu345  O359    1.964   .     S
Cu345  O355    1.962   .     S
Cu346  O360    1.964   .     S
Cu346  N353    2.031   .     S
Cu346  O357    1.957   .     S
Cu346  O361    1.959   .     S
Cu346  O356    1.962   .     S
N354   N629    1.295   .     S
N354   Br644   1.881   .     S
Br363  C619    1.923   .     S
Br365  C419    1.941   .     S
Br366  C512    1.941   1_545 S
Br367  N629    1.881   .     S
C369   O401    1.289   .     A
C369   C373    1.425   .     S
C369   O403    1.296   .     A
C370   O402    1.289   .     A
C370   O404    1.296   .     A
C370   C374    1.425   .     S
C371   C388    1.399   .     A
C371   H397    1.084   .     S
C371   C435    1.393   1_455 S
C372   C387    1.399   .     A
C372   H398    1.084   .     S
C372   C436    1.393   .     S
C374   C465    1.349   .     S
C374   Br504   1.941   .     S
C375   O405    1.301   .     A
C375   C380    1.455   .     S
C375   O407    1.299   .     A
C376   O406    1.301   .     A
C376   C379    1.455   .     S
C376   O408    1.299   .     A
C377   C379    1.398   .     A
C377   H393    1.085   .     S
C377   C387    1.390   .     A
C378   H394    1.085   .     S
C378   C380    1.398   .     A
C378   C388    1.390   .     A
C379   C381    1.399   .     A
C380   C382    1.399   .     A
C381   C383    1.398   .     A
C381   H395    1.082   .     S
C382   C384    1.398   .     A
C382   H396    1.082   .     S
C383   C385    1.418   .     A
C383   C389    1.411   .     A
C384   C386    1.418   .     A
C384   C390    1.411   .     A
C385   C387    1.411   .     A
C385   C432    1.402   .     S
C386   C388    1.411   .     A
C386   C431    1.402   1_455 S
C389   C417    1.393   .     S
C390   C418    1.393   1_455 S
C390   Br686   1.923   .     S
Cu391  Cu392   2.704   .     S
Cu391  N400    2.031   .     S
Cu391  O408    1.959   .     S
Cu391  O404    1.957   .     S
Cu391  O405    1.964   .     S
Cu391  O401    1.962   .     S
Cu392  O406    1.964   .     S
Cu392  N399    2.031   .     S
Cu392  O403    1.957   .     S
Cu392  O407    1.959   .     S
Cu392  O402    1.962   .     S
N400   N675    1.295   .     S
N400   Br690   1.881   .     S
Br409  C665    1.923   .     S
Br411  C465    1.941   .     S
Br413  N675    1.881   .     S
C415   O447    1.289   .     A
C415   C419    1.425   .     S
C415   O449    1.296   .     A
C416   O448    1.289   .     A
C416   O450    1.296   .     A
C416   C420    1.425   .     S
C417   C434    1.399   .     A
C417   H443    1.084   .     S
C418   C433    1.399   .     A
C418   H444    1.084   .     S
C418   C390    1.393   1_655 S
C420   C511    1.349   .     S
C420   Br550   1.941   .     S
C421   O451    1.301   .     A
C421   C426    1.455   .     S
C421   O453    1.299   .     A
C422   O452    1.301   .     A
C422   C425    1.455   .     S
C422   O454    1.299   .     A
C423   C425    1.398   .     A
C423   H439    1.085   .     S
C423   C433    1.390   .     A
C424   H440    1.085   .     S
C424   C426    1.398   .     A
C424   C434    1.390   .     A
C425   C427    1.399   .     A
C426   C428    1.399   .     A
C427   C429    1.398   .     A
C427   H441    1.082   .     S
C428   C430    1.398   .     A
C428   H442    1.082   .     S
C429   C431    1.418   .     A
C429   C435    1.411   .     A
C430   C432    1.418   .     A
C430   C436    1.411   .     A
C431   C433    1.411   .     A
C431   C386    1.402   1_655 S
C432   C434    1.411   .     A
C435   C371    1.393   1_655 S
C436   Br732   1.923   .     S
Cu437  Cu438   2.704   .     S
Cu437  N446    2.031   .     S
Cu437  O454    1.959   .     S
Cu437  O450    1.957   .     S
Cu437  O451    1.964   .     S
Cu437  O447    1.962   .     S
Cu438  O452    1.964   .     S
Cu438  N445    2.031   .     S
Cu438  O449    1.957   .     S
Cu438  O453    1.959   .     S
Cu438  O448    1.962   .     S
N446   N721    1.295   .     S
N446   Br736   1.881   .     S
Br455  C711    1.923   .     S
Br457  C511    1.941   .     S
Br459  N721    1.881   .     S
C461   O493    1.289   .     A
C461   C465    1.425   .     S
C461   O495    1.296   .     A
C462   O494    1.289   .     A
C462   O496    1.296   .     A
C462   C466    1.425   .     S
C463   C480    1.399   .     A
C463   H489    1.084   .     S
C463   C527    1.393   1_455 S
C464   C479    1.399   .     A
C464   H490    1.084   .     S
C464   C528    1.393   .     S
C466   C281    1.349   1_565 S
C466   Br320   1.941   1_565 S
C467   O497    1.301   .     A
C467   C472    1.455   .     S
C467   O499    1.299   .     A
C468   O498    1.301   .     A
C468   C471    1.455   .     S
C468   O500    1.299   .     A
C469   C471    1.398   .     A
C469   H485    1.085   .     S
C469   C479    1.390   .     A
C470   H486    1.085   .     S
C470   C472    1.398   .     A
C470   C480    1.390   .     A
C471   C473    1.399   .     A
C472   C474    1.399   .     A
C473   C475    1.398   .     A
C473   H487    1.082   .     S
C474   C476    1.398   .     A
C474   H488    1.082   .     S
C475   C477    1.418   .     A
C475   C481    1.411   .     A
C476   C478    1.418   .     A
C476   C482    1.411   .     A
C477   C479    1.411   .     A
C477   C524    1.402   .     S
C478   C480    1.411   .     A
C478   C523    1.402   1_455 S
C481   C509    1.393   .     S
C482   C510    1.393   1_455 S
C482   Br778   1.923   .     S
Cu483  Cu484   2.704   .     S
Cu483  N492    2.031   .     S
Cu483  O500    1.959   .     S
Cu483  O496    1.957   .     S
Cu483  O497    1.964   .     S
Cu483  O493    1.962   .     S
Cu484  O498    1.964   .     S
Cu484  N491    2.031   .     S
Cu484  O495    1.957   .     S
Cu484  O499    1.959   .     S
Cu484  O494    1.962   .     S
N492   N767    1.295   .     S
N492   Br782   1.881   .     S
Br501  C757    1.923   .     S
Br503  C281    1.941   1_565 S
Br505  N767    1.881   .     S
C507   O539    1.289   .     A
C507   C511    1.425   .     S
C507   O541    1.296   .     A
C508   O540    1.289   .     A
C508   O542    1.296   .     A
C508   C512    1.425   .     S
C509   C526    1.399   .     A
C509   H535    1.084   .     S
C510   C525    1.399   .     A
C510   H536    1.084   .     S
C510   C482    1.393   1_655 S
C512   C327    1.349   1_565 S
C512   Br366   1.941   1_565 S
C513   O543    1.301   .     A
C513   C518    1.455   .     S
C513   O545    1.299   .     A
C514   O544    1.301   .     A
C514   C517    1.455   .     S
C514   O546    1.299   .     A
C515   C517    1.398   .     A
C515   H531    1.085   .     S
C515   C525    1.390   .     A
C516   H532    1.085   .     S
C516   C518    1.398   .     A
C516   C526    1.390   .     A
C517   C519    1.399   .     A
C518   C520    1.399   .     A
C519   C521    1.398   .     A
C519   H533    1.082   .     S
C520   C522    1.398   .     A
C520   H534    1.082   .     S
C521   C523    1.418   .     A
C521   C527    1.411   .     A
C522   C524    1.418   .     A
C522   C528    1.411   .     A
C523   C525    1.411   .     A
C523   C478    1.402   1_655 S
C524   C526    1.411   .     A
C527   C463    1.393   1_655 S
C528   Br824   1.923   .     S
Cu529  Cu530   2.704   .     S
Cu529  N538    2.031   .     S
Cu529  O546    1.959   .     S
Cu529  O542    1.957   .     S
Cu529  O543    1.964   .     S
Cu529  O539    1.962   .     S
Cu530  O544    1.964   .     S
Cu530  N537    2.031   .     S
Cu530  O541    1.957   .     S
Cu530  O545    1.959   .     S
Cu530  O540    1.962   .     S
N538   N813    1.295   .     S
N538   Br828   1.881   .     S
Br547  C803    1.923   .     S
Br549  C327    1.941   1_565 S
Br551  N813    1.881   .     S
C553   O585    1.289   .     A
C553   C557    1.425   .     S
C553   O587    1.296   .     A
C554   O586    1.289   .     A
C554   O588    1.296   .     A
C554   C558    1.425   .     S
C555   C572    1.399   .     A
C555   H581    1.084   .     S
C555   C619    1.393   1_455 S
C556   C571    1.399   .     A
C556   H582    1.084   .     S
C556   C620    1.393   .     S
C557   C742    1.349   1_545 S
C557   Br779   1.941   1_545 S
C558   C649    1.349   .     S
C558   Br688   1.941   .     S
C559   O589    1.301   .     A
C559   C564    1.455   .     S
C559   O591    1.299   .     A
C560   O590    1.301   .     A
C560   C563    1.455   .     S
C560   O592    1.299   .     A
C561   C563    1.398   .     A
C561   H577    1.085   .     S
C561   C571    1.390   .     A
C562   H578    1.085   .     S
C562   C564    1.398   .     A
C562   C572    1.390   .     A
C563   C565    1.399   .     A
C564   C566    1.399   .     A
C565   C567    1.398   .     A
C565   H579    1.082   .     S
C566   C568    1.398   .     A
C566   H580    1.082   .     S
C567   C569    1.418   .     A
C567   C573    1.411   .     A
C568   C570    1.418   .     A
C568   C574    1.411   .     A
C569   C571    1.411   .     A
C569   C616    1.402   .     S
C570   C572    1.411   .     A
C570   C615    1.402   1_455 S
C573   C601    1.393   .     S
C574   C602    1.393   1_455 S
C574   Br42    1.923   1_556 S
Cu575  Cu576   2.704   .     S
Cu575  N584    2.031   .     S
Cu575  O592    1.959   .     S
Cu575  O588    1.957   .     S
Cu575  O589    1.964   .     S
Cu575  O585    1.962   .     S
Cu576  O590    1.964   .     S
Cu576  N583    2.031   .     S
Cu576  O587    1.957   .     S
Cu576  O591    1.959   .     S
Cu576  O586    1.962   .     S
N584   N31     1.295   1_556 S
N584   Br46    1.881   1_556 S
Br593  C21     1.923   1_556 S
Br595  C649    1.941   .     S
Br596  C742    1.941   1_545 S
Br597  N31     1.881   1_556 S
C599   O631    1.289   .     A
C599   C603    1.425   .     S
C599   O633    1.296   .     A
C600   O632    1.289   .     A
C600   O634    1.296   .     A
C600   C604    1.425   .     S
C601   C618    1.399   .     A
C601   H627    1.084   .     S
C602   C617    1.399   .     A
C602   H628    1.084   .     S
C602   C574    1.393   1_655 S
C603   C788    1.349   1_545 S
C603   Br825   1.941   1_545 S
C604   C695    1.349   .     S
C604   Br734   1.941   .     S
C605   O635    1.301   .     A
C605   C610    1.455   .     S
C605   O637    1.299   .     A
C606   O636    1.301   .     A
C606   C609    1.455   .     S
C606   O638    1.299   .     A
C607   C609    1.398   .     A
C607   H623    1.085   .     S
C607   C617    1.390   .     A
C608   H624    1.085   .     S
C608   C610    1.398   .     A
C608   C618    1.390   .     A
C609   C611    1.399   .     A
C610   C612    1.399   .     A
C611   C613    1.398   .     A
C611   H625    1.082   .     S
C612   C614    1.398   .     A
C612   H626    1.082   .     S
C613   C615    1.418   .     A
C613   C619    1.411   .     A
C614   C616    1.418   .     A
C614   C620    1.411   .     A
C615   C617    1.411   .     A
C615   C570    1.402   1_655 S
C616   C618    1.411   .     A
C619   C555    1.393   1_655 S
C620   Br88    1.923   1_556 S
Cu621  Cu622   2.704   .     S
Cu621  N630    2.031   .     S
Cu621  O638    1.959   .     S
Cu621  O634    1.957   .     S
Cu621  O635    1.964   .     S
Cu621  O631    1.962   .     S
Cu622  O636    1.964   .     S
Cu622  N629    2.031   .     S
Cu622  O633    1.957   .     S
Cu622  O637    1.959   .     S
Cu622  O632    1.962   .     S
N630   N77     1.295   1_556 S
N630   Br92    1.881   1_556 S
Br639  C67     1.923   1_556 S
Br641  C695    1.941   .     S
Br642  C788    1.941   1_545 S
Br643  N77     1.881   1_556 S
C645   O677    1.289   .     A
C645   C649    1.425   .     S
C645   O679    1.296   .     A
C646   O678    1.289   .     A
C646   O680    1.296   .     A
C646   C650    1.425   .     S
C647   C664    1.399   .     A
C647   H673    1.084   .     S
C647   C711    1.393   1_455 S
C648   C663    1.399   .     A
C648   H674    1.084   .     S
C648   C712    1.393   .     S
C650   C741    1.349   .     S
C650   Br780   1.941   .     S
C651   O681    1.301   .     A
C651   C656    1.455   .     S
C651   O683    1.299   .     A
C652   O682    1.301   .     A
C652   C655    1.455   .     S
C652   O684    1.299   .     A
C653   C655    1.398   .     A
C653   H669    1.085   .     S
C653   C663    1.390   .     A
C654   H670    1.085   .     S
C654   C656    1.398   .     A
C654   C664    1.390   .     A
C655   C657    1.399   .     A
C656   C658    1.399   .     A
C657   C659    1.398   .     A
C657   H671    1.082   .     S
C658   C660    1.398   .     A
C658   H672    1.082   .     S
C659   C661    1.418   .     A
C659   C665    1.411   .     A
C660   C662    1.418   .     A
C660   C666    1.411   .     A
C661   C663    1.411   .     A
C661   C708    1.402   .     S
C662   C664    1.411   .     A
C662   C707    1.402   1_455 S
C665   C693    1.393   .     S
C666   C694    1.393   1_455 S
C666   Br134   1.923   1_556 S
Cu667  Cu668   2.704   .     S
Cu667  N676    2.031   .     S
Cu667  O684    1.959   .     S
Cu667  O680    1.957   .     S
Cu667  O681    1.964   .     S
Cu667  O677    1.962   .     S
Cu668  O682    1.964   .     S
Cu668  N675    2.031   .     S
Cu668  O679    1.957   .     S
Cu668  O683    1.959   .     S
Cu668  O678    1.962   .     S
N676   N123    1.295   1_556 S
N676   Br138   1.881   1_556 S
Br685  C113    1.923   1_556 S
Br687  C741    1.941   .     S
Br689  N123    1.881   1_556 S
C691   O723    1.289   .     A
C691   C695    1.425   .     S
C691   O725    1.296   .     A
C692   O724    1.289   .     A
C692   O726    1.296   .     A
C692   C696    1.425   .     S
C693   C710    1.399   .     A
C693   H719    1.084   .     S
C694   C709    1.399   .     A
C694   H720    1.084   .     S
C694   C666    1.393   1_655 S
C696   C787    1.349   .     S
C696   Br826   1.941   .     S
C697   O727    1.301   .     A
C697   C702    1.455   .     S
C697   O729    1.299   .     A
C698   O728    1.301   .     A
C698   C701    1.455   .     S
C698   O730    1.299   .     A
C699   C701    1.398   .     A
C699   H715    1.085   .     S
C699   C709    1.390   .     A
C700   H716    1.085   .     S
C700   C702    1.398   .     A
C700   C710    1.390   .     A
C701   C703    1.399   .     A
C702   C704    1.399   .     A
C703   C705    1.398   .     A
C703   H717    1.082   .     S
C704   C706    1.398   .     A
C704   H718    1.082   .     S
C705   C707    1.418   .     A
C705   C711    1.411   .     A
C706   C708    1.418   .     A
C706   C712    1.411   .     A
C707   C709    1.411   .     A
C707   C662    1.402   1_655 S
C708   C710    1.411   .     A
C711   C647    1.393   1_655 S
C712   Br180   1.923   1_556 S
Cu713  Cu714   2.704   .     S
Cu713  N722    2.031   .     S
Cu713  O730    1.959   .     S
Cu713  O726    1.957   .     S
Cu713  O727    1.964   .     S
Cu713  O723    1.962   .     S
Cu714  O728    1.964   .     S
Cu714  N721    2.031   .     S
Cu714  O725    1.957   .     S
Cu714  O729    1.959   .     S
Cu714  O724    1.962   .     S
N722   N169    1.295   1_556 S
N722   Br184   1.881   1_556 S
Br731  C159    1.923   1_556 S
Br733  C787    1.941   .     S
Br735  N169    1.881   1_556 S
C737   O769    1.289   .     A
C737   C741    1.425   .     S
C737   O771    1.296   .     A
C738   O770    1.289   .     A
C738   O772    1.296   .     A
C738   C742    1.425   .     S
C739   C756    1.399   .     A
C739   H765    1.084   .     S
C739   C803    1.393   1_455 S
C740   C755    1.399   .     A
C740   H766    1.084   .     S
C740   C804    1.393   .     S
C742   C557    1.349   1_565 S
C742   Br596   1.941   1_565 S
C743   O773    1.301   .     A
C743   C748    1.455   .     S
C743   O775    1.299   .     A
C744   O774    1.301   .     A
C744   C747    1.455   .     S
C744   O776    1.299   .     A
C745   C747    1.398   .     A
C745   H761    1.085   .     S
C745   C755    1.390   .     A
C746   H762    1.085   .     S
C746   C748    1.398   .     A
C746   C756    1.390   .     A
C747   C749    1.399   .     A
C748   C750    1.399   .     A
C749   C751    1.398   .     A
C749   H763    1.082   .     S
C750   C752    1.398   .     A
C750   H764    1.082   .     S
C751   C753    1.418   .     A
C751   C757    1.411   .     A
C752   C754    1.418   .     A
C752   C758    1.411   .     A
C753   C755    1.411   .     A
C753   C800    1.402   .     S
C754   C756    1.411   .     A
C754   C799    1.402   1_455 S
C757   C785    1.393   .     S
C758   C786    1.393   1_455 S
C758   Br226   1.923   1_556 S
Cu759  Cu760   2.704   .     S
Cu759  N768    2.031   .     S
Cu759  O776    1.959   .     S
Cu759  O772    1.957   .     S
Cu759  O773    1.964   .     S
Cu759  O769    1.962   .     S
Cu760  O774    1.964   .     S
Cu760  N767    2.031   .     S
Cu760  O771    1.957   .     S
Cu760  O775    1.959   .     S
Cu760  O770    1.962   .     S
N768   N215    1.295   1_556 S
N768   Br230   1.881   1_556 S
Br777  C205    1.923   1_556 S
Br779  C557    1.941   1_565 S
Br781  N215    1.881   1_556 S
C783   O815    1.289   .     A
C783   C787    1.425   .     S
C783   O817    1.296   .     A
C784   O816    1.289   .     A
C784   O818    1.296   .     A
C784   C788    1.425   .     S
C785   C802    1.399   .     A
C785   H811    1.084   .     S
C786   C801    1.399   .     A
C786   H812    1.084   .     S
C786   C758    1.393   1_655 S
C788   C603    1.349   1_565 S
C788   Br642   1.941   1_565 S
C789   O819    1.301   .     A
C789   C794    1.455   .     S
C789   O821    1.299   .     A
C790   O820    1.301   .     A
C790   C793    1.455   .     S
C790   O822    1.299   .     A
C791   C793    1.398   .     A
C791   H807    1.085   .     S
C791   C801    1.390   .     A
C792   H808    1.085   .     S
C792   C794    1.398   .     A
C792   C802    1.390   .     A
C793   C795    1.399   .     A
C794   C796    1.399   .     A
C795   C797    1.398   .     A
C795   H809    1.082   .     S
C796   C798    1.398   .     A
C796   H810    1.082   .     S
C797   C799    1.418   .     A
C797   C803    1.411   .     A
C798   C800    1.418   .     A
C798   C804    1.411   .     A
C799   C801    1.411   .     A
C799   C754    1.402   1_655 S
C800   C802    1.411   .     A
C803   C739    1.393   1_655 S
C804   Br272   1.923   1_556 S
Cu805  Cu806   2.704   .     S
Cu805  N814    2.031   .     S
Cu805  O822    1.959   .     S
Cu805  O818    1.957   .     S
Cu805  O819    1.964   .     S
Cu805  O815    1.962   .     S
Cu806  O820    1.964   .     S
Cu806  N813    2.031   .     S
Cu806  O817    1.957   .     S
Cu806  O821    1.959   .     S
Cu806  O816    1.962   .     S
N814   N261    1.295   1_556 S
N814   Br276   1.881   1_556 S
Br823  C251    1.923   1_556 S
Br825  C603    1.941   1_565 S
Br827  N261    1.881   1_556 S
