data_str_m2_o1_o5_pcu_sym.36
_audit_creation_date              2020-01-03
_audit_creation_method            'Materials Studio'
_symmetry_space_group_name_H-M    'P1'
_symmetry_Int_Tables_number       1
_symmetry_cell_setting            triclinic
loop_
_symmetry_equiv_pos_as_xyz
  x,y,z
_cell_length_a                    32.7921
_cell_length_b                    28.8934
_cell_length_c                    27.1333
_cell_angle_alpha                 89.6915
_cell_angle_beta                  93.3809
_cell_angle_gamma                 89.3622
loop_
_atom_site_label
_atom_site_type_symbol
_atom_site_fract_x
_atom_site_fract_y
_atom_site_fract_z
_atom_site_U_iso_or_equiv
_atom_site_adp_type
_atom_site_occupancy
O1     O     0.10655   0.20625   0.16666   0.00000  Uiso   1.00
O2     O     0.22679   0.12709   0.16667   0.00000  Uiso   1.00
O3     O     0.22679   0.20625   0.16667   0.00000  Uiso   1.00
O4     O     0.10655   0.12709   0.16666   0.00000  Uiso   1.00
C5     C     0.08757   0.16695   0.16892   0.00000  Uiso   1.00
C6     C     0.24577   0.16638   0.16439   0.00000  Uiso   1.00
O7     O     0.16667   0.20625   0.09613   0.00000  Uiso   1.00
O8     O     0.16667   0.12708   0.23720   0.00000  Uiso   1.00
O9     O     0.16667   0.20625   0.23720   0.00000  Uiso   1.00
O10    O     0.16667   0.12708   0.09613   0.00000  Uiso   1.00
C11    C     0.16656   0.16675   0.07366   0.00000  Uiso   1.00
C12    C     0.16677   0.16659   0.25968   0.00000  Uiso   1.00
Cu13   Cu    0.16667   0.21355   0.16667   0.00000  Uiso   1.00
Cu14   Cu    0.16667   0.11978   0.16667   0.00000  Uiso   1.00
C15    C     0.16663   0.16679   0.02189   0.00000  Uiso   1.00
C16    C     0.16670   0.16656   0.31144   0.00000  Uiso   1.00
C17    C     0.02219   0.12521   0.17696   0.00000  Uiso   1.00
C18    C     0.31116   0.20811   0.15626   0.00000  Uiso   1.00
C19    C     0.31300   0.12397   0.16921   0.00000  Uiso   1.00
C20    C     0.02035   0.20937   0.16411   0.00000  Uiso   1.00
C21    C     0.29053   0.16586   0.16192   0.00000  Uiso   1.00
C22    C     0.04281   0.16747   0.17136   0.00000  Uiso   1.00
C23    C     0.14600   0.02524   0.12965   0.00000  Uiso   1.00
C24    C     0.18699   0.30817   0.20398   0.00000  Uiso   1.00
C25    C     0.18673   0.02420   0.20418   0.00000  Uiso   1.00
C26    C     0.14697   0.30923   0.12886   0.00000  Uiso   1.00
N27    N     0.16667   0.28402   0.16667   0.00000  Uiso   1.00
N28    N     0.16667   0.04931   0.16667   0.00000  Uiso   1.00
N29    N     0.04433   0.08401   0.19147   0.00000  Uiso   1.00
H30    H     0.03483   0.05383   0.17455   0.00000  Uiso   1.00
C31    C     0.05323   0.07915   0.24411   0.00000  Uiso   1.00
H32    H     0.02454   0.07416   0.26322   0.00000  Uiso   1.00
H33    H     0.06914   0.11027   0.25909   0.00000  Uiso   1.00
H34    H     0.07361   0.04867   0.25157   0.00000  Uiso   1.00
N35    N     0.28903   0.24928   0.14162   0.00000  Uiso   1.00
H36    H     0.29846   0.27948   0.15853   0.00000  Uiso   1.00
C37    C     0.28034   0.25410   0.08893   0.00000  Uiso   1.00
H38    H     0.30911   0.25941   0.07003   0.00000  Uiso   1.00
H39    H     0.25975   0.28441   0.08138   0.00000  Uiso   1.00
H40    H     0.26473   0.22282   0.07383   0.00000  Uiso   1.00
N41    N     0.29288   0.08044   0.16863   0.00000  Uiso   1.00
H42    H     0.30362   0.05679   0.19497   0.00000  Uiso   1.00
C43    C     0.28612   0.06042   0.12012   0.00000  Uiso   1.00
H44    H     0.31569   0.05026   0.10510   0.00000  Uiso   1.00
H45    H     0.26983   0.08544   0.09445   0.00000  Uiso   1.00
H46    H     0.26692   0.02921   0.12277   0.00000  Uiso   1.00
N47    N     0.04046   0.25290   0.16490   0.00000  Uiso   1.00
H48    H     0.02977   0.27665   0.13862   0.00000  Uiso   1.00
C49    C     0.04707   0.27277   0.21351   0.00000  Uiso   1.00
H50    H     0.01744   0.28288   0.22842   0.00000  Uiso   1.00
H51    H     0.06630   0.30398   0.21106   0.00000  Uiso   1.00
H52    H     0.06328   0.24766   0.23915   0.00000  Uiso   1.00
C53    C     0.12083   0.04990   0.09064   0.00000  Uiso   1.00
O54    O     0.08643   0.06326   0.09870   0.00000  Uiso   1.00
O55    O     0.13525   0.05445   0.04343   0.00000  Uiso   1.00
H56    H     0.11489   0.07076   0.01949   0.00000  Uiso   1.00
C57    C     0.21111   0.28363   0.24400   0.00000  Uiso   1.00
O58    O     0.19744   0.28007   0.28481   0.00000  Uiso   1.00
O59    O     0.25066   0.26807   0.23638   0.00000  Uiso   1.00
H60    H     0.26437   0.25273   0.26680   0.00000  Uiso   1.00
C61    C     0.20685   0.04765   0.24717   0.00000  Uiso   1.00
O62    O     0.23871   0.06829   0.24320   0.00000  Uiso   1.00
O63    O     0.18973   0.04472   0.29303   0.00000  Uiso   1.00
H64    H     0.20637   0.06154   0.31990   0.00000  Uiso   1.00
C65    C     0.12845   0.28611   0.08468   0.00000  Uiso   1.00
O66    O     0.14477   0.28942   0.04544   0.00000  Uiso   1.00
O67    O     0.09216   0.26181   0.08702   0.00000  Uiso   1.00
H68    H     0.08273   0.24784   0.05415   0.00000  Uiso   1.00
O69    O     0.43988   0.20625   0.16666   0.00000  Uiso   1.00
O70    O     0.56012   0.12709   0.16667   0.00000  Uiso   1.00
O71    O     0.56012   0.20625   0.16667   0.00000  Uiso   1.00
O72    O     0.43988   0.12709   0.16666   0.00000  Uiso   1.00
C73    C     0.42090   0.16695   0.16892   0.00000  Uiso   1.00
C74    C     0.57910   0.16638   0.16439   0.00000  Uiso   1.00
O75    O     0.50000   0.20625   0.09613   0.00000  Uiso   1.00
O76    O     0.50000   0.12708   0.23720   0.00000  Uiso   1.00
O77    O     0.50000   0.20625   0.23720   0.00000  Uiso   1.00
O78    O     0.50000   0.12708   0.09613   0.00000  Uiso   1.00
C79    C     0.49989   0.16675   0.07366   0.00000  Uiso   1.00
C80    C     0.50010   0.16659   0.25968   0.00000  Uiso   1.00
Cu81   Cu    0.50000   0.21355   0.16667   0.00000  Uiso   1.00
Cu82   Cu    0.50000   0.11978   0.16667   0.00000  Uiso   1.00
C83    C     0.49996   0.16679   0.02189   0.00000  Uiso   1.00
C84    C     0.50003   0.16656   0.31144   0.00000  Uiso   1.00
C85    C     0.35552   0.12521   0.17696   0.00000  Uiso   1.00
C86    C     0.64449   0.20811   0.15626   0.00000  Uiso   1.00
C87    C     0.64633   0.12397   0.16921   0.00000  Uiso   1.00
C88    C     0.35368   0.20937   0.16411   0.00000  Uiso   1.00
C89    C     0.62386   0.16586   0.16192   0.00000  Uiso   1.00
C90    C     0.37615   0.16747   0.17136   0.00000  Uiso   1.00
C91    C     0.47934   0.02524   0.12965   0.00000  Uiso   1.00
C92    C     0.52033   0.30817   0.20398   0.00000  Uiso   1.00
C93    C     0.52006   0.02420   0.20418   0.00000  Uiso   1.00
C94    C     0.48031   0.30923   0.12886   0.00000  Uiso   1.00
N95    N     0.50000   0.28402   0.16667   0.00000  Uiso   1.00
N96    N     0.50000   0.04931   0.16667   0.00000  Uiso   1.00
N97    N     0.37766   0.08401   0.19147   0.00000  Uiso   1.00
H98    H     0.36817   0.05383   0.17455   0.00000  Uiso   1.00
C99    C     0.38656   0.07915   0.24411   0.00000  Uiso   1.00
H100   H     0.35787   0.07416   0.26322   0.00000  Uiso   1.00
H101   H     0.40247   0.11027   0.25909   0.00000  Uiso   1.00
H102   H     0.40695   0.04867   0.25157   0.00000  Uiso   1.00
N103   N     0.62236   0.24928   0.14162   0.00000  Uiso   1.00
H104   H     0.63180   0.27948   0.15853   0.00000  Uiso   1.00
C105   C     0.61367   0.25410   0.08893   0.00000  Uiso   1.00
H106   H     0.64244   0.25941   0.07003   0.00000  Uiso   1.00
H107   H     0.59308   0.28441   0.08138   0.00000  Uiso   1.00
H108   H     0.59806   0.22282   0.07383   0.00000  Uiso   1.00
N109   N     0.62621   0.08044   0.16863   0.00000  Uiso   1.00
H110   H     0.63696   0.05679   0.19497   0.00000  Uiso   1.00
C111   C     0.61945   0.06042   0.12012   0.00000  Uiso   1.00
H112   H     0.64902   0.05026   0.10510   0.00000  Uiso   1.00
H113   H     0.60316   0.08544   0.09445   0.00000  Uiso   1.00
H114   H     0.60025   0.02921   0.12277   0.00000  Uiso   1.00
N115   N     0.37380   0.25290   0.16490   0.00000  Uiso   1.00
H116   H     0.36311   0.27665   0.13862   0.00000  Uiso   1.00
C117   C     0.38041   0.27277   0.21351   0.00000  Uiso   1.00
H118   H     0.35078   0.28288   0.22842   0.00000  Uiso   1.00
H119   H     0.39963   0.30398   0.21106   0.00000  Uiso   1.00
H120   H     0.39661   0.24766   0.23915   0.00000  Uiso   1.00
C121   C     0.45417   0.04990   0.09064   0.00000  Uiso   1.00
O122   O     0.41976   0.06326   0.09870   0.00000  Uiso   1.00
O123   O     0.46858   0.05445   0.04343   0.00000  Uiso   1.00
H124   H     0.44823   0.07076   0.01949   0.00000  Uiso   1.00
C125   C     0.54444   0.28363   0.24400   0.00000  Uiso   1.00
O126   O     0.53077   0.28007   0.28481   0.00000  Uiso   1.00
O127   O     0.58399   0.26807   0.23638   0.00000  Uiso   1.00
H128   H     0.59770   0.25273   0.26680   0.00000  Uiso   1.00
C129   C     0.54018   0.04765   0.24717   0.00000  Uiso   1.00
O130   O     0.57205   0.06829   0.24320   0.00000  Uiso   1.00
O131   O     0.52306   0.04472   0.29303   0.00000  Uiso   1.00
H132   H     0.53970   0.06154   0.31990   0.00000  Uiso   1.00
C133   C     0.46179   0.28611   0.08468   0.00000  Uiso   1.00
O134   O     0.47811   0.28942   0.04544   0.00000  Uiso   1.00
O135   O     0.42549   0.26181   0.08702   0.00000  Uiso   1.00
H136   H     0.41606   0.24784   0.05415   0.00000  Uiso   1.00
O137   O     0.77321   0.20625   0.16666   0.00000  Uiso   1.00
O138   O     0.89345   0.12709   0.16667   0.00000  Uiso   1.00
O139   O     0.89345   0.20625   0.16667   0.00000  Uiso   1.00
O140   O     0.77321   0.12709   0.16666   0.00000  Uiso   1.00
C141   C     0.75423   0.16695   0.16892   0.00000  Uiso   1.00
C142   C     0.91243   0.16638   0.16439   0.00000  Uiso   1.00
O143   O     0.83333   0.20625   0.09613   0.00000  Uiso   1.00
O144   O     0.83333   0.12708   0.23720   0.00000  Uiso   1.00
O145   O     0.83333   0.20625   0.23720   0.00000  Uiso   1.00
O146   O     0.83333   0.12708   0.09613   0.00000  Uiso   1.00
C147   C     0.83322   0.16675   0.07366   0.00000  Uiso   1.00
C148   C     0.83344   0.16659   0.25968   0.00000  Uiso   1.00
Cu149  Cu    0.83333   0.21355   0.16667   0.00000  Uiso   1.00
Cu150  Cu    0.83333   0.11978   0.16667   0.00000  Uiso   1.00
C151   C     0.83330   0.16679   0.02189   0.00000  Uiso   1.00
C152   C     0.83336   0.16656   0.31144   0.00000  Uiso   1.00
C153   C     0.68886   0.12521   0.17696   0.00000  Uiso   1.00
C154   C     0.97783   0.20811   0.15626   0.00000  Uiso   1.00
C155   C     0.97966   0.12397   0.16921   0.00000  Uiso   1.00
C156   C     0.68701   0.20937   0.16411   0.00000  Uiso   1.00
C157   C     0.95719   0.16586   0.16192   0.00000  Uiso   1.00
C158   C     0.70948   0.16747   0.17136   0.00000  Uiso   1.00
C159   C     0.81267   0.02524   0.12965   0.00000  Uiso   1.00
C160   C     0.85366   0.30817   0.20398   0.00000  Uiso   1.00
C161   C     0.85340   0.02420   0.20418   0.00000  Uiso   1.00
C162   C     0.81364   0.30923   0.12886   0.00000  Uiso   1.00
N163   N     0.83333   0.28402   0.16667   0.00000  Uiso   1.00
N164   N     0.83333   0.04931   0.16667   0.00000  Uiso   1.00
N165   N     0.71099   0.08401   0.19147   0.00000  Uiso   1.00
H166   H     0.70150   0.05383   0.17455   0.00000  Uiso   1.00
C167   C     0.71990   0.07915   0.24411   0.00000  Uiso   1.00
H168   H     0.69121   0.07416   0.26322   0.00000  Uiso   1.00
H169   H     0.73581   0.11027   0.25909   0.00000  Uiso   1.00
H170   H     0.74028   0.04867   0.25157   0.00000  Uiso   1.00
N171   N     0.95570   0.24928   0.14162   0.00000  Uiso   1.00
H172   H     0.96513   0.27948   0.15853   0.00000  Uiso   1.00
C173   C     0.94700   0.25410   0.08893   0.00000  Uiso   1.00
H174   H     0.97577   0.25941   0.07003   0.00000  Uiso   1.00
H175   H     0.92641   0.28441   0.08138   0.00000  Uiso   1.00
H176   H     0.93140   0.22282   0.07383   0.00000  Uiso   1.00
N177   N     0.95954   0.08044   0.16863   0.00000  Uiso   1.00
H178   H     0.97029   0.05679   0.19497   0.00000  Uiso   1.00
C179   C     0.95278   0.06042   0.12012   0.00000  Uiso   1.00
H180   H     0.98236   0.05026   0.10510   0.00000  Uiso   1.00
H181   H     0.93649   0.08544   0.09445   0.00000  Uiso   1.00
H182   H     0.93359   0.02921   0.12277   0.00000  Uiso   1.00
N183   N     0.70713   0.25290   0.16490   0.00000  Uiso   1.00
H184   H     0.69644   0.27665   0.13862   0.00000  Uiso   1.00
C185   C     0.71374   0.27277   0.21351   0.00000  Uiso   1.00
H186   H     0.68411   0.28288   0.22842   0.00000  Uiso   1.00
H187   H     0.73296   0.30398   0.21106   0.00000  Uiso   1.00
H188   H     0.72994   0.24766   0.23915   0.00000  Uiso   1.00
C189   C     0.78750   0.04990   0.09064   0.00000  Uiso   1.00
O190   O     0.75309   0.06326   0.09870   0.00000  Uiso   1.00
O191   O     0.80192   0.05445   0.04343   0.00000  Uiso   1.00
H192   H     0.78156   0.07076   0.01949   0.00000  Uiso   1.00
C193   C     0.87778   0.28363   0.24400   0.00000  Uiso   1.00
O194   O     0.86411   0.28007   0.28481   0.00000  Uiso   1.00
O195   O     0.91733   0.26807   0.23638   0.00000  Uiso   1.00
H196   H     0.93103   0.25273   0.26680   0.00000  Uiso   1.00
C197   C     0.87352   0.04765   0.24717   0.00000  Uiso   1.00
O198   O     0.90538   0.06829   0.24320   0.00000  Uiso   1.00
O199   O     0.85639   0.04472   0.29303   0.00000  Uiso   1.00
H200   H     0.87304   0.06154   0.31990   0.00000  Uiso   1.00
C201   C     0.79512   0.28611   0.08468   0.00000  Uiso   1.00
O202   O     0.81144   0.28942   0.04544   0.00000  Uiso   1.00
O203   O     0.75883   0.26181   0.08702   0.00000  Uiso   1.00
H204   H     0.74939   0.24784   0.05415   0.00000  Uiso   1.00
O205   O     0.10655   0.53958   0.16666   0.00000  Uiso   1.00
O206   O     0.22679   0.46042   0.16667   0.00000  Uiso   1.00
O207   O     0.22679   0.53958   0.16667   0.00000  Uiso   1.00
O208   O     0.10655   0.46042   0.16666   0.00000  Uiso   1.00
C209   C     0.08757   0.50029   0.16892   0.00000  Uiso   1.00
C210   C     0.24577   0.49971   0.16439   0.00000  Uiso   1.00
O211   O     0.16667   0.53959   0.09613   0.00000  Uiso   1.00
O212   O     0.16667   0.46041   0.23720   0.00000  Uiso   1.00
O213   O     0.16667   0.53959   0.23720   0.00000  Uiso   1.00
O214   O     0.16667   0.46041   0.09613   0.00000  Uiso   1.00
C215   C     0.16656   0.50008   0.07366   0.00000  Uiso   1.00
C216   C     0.16677   0.49992   0.25968   0.00000  Uiso   1.00
Cu217  Cu    0.16667   0.54689   0.16667   0.00000  Uiso   1.00
Cu218  Cu    0.16667   0.45311   0.16667   0.00000  Uiso   1.00
C219   C     0.16663   0.50012   0.02189   0.00000  Uiso   1.00
C220   C     0.16670   0.49990   0.31144   0.00000  Uiso   1.00
C221   C     0.02219   0.45854   0.17696   0.00000  Uiso   1.00
C222   C     0.31116   0.54145   0.15626   0.00000  Uiso   1.00
C223   C     0.31300   0.45730   0.16921   0.00000  Uiso   1.00
C224   C     0.02035   0.54270   0.16411   0.00000  Uiso   1.00
C225   C     0.29053   0.49919   0.16192   0.00000  Uiso   1.00
C226   C     0.04281   0.50080   0.17136   0.00000  Uiso   1.00
C227   C     0.14600   0.35857   0.12965   0.00000  Uiso   1.00
C228   C     0.18699   0.64151   0.20398   0.00000  Uiso   1.00
C229   C     0.18673   0.35753   0.20418   0.00000  Uiso   1.00
C230   C     0.14697   0.64257   0.12886   0.00000  Uiso   1.00
N231   N     0.16667   0.61736   0.16667   0.00000  Uiso   1.00
N232   N     0.16667   0.38264   0.16667   0.00000  Uiso   1.00
N233   N     0.04433   0.41734   0.19147   0.00000  Uiso   1.00
H234   H     0.03483   0.38716   0.17455   0.00000  Uiso   1.00
C235   C     0.05323   0.41248   0.24411   0.00000  Uiso   1.00
H236   H     0.02454   0.40749   0.26322   0.00000  Uiso   1.00
H237   H     0.06914   0.44361   0.25909   0.00000  Uiso   1.00
H238   H     0.07361   0.38200   0.25157   0.00000  Uiso   1.00
N239   N     0.28903   0.58261   0.14162   0.00000  Uiso   1.00
H240   H     0.29846   0.61281   0.15853   0.00000  Uiso   1.00
C241   C     0.28034   0.58744   0.08893   0.00000  Uiso   1.00
H242   H     0.30911   0.59274   0.07003   0.00000  Uiso   1.00
H243   H     0.25975   0.61775   0.08138   0.00000  Uiso   1.00
H244   H     0.26473   0.55615   0.07383   0.00000  Uiso   1.00
N245   N     0.29288   0.41378   0.16863   0.00000  Uiso   1.00
H246   H     0.30362   0.39012   0.19497   0.00000  Uiso   1.00
C247   C     0.28612   0.39375   0.12012   0.00000  Uiso   1.00
H248   H     0.31569   0.38360   0.10510   0.00000  Uiso   1.00
H249   H     0.26983   0.41877   0.09445   0.00000  Uiso   1.00
H250   H     0.26692   0.36254   0.12277   0.00000  Uiso   1.00
N251   N     0.04046   0.58624   0.16490   0.00000  Uiso   1.00
H252   H     0.02977   0.60998   0.13862   0.00000  Uiso   1.00
C253   C     0.04707   0.60610   0.21351   0.00000  Uiso   1.00
H254   H     0.01744   0.61622   0.22842   0.00000  Uiso   1.00
H255   H     0.06630   0.63732   0.21106   0.00000  Uiso   1.00
H256   H     0.06328   0.58099   0.23915   0.00000  Uiso   1.00
C257   C     0.12083   0.38323   0.09064   0.00000  Uiso   1.00
O258   O     0.08643   0.39660   0.09870   0.00000  Uiso   1.00
O259   O     0.13525   0.38779   0.04343   0.00000  Uiso   1.00
H260   H     0.11489   0.40410   0.01949   0.00000  Uiso   1.00
C261   C     0.21111   0.61697   0.24400   0.00000  Uiso   1.00
O262   O     0.19744   0.61340   0.28481   0.00000  Uiso   1.00
O263   O     0.25066   0.60141   0.23638   0.00000  Uiso   1.00
H264   H     0.26437   0.58606   0.26680   0.00000  Uiso   1.00
C265   C     0.20685   0.38099   0.24717   0.00000  Uiso   1.00
O266   O     0.23871   0.40162   0.24320   0.00000  Uiso   1.00
O267   O     0.18973   0.37805   0.29303   0.00000  Uiso   1.00
H268   H     0.20637   0.39487   0.31990   0.00000  Uiso   1.00
C269   C     0.12845   0.61944   0.08468   0.00000  Uiso   1.00
O270   O     0.14477   0.62275   0.04544   0.00000  Uiso   1.00
O271   O     0.09216   0.59514   0.08702   0.00000  Uiso   1.00
H272   H     0.08273   0.58118   0.05415   0.00000  Uiso   1.00
O273   O     0.43988   0.53958   0.16666   0.00000  Uiso   1.00
O274   O     0.56012   0.46042   0.16667   0.00000  Uiso   1.00
O275   O     0.56012   0.53958   0.16667   0.00000  Uiso   1.00
O276   O     0.43988   0.46042   0.16666   0.00000  Uiso   1.00
C277   C     0.42090   0.50029   0.16892   0.00000  Uiso   1.00
C278   C     0.57910   0.49971   0.16439   0.00000  Uiso   1.00
O279   O     0.50000   0.53959   0.09613   0.00000  Uiso   1.00
O280   O     0.50000   0.46041   0.23720   0.00000  Uiso   1.00
O281   O     0.50000   0.53959   0.23720   0.00000  Uiso   1.00
O282   O     0.50000   0.46041   0.09613   0.00000  Uiso   1.00
C283   C     0.49989   0.50008   0.07366   0.00000  Uiso   1.00
C284   C     0.50010   0.49992   0.25968   0.00000  Uiso   1.00
Cu285  Cu    0.50000   0.54689   0.16667   0.00000  Uiso   1.00
Cu286  Cu    0.50000   0.45311   0.16667   0.00000  Uiso   1.00
C287   C     0.49996   0.50012   0.02189   0.00000  Uiso   1.00
C288   C     0.50003   0.49990   0.31144   0.00000  Uiso   1.00
C289   C     0.35552   0.45854   0.17696   0.00000  Uiso   1.00
C290   C     0.64449   0.54145   0.15626   0.00000  Uiso   1.00
C291   C     0.64633   0.45730   0.16921   0.00000  Uiso   1.00
C292   C     0.35368   0.54270   0.16411   0.00000  Uiso   1.00
C293   C     0.62386   0.49919   0.16192   0.00000  Uiso   1.00
C294   C     0.37615   0.50080   0.17136   0.00000  Uiso   1.00
C295   C     0.47934   0.35857   0.12965   0.00000  Uiso   1.00
C296   C     0.52033   0.64151   0.20398   0.00000  Uiso   1.00
C297   C     0.52006   0.35753   0.20418   0.00000  Uiso   1.00
C298   C     0.48031   0.64257   0.12886   0.00000  Uiso   1.00
N299   N     0.50000   0.61736   0.16667   0.00000  Uiso   1.00
N300   N     0.50000   0.38264   0.16667   0.00000  Uiso   1.00
N301   N     0.37766   0.41734   0.19147   0.00000  Uiso   1.00
H302   H     0.36817   0.38716   0.17455   0.00000  Uiso   1.00
C303   C     0.38656   0.41248   0.24411   0.00000  Uiso   1.00
H304   H     0.35787   0.40749   0.26322   0.00000  Uiso   1.00
H305   H     0.40247   0.44361   0.25909   0.00000  Uiso   1.00
H306   H     0.40695   0.38200   0.25157   0.00000  Uiso   1.00
N307   N     0.62236   0.58261   0.14162   0.00000  Uiso   1.00
H308   H     0.63180   0.61281   0.15853   0.00000  Uiso   1.00
C309   C     0.61367   0.58744   0.08893   0.00000  Uiso   1.00
H310   H     0.64244   0.59274   0.07003   0.00000  Uiso   1.00
H311   H     0.59308   0.61775   0.08138   0.00000  Uiso   1.00
H312   H     0.59806   0.55615   0.07383   0.00000  Uiso   1.00
N313   N     0.62621   0.41378   0.16863   0.00000  Uiso   1.00
H314   H     0.63696   0.39012   0.19497   0.00000  Uiso   1.00
C315   C     0.61945   0.39375   0.12012   0.00000  Uiso   1.00
H316   H     0.64902   0.38360   0.10510   0.00000  Uiso   1.00
H317   H     0.60316   0.41877   0.09445   0.00000  Uiso   1.00
H318   H     0.60025   0.36254   0.12277   0.00000  Uiso   1.00
N319   N     0.37380   0.58624   0.16490   0.00000  Uiso   1.00
H320   H     0.36311   0.60998   0.13862   0.00000  Uiso   1.00
C321   C     0.38041   0.60610   0.21351   0.00000  Uiso   1.00
H322   H     0.35078   0.61622   0.22842   0.00000  Uiso   1.00
H323   H     0.39963   0.63732   0.21106   0.00000  Uiso   1.00
H324   H     0.39661   0.58099   0.23915   0.00000  Uiso   1.00
C325   C     0.45417   0.38323   0.09064   0.00000  Uiso   1.00
O326   O     0.41976   0.39660   0.09870   0.00000  Uiso   1.00
O327   O     0.46858   0.38779   0.04343   0.00000  Uiso   1.00
H328   H     0.44823   0.40410   0.01949   0.00000  Uiso   1.00
C329   C     0.54444   0.61697   0.24400   0.00000  Uiso   1.00
O330   O     0.53077   0.61340   0.28481   0.00000  Uiso   1.00
O331   O     0.58399   0.60141   0.23638   0.00000  Uiso   1.00
H332   H     0.59770   0.58606   0.26680   0.00000  Uiso   1.00
C333   C     0.54018   0.38099   0.24717   0.00000  Uiso   1.00
O334   O     0.57205   0.40162   0.24320   0.00000  Uiso   1.00
O335   O     0.52306   0.37805   0.29303   0.00000  Uiso   1.00
H336   H     0.53970   0.39487   0.31990   0.00000  Uiso   1.00
C337   C     0.46179   0.61944   0.08468   0.00000  Uiso   1.00
O338   O     0.47811   0.62275   0.04544   0.00000  Uiso   1.00
O339   O     0.42549   0.59514   0.08702   0.00000  Uiso   1.00
H340   H     0.41606   0.58118   0.05415   0.00000  Uiso   1.00
O341   O     0.77321   0.53958   0.16666   0.00000  Uiso   1.00
O342   O     0.89345   0.46042   0.16667   0.00000  Uiso   1.00
O343   O     0.89345   0.53958   0.16667   0.00000  Uiso   1.00
O344   O     0.77321   0.46042   0.16666   0.00000  Uiso   1.00
C345   C     0.75423   0.50029   0.16892   0.00000  Uiso   1.00
C346   C     0.91243   0.49971   0.16439   0.00000  Uiso   1.00
O347   O     0.83333   0.53959   0.09613   0.00000  Uiso   1.00
O348   O     0.83333   0.46041   0.23720   0.00000  Uiso   1.00
O349   O     0.83333   0.53959   0.23720   0.00000  Uiso   1.00
O350   O     0.83333   0.46041   0.09613   0.00000  Uiso   1.00
C351   C     0.83322   0.50008   0.07366   0.00000  Uiso   1.00
C352   C     0.83344   0.49992   0.25968   0.00000  Uiso   1.00
Cu353  Cu    0.83333   0.54689   0.16667   0.00000  Uiso   1.00
Cu354  Cu    0.83333   0.45311   0.16667   0.00000  Uiso   1.00
C355   C     0.83330   0.50012   0.02189   0.00000  Uiso   1.00
C356   C     0.83336   0.49990   0.31144   0.00000  Uiso   1.00
C357   C     0.68886   0.45854   0.17696   0.00000  Uiso   1.00
C358   C     0.97783   0.54145   0.15626   0.00000  Uiso   1.00
C359   C     0.97966   0.45730   0.16921   0.00000  Uiso   1.00
C360   C     0.68701   0.54270   0.16411   0.00000  Uiso   1.00
C361   C     0.95719   0.49919   0.16192   0.00000  Uiso   1.00
C362   C     0.70948   0.50080   0.17136   0.00000  Uiso   1.00
C363   C     0.81267   0.35857   0.12965   0.00000  Uiso   1.00
C364   C     0.85366   0.64151   0.20398   0.00000  Uiso   1.00
C365   C     0.85340   0.35753   0.20418   0.00000  Uiso   1.00
C366   C     0.81364   0.64257   0.12886   0.00000  Uiso   1.00
N367   N     0.83333   0.61736   0.16667   0.00000  Uiso   1.00
N368   N     0.83333   0.38264   0.16667   0.00000  Uiso   1.00
N369   N     0.71099   0.41734   0.19147   0.00000  Uiso   1.00
H370   H     0.70150   0.38716   0.17455   0.00000  Uiso   1.00
C371   C     0.71990   0.41248   0.24411   0.00000  Uiso   1.00
H372   H     0.69121   0.40749   0.26322   0.00000  Uiso   1.00
H373   H     0.73581   0.44361   0.25909   0.00000  Uiso   1.00
H374   H     0.74028   0.38200   0.25157   0.00000  Uiso   1.00
N375   N     0.95570   0.58261   0.14162   0.00000  Uiso   1.00
H376   H     0.96513   0.61281   0.15853   0.00000  Uiso   1.00
C377   C     0.94700   0.58744   0.08893   0.00000  Uiso   1.00
H378   H     0.97577   0.59274   0.07003   0.00000  Uiso   1.00
H379   H     0.92641   0.61775   0.08138   0.00000  Uiso   1.00
H380   H     0.93140   0.55615   0.07383   0.00000  Uiso   1.00
N381   N     0.95954   0.41378   0.16863   0.00000  Uiso   1.00
H382   H     0.97029   0.39012   0.19497   0.00000  Uiso   1.00
C383   C     0.95278   0.39375   0.12012   0.00000  Uiso   1.00
H384   H     0.98236   0.38360   0.10510   0.00000  Uiso   1.00
H385   H     0.93649   0.41877   0.09445   0.00000  Uiso   1.00
H386   H     0.93359   0.36254   0.12277   0.00000  Uiso   1.00
N387   N     0.70713   0.58624   0.16490   0.00000  Uiso   1.00
H388   H     0.69644   0.60998   0.13862   0.00000  Uiso   1.00
C389   C     0.71374   0.60610   0.21351   0.00000  Uiso   1.00
H390   H     0.68411   0.61622   0.22842   0.00000  Uiso   1.00
H391   H     0.73296   0.63732   0.21106   0.00000  Uiso   1.00
H392   H     0.72994   0.58099   0.23915   0.00000  Uiso   1.00
C393   C     0.78750   0.38323   0.09064   0.00000  Uiso   1.00
O394   O     0.75309   0.39660   0.09870   0.00000  Uiso   1.00
O395   O     0.80192   0.38779   0.04343   0.00000  Uiso   1.00
H396   H     0.78156   0.40410   0.01949   0.00000  Uiso   1.00
C397   C     0.87778   0.61697   0.24400   0.00000  Uiso   1.00
O398   O     0.86411   0.61340   0.28481   0.00000  Uiso   1.00
O399   O     0.91733   0.60141   0.23638   0.00000  Uiso   1.00
H400   H     0.93103   0.58606   0.26680   0.00000  Uiso   1.00
C401   C     0.87352   0.38099   0.24717   0.00000  Uiso   1.00
O402   O     0.90538   0.40162   0.24320   0.00000  Uiso   1.00
O403   O     0.85639   0.37805   0.29303   0.00000  Uiso   1.00
H404   H     0.87304   0.39487   0.31990   0.00000  Uiso   1.00
C405   C     0.79512   0.61944   0.08468   0.00000  Uiso   1.00
O406   O     0.81144   0.62275   0.04544   0.00000  Uiso   1.00
O407   O     0.75883   0.59514   0.08702   0.00000  Uiso   1.00
H408   H     0.74939   0.58118   0.05415   0.00000  Uiso   1.00
O409   O     0.10655   0.87291   0.16666   0.00000  Uiso   1.00
O410   O     0.22679   0.79375   0.16667   0.00000  Uiso   1.00
O411   O     0.22679   0.87291   0.16667   0.00000  Uiso   1.00
O412   O     0.10655   0.79375   0.16666   0.00000  Uiso   1.00
C413   C     0.08757   0.83362   0.16892   0.00000  Uiso   1.00
C414   C     0.24577   0.83305   0.16439   0.00000  Uiso   1.00
O415   O     0.16667   0.87292   0.09613   0.00000  Uiso   1.00
O416   O     0.16667   0.79375   0.23720   0.00000  Uiso   1.00
O417   O     0.16667   0.87292   0.23720   0.00000  Uiso   1.00
O418   O     0.16667   0.79375   0.09613   0.00000  Uiso   1.00
C419   C     0.16656   0.83341   0.07366   0.00000  Uiso   1.00
C420   C     0.16677   0.83326   0.25968   0.00000  Uiso   1.00
Cu421  Cu    0.16667   0.88022   0.16667   0.00000  Uiso   1.00
Cu422  Cu    0.16667   0.78645   0.16667   0.00000  Uiso   1.00
C423   C     0.16663   0.83345   0.02189   0.00000  Uiso   1.00
C424   C     0.16670   0.83323   0.31144   0.00000  Uiso   1.00
C425   C     0.02219   0.79188   0.17696   0.00000  Uiso   1.00
C426   C     0.31116   0.87478   0.15626   0.00000  Uiso   1.00
C427   C     0.31300   0.79063   0.16921   0.00000  Uiso   1.00
C428   C     0.02035   0.87604   0.16411   0.00000  Uiso   1.00
C429   C     0.29053   0.83253   0.16192   0.00000  Uiso   1.00
C430   C     0.04281   0.83414   0.17136   0.00000  Uiso   1.00
C431   C     0.14600   0.69191   0.12965   0.00000  Uiso   1.00
C432   C     0.18699   0.97484   0.20398   0.00000  Uiso   1.00
C433   C     0.18673   0.69086   0.20418   0.00000  Uiso   1.00
C434   C     0.14697   0.97590   0.12886   0.00000  Uiso   1.00
N435   N     0.16667   0.95069   0.16667   0.00000  Uiso   1.00
N436   N     0.16667   0.71598   0.16667   0.00000  Uiso   1.00
N437   N     0.04433   0.75067   0.19147   0.00000  Uiso   1.00
H438   H     0.03483   0.72049   0.17455   0.00000  Uiso   1.00
C439   C     0.05323   0.74581   0.24411   0.00000  Uiso   1.00
H440   H     0.02454   0.74082   0.26322   0.00000  Uiso   1.00
H441   H     0.06914   0.77694   0.25909   0.00000  Uiso   1.00
H442   H     0.07361   0.71533   0.25157   0.00000  Uiso   1.00
N443   N     0.28903   0.91594   0.14162   0.00000  Uiso   1.00
H444   H     0.29846   0.94614   0.15853   0.00000  Uiso   1.00
C445   C     0.28034   0.92077   0.08893   0.00000  Uiso   1.00
H446   H     0.30911   0.92607   0.07003   0.00000  Uiso   1.00
H447   H     0.25975   0.95108   0.08138   0.00000  Uiso   1.00
H448   H     0.26473   0.88948   0.07383   0.00000  Uiso   1.00
N449   N     0.29288   0.74711   0.16863   0.00000  Uiso   1.00
H450   H     0.30362   0.72345   0.19497   0.00000  Uiso   1.00
C451   C     0.28612   0.72709   0.12012   0.00000  Uiso   1.00
H452   H     0.31569   0.71693   0.10510   0.00000  Uiso   1.00
H453   H     0.26983   0.75211   0.09445   0.00000  Uiso   1.00
H454   H     0.26692   0.69587   0.12277   0.00000  Uiso   1.00
N455   N     0.04046   0.91957   0.16490   0.00000  Uiso   1.00
H456   H     0.02977   0.94331   0.13862   0.00000  Uiso   1.00
C457   C     0.04707   0.93944   0.21351   0.00000  Uiso   1.00
H458   H     0.01744   0.94955   0.22842   0.00000  Uiso   1.00
H459   H     0.06630   0.97065   0.21106   0.00000  Uiso   1.00
H460   H     0.06328   0.91433   0.23915   0.00000  Uiso   1.00
C461   C     0.12083   0.71656   0.09064   0.00000  Uiso   1.00
O462   O     0.08643   0.72993   0.09870   0.00000  Uiso   1.00
O463   O     0.13525   0.72112   0.04343   0.00000  Uiso   1.00
H464   H     0.11489   0.73743   0.01949   0.00000  Uiso   1.00
C465   C     0.21111   0.95030   0.24400   0.00000  Uiso   1.00
O466   O     0.19744   0.94673   0.28481   0.00000  Uiso   1.00
O467   O     0.25066   0.93474   0.23638   0.00000  Uiso   1.00
H468   H     0.26437   0.91940   0.26680   0.00000  Uiso   1.00
C469   C     0.20685   0.71432   0.24717   0.00000  Uiso   1.00
O470   O     0.23871   0.73496   0.24320   0.00000  Uiso   1.00
O471   O     0.18973   0.71138   0.29303   0.00000  Uiso   1.00
H472   H     0.20637   0.72820   0.31990   0.00000  Uiso   1.00
C473   C     0.12845   0.95277   0.08468   0.00000  Uiso   1.00
O474   O     0.14477   0.95608   0.04544   0.00000  Uiso   1.00
O475   O     0.09216   0.92848   0.08702   0.00000  Uiso   1.00
H476   H     0.08273   0.91451   0.05415   0.00000  Uiso   1.00
O477   O     0.43988   0.87291   0.16666   0.00000  Uiso   1.00
O478   O     0.56012   0.79375   0.16667   0.00000  Uiso   1.00
O479   O     0.56012   0.87291   0.16667   0.00000  Uiso   1.00
O480   O     0.43988   0.79375   0.16666   0.00000  Uiso   1.00
C481   C     0.42090   0.83362   0.16892   0.00000  Uiso   1.00
C482   C     0.57910   0.83305   0.16439   0.00000  Uiso   1.00
O483   O     0.50000   0.87292   0.09613   0.00000  Uiso   1.00
O484   O     0.50000   0.79375   0.23720   0.00000  Uiso   1.00
O485   O     0.50000   0.87292   0.23720   0.00000  Uiso   1.00
O486   O     0.50000   0.79375   0.09613   0.00000  Uiso   1.00
C487   C     0.49989   0.83341   0.07366   0.00000  Uiso   1.00
C488   C     0.50010   0.83326   0.25968   0.00000  Uiso   1.00
Cu489  Cu    0.50000   0.88022   0.16667   0.00000  Uiso   1.00
Cu490  Cu    0.50000   0.78645   0.16667   0.00000  Uiso   1.00
C491   C     0.49996   0.83345   0.02189   0.00000  Uiso   1.00
C492   C     0.50003   0.83323   0.31144   0.00000  Uiso   1.00
C493   C     0.35552   0.79188   0.17696   0.00000  Uiso   1.00
C494   C     0.64449   0.87478   0.15626   0.00000  Uiso   1.00
C495   C     0.64633   0.79063   0.16921   0.00000  Uiso   1.00
C496   C     0.35368   0.87604   0.16411   0.00000  Uiso   1.00
C497   C     0.62386   0.83253   0.16192   0.00000  Uiso   1.00
C498   C     0.37615   0.83414   0.17136   0.00000  Uiso   1.00
C499   C     0.47934   0.69191   0.12965   0.00000  Uiso   1.00
C500   C     0.52033   0.97484   0.20398   0.00000  Uiso   1.00
C501   C     0.52006   0.69086   0.20418   0.00000  Uiso   1.00
C502   C     0.48031   0.97590   0.12886   0.00000  Uiso   1.00
N503   N     0.50000   0.95069   0.16667   0.00000  Uiso   1.00
N504   N     0.50000   0.71598   0.16667   0.00000  Uiso   1.00
N505   N     0.37766   0.75067   0.19147   0.00000  Uiso   1.00
H506   H     0.36817   0.72049   0.17455   0.00000  Uiso   1.00
C507   C     0.38656   0.74581   0.24411   0.00000  Uiso   1.00
H508   H     0.35787   0.74082   0.26322   0.00000  Uiso   1.00
H509   H     0.40247   0.77694   0.25909   0.00000  Uiso   1.00
H510   H     0.40695   0.71533   0.25157   0.00000  Uiso   1.00
N511   N     0.62236   0.91594   0.14162   0.00000  Uiso   1.00
H512   H     0.63180   0.94614   0.15853   0.00000  Uiso   1.00
C513   C     0.61367   0.92077   0.08893   0.00000  Uiso   1.00
H514   H     0.64244   0.92607   0.07003   0.00000  Uiso   1.00
H515   H     0.59308   0.95108   0.08138   0.00000  Uiso   1.00
H516   H     0.59806   0.88948   0.07383   0.00000  Uiso   1.00
N517   N     0.62621   0.74711   0.16863   0.00000  Uiso   1.00
H518   H     0.63696   0.72345   0.19497   0.00000  Uiso   1.00
C519   C     0.61945   0.72709   0.12012   0.00000  Uiso   1.00
H520   H     0.64902   0.71693   0.10510   0.00000  Uiso   1.00
H521   H     0.60316   0.75211   0.09445   0.00000  Uiso   1.00
H522   H     0.60025   0.69587   0.12277   0.00000  Uiso   1.00
N523   N     0.37380   0.91957   0.16490   0.00000  Uiso   1.00
H524   H     0.36311   0.94331   0.13862   0.00000  Uiso   1.00
C525   C     0.38041   0.93944   0.21351   0.00000  Uiso   1.00
H526   H     0.35078   0.94955   0.22842   0.00000  Uiso   1.00
H527   H     0.39963   0.97065   0.21106   0.00000  Uiso   1.00
H528   H     0.39661   0.91433   0.23915   0.00000  Uiso   1.00
C529   C     0.45417   0.71656   0.09064   0.00000  Uiso   1.00
O530   O     0.41976   0.72993   0.09870   0.00000  Uiso   1.00
O531   O     0.46858   0.72112   0.04343   0.00000  Uiso   1.00
H532   H     0.44823   0.73743   0.01949   0.00000  Uiso   1.00
C533   C     0.54444   0.95030   0.24400   0.00000  Uiso   1.00
O534   O     0.53077   0.94673   0.28481   0.00000  Uiso   1.00
O535   O     0.58399   0.93474   0.23638   0.00000  Uiso   1.00
H536   H     0.59770   0.91940   0.26680   0.00000  Uiso   1.00
C537   C     0.54018   0.71432   0.24717   0.00000  Uiso   1.00
O538   O     0.57205   0.73496   0.24320   0.00000  Uiso   1.00
O539   O     0.52306   0.71138   0.29303   0.00000  Uiso   1.00
H540   H     0.53970   0.72820   0.31990   0.00000  Uiso   1.00
C541   C     0.46179   0.95277   0.08468   0.00000  Uiso   1.00
O542   O     0.47811   0.95608   0.04544   0.00000  Uiso   1.00
O543   O     0.42549   0.92848   0.08702   0.00000  Uiso   1.00
H544   H     0.41606   0.91451   0.05415   0.00000  Uiso   1.00
O545   O     0.77321   0.87291   0.16666   0.00000  Uiso   1.00
O546   O     0.89345   0.79375   0.16667   0.00000  Uiso   1.00
O547   O     0.89345   0.87291   0.16667   0.00000  Uiso   1.00
O548   O     0.77321   0.79375   0.16666   0.00000  Uiso   1.00
C549   C     0.75423   0.83362   0.16892   0.00000  Uiso   1.00
C550   C     0.91243   0.83305   0.16439   0.00000  Uiso   1.00
O551   O     0.83333   0.87292   0.09613   0.00000  Uiso   1.00
O552   O     0.83333   0.79375   0.23720   0.00000  Uiso   1.00
O553   O     0.83333   0.87292   0.23720   0.00000  Uiso   1.00
O554   O     0.83333   0.79375   0.09613   0.00000  Uiso   1.00
C555   C     0.83322   0.83341   0.07366   0.00000  Uiso   1.00
C556   C     0.83344   0.83326   0.25968   0.00000  Uiso   1.00
Cu557  Cu    0.83333   0.88022   0.16667   0.00000  Uiso   1.00
Cu558  Cu    0.83333   0.78645   0.16667   0.00000  Uiso   1.00
C559   C     0.83330   0.83345   0.02189   0.00000  Uiso   1.00
C560   C     0.83336   0.83323   0.31144   0.00000  Uiso   1.00
C561   C     0.68886   0.79188   0.17696   0.00000  Uiso   1.00
C562   C     0.97783   0.87478   0.15626   0.00000  Uiso   1.00
C563   C     0.97966   0.79063   0.16921   0.00000  Uiso   1.00
C564   C     0.68701   0.87604   0.16411   0.00000  Uiso   1.00
C565   C     0.95719   0.83253   0.16192   0.00000  Uiso   1.00
C566   C     0.70948   0.83414   0.17136   0.00000  Uiso   1.00
C567   C     0.81267   0.69191   0.12965   0.00000  Uiso   1.00
C568   C     0.85366   0.97484   0.20398   0.00000  Uiso   1.00
C569   C     0.85340   0.69086   0.20418   0.00000  Uiso   1.00
C570   C     0.81364   0.97590   0.12886   0.00000  Uiso   1.00
N571   N     0.83333   0.95069   0.16667   0.00000  Uiso   1.00
N572   N     0.83333   0.71598   0.16667   0.00000  Uiso   1.00
N573   N     0.71099   0.75067   0.19147   0.00000  Uiso   1.00
H574   H     0.70150   0.72049   0.17455   0.00000  Uiso   1.00
C575   C     0.71990   0.74581   0.24411   0.00000  Uiso   1.00
H576   H     0.69121   0.74082   0.26322   0.00000  Uiso   1.00
H577   H     0.73581   0.77694   0.25909   0.00000  Uiso   1.00
H578   H     0.74028   0.71533   0.25157   0.00000  Uiso   1.00
N579   N     0.95570   0.91594   0.14162   0.00000  Uiso   1.00
H580   H     0.96513   0.94614   0.15853   0.00000  Uiso   1.00
C581   C     0.94700   0.92077   0.08893   0.00000  Uiso   1.00
H582   H     0.97577   0.92607   0.07003   0.00000  Uiso   1.00
H583   H     0.92641   0.95108   0.08138   0.00000  Uiso   1.00
H584   H     0.93140   0.88948   0.07383   0.00000  Uiso   1.00
N585   N     0.95954   0.74711   0.16863   0.00000  Uiso   1.00
H586   H     0.97029   0.72345   0.19497   0.00000  Uiso   1.00
C587   C     0.95278   0.72709   0.12012   0.00000  Uiso   1.00
H588   H     0.98236   0.71693   0.10510   0.00000  Uiso   1.00
H589   H     0.93649   0.75211   0.09445   0.00000  Uiso   1.00
H590   H     0.93359   0.69587   0.12277   0.00000  Uiso   1.00
N591   N     0.70713   0.91957   0.16490   0.00000  Uiso   1.00
H592   H     0.69644   0.94331   0.13862   0.00000  Uiso   1.00
C593   C     0.71374   0.93944   0.21351   0.00000  Uiso   1.00
H594   H     0.68411   0.94955   0.22842   0.00000  Uiso   1.00
H595   H     0.73296   0.97065   0.21106   0.00000  Uiso   1.00
H596   H     0.72994   0.91433   0.23915   0.00000  Uiso   1.00
C597   C     0.78750   0.71656   0.09064   0.00000  Uiso   1.00
O598   O     0.75309   0.72993   0.09870   0.00000  Uiso   1.00
O599   O     0.80192   0.72112   0.04343   0.00000  Uiso   1.00
H600   H     0.78156   0.73743   0.01949   0.00000  Uiso   1.00
C601   C     0.87778   0.95030   0.24400   0.00000  Uiso   1.00
O602   O     0.86411   0.94673   0.28481   0.00000  Uiso   1.00
O603   O     0.91733   0.93474   0.23638   0.00000  Uiso   1.00
H604   H     0.93103   0.91940   0.26680   0.00000  Uiso   1.00
C605   C     0.87352   0.71432   0.24717   0.00000  Uiso   1.00
O606   O     0.90538   0.73496   0.24320   0.00000  Uiso   1.00
O607   O     0.85639   0.71138   0.29303   0.00000  Uiso   1.00
H608   H     0.87304   0.72820   0.31990   0.00000  Uiso   1.00
C609   C     0.79512   0.95277   0.08468   0.00000  Uiso   1.00
O610   O     0.81144   0.95608   0.04544   0.00000  Uiso   1.00
O611   O     0.75883   0.92848   0.08702   0.00000  Uiso   1.00
H612   H     0.74939   0.91451   0.05415   0.00000  Uiso   1.00
O613   O     0.10655   0.20625   0.50000   0.00000  Uiso   1.00
O614   O     0.22679   0.12709   0.50000   0.00000  Uiso   1.00
O615   O     0.22679   0.20625   0.50000   0.00000  Uiso   1.00
O616   O     0.10655   0.12709   0.50000   0.00000  Uiso   1.00
C617   C     0.08757   0.16695   0.50226   0.00000  Uiso   1.00
C618   C     0.24577   0.16638   0.49773   0.00000  Uiso   1.00
O619   O     0.16667   0.20625   0.42946   0.00000  Uiso   1.00
O620   O     0.16667   0.12708   0.57054   0.00000  Uiso   1.00
O621   O     0.16667   0.20625   0.57054   0.00000  Uiso   1.00
O622   O     0.16667   0.12708   0.42946   0.00000  Uiso   1.00
C623   C     0.16656   0.16675   0.40699   0.00000  Uiso   1.00
C624   C     0.16677   0.16659   0.59301   0.00000  Uiso   1.00
Cu625  Cu    0.16667   0.21355   0.50000   0.00000  Uiso   1.00
Cu626  Cu    0.16667   0.11978   0.50000   0.00000  Uiso   1.00
C627   C     0.16663   0.16679   0.35522   0.00000  Uiso   1.00
C628   C     0.16670   0.16656   0.64478   0.00000  Uiso   1.00
C629   C     0.02219   0.12521   0.51030   0.00000  Uiso   1.00
C630   C     0.31116   0.20811   0.48960   0.00000  Uiso   1.00
C631   C     0.31300   0.12397   0.50254   0.00000  Uiso   1.00
C632   C     0.02035   0.20937   0.49744   0.00000  Uiso   1.00
C633   C     0.29053   0.16586   0.49526   0.00000  Uiso   1.00
C634   C     0.04281   0.16747   0.50470   0.00000  Uiso   1.00
C635   C     0.14600   0.02524   0.46299   0.00000  Uiso   1.00
C636   C     0.18699   0.30817   0.53732   0.00000  Uiso   1.00
C637   C     0.18673   0.02420   0.53752   0.00000  Uiso   1.00
C638   C     0.14697   0.30923   0.46219   0.00000  Uiso   1.00
N639   N     0.16667   0.28402   0.50000   0.00000  Uiso   1.00
N640   N     0.16667   0.04931   0.50000   0.00000  Uiso   1.00
N641   N     0.04433   0.08401   0.52480   0.00000  Uiso   1.00
H642   H     0.03483   0.05383   0.50788   0.00000  Uiso   1.00
C643   C     0.05323   0.07915   0.57745   0.00000  Uiso   1.00
H644   H     0.02454   0.07416   0.59655   0.00000  Uiso   1.00
H645   H     0.06914   0.11027   0.59242   0.00000  Uiso   1.00
H646   H     0.07361   0.04867   0.58491   0.00000  Uiso   1.00
N647   N     0.28903   0.24928   0.47495   0.00000  Uiso   1.00
H648   H     0.29846   0.27948   0.49187   0.00000  Uiso   1.00
C649   C     0.28034   0.25410   0.42227   0.00000  Uiso   1.00
H650   H     0.30911   0.25941   0.40337   0.00000  Uiso   1.00
H651   H     0.25975   0.28441   0.41471   0.00000  Uiso   1.00
H652   H     0.26473   0.22282   0.40717   0.00000  Uiso   1.00
N653   N     0.29288   0.08044   0.50196   0.00000  Uiso   1.00
H654   H     0.30362   0.05679   0.52831   0.00000  Uiso   1.00
C655   C     0.28612   0.06042   0.45345   0.00000  Uiso   1.00
H656   H     0.31569   0.05026   0.43843   0.00000  Uiso   1.00
H657   H     0.26983   0.08544   0.42778   0.00000  Uiso   1.00
H658   H     0.26692   0.02921   0.45610   0.00000  Uiso   1.00
N659   N     0.04046   0.25290   0.49823   0.00000  Uiso   1.00
H660   H     0.02977   0.27665   0.47195   0.00000  Uiso   1.00
C661   C     0.04707   0.27277   0.54684   0.00000  Uiso   1.00
H662   H     0.01744   0.28288   0.56175   0.00000  Uiso   1.00
H663   H     0.06630   0.30398   0.54439   0.00000  Uiso   1.00
H664   H     0.06328   0.24766   0.57249   0.00000  Uiso   1.00
C665   C     0.12083   0.04990   0.42398   0.00000  Uiso   1.00
O666   O     0.08643   0.06326   0.43203   0.00000  Uiso   1.00
O667   O     0.13525   0.05445   0.37676   0.00000  Uiso   1.00
H668   H     0.11489   0.07076   0.35282   0.00000  Uiso   1.00
C669   C     0.21111   0.28363   0.57733   0.00000  Uiso   1.00
O670   O     0.19744   0.28007   0.61814   0.00000  Uiso   1.00
O671   O     0.25066   0.26807   0.56971   0.00000  Uiso   1.00
H672   H     0.26437   0.25273   0.60014   0.00000  Uiso   1.00
C673   C     0.20685   0.04765   0.58050   0.00000  Uiso   1.00
O674   O     0.23871   0.06829   0.57654   0.00000  Uiso   1.00
O675   O     0.18973   0.04472   0.62636   0.00000  Uiso   1.00
H676   H     0.20637   0.06154   0.65323   0.00000  Uiso   1.00
C677   C     0.12845   0.28611   0.41801   0.00000  Uiso   1.00
O678   O     0.14477   0.28942   0.37878   0.00000  Uiso   1.00
O679   O     0.09216   0.26181   0.42035   0.00000  Uiso   1.00
H680   H     0.08273   0.24784   0.38748   0.00000  Uiso   1.00
O681   O     0.43988   0.20625   0.50000   0.00000  Uiso   1.00
O682   O     0.56012   0.12709   0.50000   0.00000  Uiso   1.00
O683   O     0.56012   0.20625   0.50000   0.00000  Uiso   1.00
O684   O     0.43988   0.12709   0.50000   0.00000  Uiso   1.00
C685   C     0.42090   0.16695   0.50226   0.00000  Uiso   1.00
C686   C     0.57910   0.16638   0.49773   0.00000  Uiso   1.00
O687   O     0.50000   0.20625   0.42946   0.00000  Uiso   1.00
O688   O     0.50000   0.12708   0.57054   0.00000  Uiso   1.00
O689   O     0.50000   0.20625   0.57054   0.00000  Uiso   1.00
O690   O     0.50000   0.12708   0.42946   0.00000  Uiso   1.00
C691   C     0.49989   0.16675   0.40699   0.00000  Uiso   1.00
C692   C     0.50010   0.16659   0.59301   0.00000  Uiso   1.00
Cu693  Cu    0.50000   0.21355   0.50000   0.00000  Uiso   1.00
Cu694  Cu    0.50000   0.11978   0.50000   0.00000  Uiso   1.00
C695   C     0.49996   0.16679   0.35522   0.00000  Uiso   1.00
C696   C     0.50003   0.16656   0.64478   0.00000  Uiso   1.00
C697   C     0.35552   0.12521   0.51030   0.00000  Uiso   1.00
C698   C     0.64449   0.20811   0.48960   0.00000  Uiso   1.00
C699   C     0.64633   0.12397   0.50254   0.00000  Uiso   1.00
C700   C     0.35368   0.20937   0.49744   0.00000  Uiso   1.00
C701   C     0.62386   0.16586   0.49526   0.00000  Uiso   1.00
C702   C     0.37615   0.16747   0.50470   0.00000  Uiso   1.00
C703   C     0.47934   0.02524   0.46299   0.00000  Uiso   1.00
C704   C     0.52033   0.30817   0.53732   0.00000  Uiso   1.00
C705   C     0.52006   0.02420   0.53752   0.00000  Uiso   1.00
C706   C     0.48031   0.30923   0.46219   0.00000  Uiso   1.00
N707   N     0.50000   0.28402   0.50000   0.00000  Uiso   1.00
N708   N     0.50000   0.04931   0.50000   0.00000  Uiso   1.00
N709   N     0.37766   0.08401   0.52480   0.00000  Uiso   1.00
H710   H     0.36817   0.05383   0.50788   0.00000  Uiso   1.00
C711   C     0.38656   0.07915   0.57745   0.00000  Uiso   1.00
H712   H     0.35787   0.07416   0.59655   0.00000  Uiso   1.00
H713   H     0.40247   0.11027   0.59242   0.00000  Uiso   1.00
H714   H     0.40695   0.04867   0.58491   0.00000  Uiso   1.00
N715   N     0.62236   0.24928   0.47495   0.00000  Uiso   1.00
H716   H     0.63180   0.27948   0.49187   0.00000  Uiso   1.00
C717   C     0.61367   0.25410   0.42227   0.00000  Uiso   1.00
H718   H     0.64244   0.25941   0.40337   0.00000  Uiso   1.00
H719   H     0.59308   0.28441   0.41471   0.00000  Uiso   1.00
H720   H     0.59806   0.22282   0.40717   0.00000  Uiso   1.00
N721   N     0.62621   0.08044   0.50196   0.00000  Uiso   1.00
H722   H     0.63696   0.05679   0.52831   0.00000  Uiso   1.00
C723   C     0.61945   0.06042   0.45345   0.00000  Uiso   1.00
H724   H     0.64902   0.05026   0.43843   0.00000  Uiso   1.00
H725   H     0.60316   0.08544   0.42778   0.00000  Uiso   1.00
H726   H     0.60025   0.02921   0.45610   0.00000  Uiso   1.00
N727   N     0.37380   0.25290   0.49823   0.00000  Uiso   1.00
H728   H     0.36311   0.27665   0.47195   0.00000  Uiso   1.00
C729   C     0.38041   0.27277   0.54684   0.00000  Uiso   1.00
H730   H     0.35078   0.28288   0.56175   0.00000  Uiso   1.00
H731   H     0.39963   0.30398   0.54439   0.00000  Uiso   1.00
H732   H     0.39661   0.24766   0.57249   0.00000  Uiso   1.00
C733   C     0.45417   0.04990   0.42398   0.00000  Uiso   1.00
O734   O     0.41976   0.06326   0.43203   0.00000  Uiso   1.00
O735   O     0.46858   0.05445   0.37676   0.00000  Uiso   1.00
H736   H     0.44823   0.07076   0.35282   0.00000  Uiso   1.00
C737   C     0.54444   0.28363   0.57733   0.00000  Uiso   1.00
O738   O     0.53077   0.28007   0.61814   0.00000  Uiso   1.00
O739   O     0.58399   0.26807   0.56971   0.00000  Uiso   1.00
H740   H     0.59770   0.25273   0.60014   0.00000  Uiso   1.00
C741   C     0.54018   0.04765   0.58050   0.00000  Uiso   1.00
O742   O     0.57205   0.06829   0.57654   0.00000  Uiso   1.00
O743   O     0.52306   0.04472   0.62636   0.00000  Uiso   1.00
H744   H     0.53970   0.06154   0.65323   0.00000  Uiso   1.00
C745   C     0.46179   0.28611   0.41801   0.00000  Uiso   1.00
O746   O     0.47811   0.28942   0.37878   0.00000  Uiso   1.00
O747   O     0.42549   0.26181   0.42035   0.00000  Uiso   1.00
H748   H     0.41606   0.24784   0.38748   0.00000  Uiso   1.00
O749   O     0.77321   0.20625   0.50000   0.00000  Uiso   1.00
O750   O     0.89345   0.12709   0.50000   0.00000  Uiso   1.00
O751   O     0.89345   0.20625   0.50000   0.00000  Uiso   1.00
O752   O     0.77321   0.12709   0.50000   0.00000  Uiso   1.00
C753   C     0.75423   0.16695   0.50226   0.00000  Uiso   1.00
C754   C     0.91243   0.16638   0.49773   0.00000  Uiso   1.00
O755   O     0.83333   0.20625   0.42946   0.00000  Uiso   1.00
O756   O     0.83333   0.12708   0.57054   0.00000  Uiso   1.00
O757   O     0.83333   0.20625   0.57054   0.00000  Uiso   1.00
O758   O     0.83333   0.12708   0.42946   0.00000  Uiso   1.00
C759   C     0.83322   0.16675   0.40699   0.00000  Uiso   1.00
C760   C     0.83344   0.16659   0.59301   0.00000  Uiso   1.00
Cu761  Cu    0.83333   0.21355   0.50000   0.00000  Uiso   1.00
Cu762  Cu    0.83333   0.11978   0.50000   0.00000  Uiso   1.00
C763   C     0.83330   0.16679   0.35522   0.00000  Uiso   1.00
C764   C     0.83336   0.16656   0.64478   0.00000  Uiso   1.00
C765   C     0.68886   0.12521   0.51030   0.00000  Uiso   1.00
C766   C     0.97783   0.20811   0.48960   0.00000  Uiso   1.00
C767   C     0.97966   0.12397   0.50254   0.00000  Uiso   1.00
C768   C     0.68701   0.20937   0.49744   0.00000  Uiso   1.00
C769   C     0.95719   0.16586   0.49526   0.00000  Uiso   1.00
C770   C     0.70948   0.16747   0.50470   0.00000  Uiso   1.00
C771   C     0.81267   0.02524   0.46299   0.00000  Uiso   1.00
C772   C     0.85366   0.30817   0.53732   0.00000  Uiso   1.00
C773   C     0.85340   0.02420   0.53752   0.00000  Uiso   1.00
C774   C     0.81364   0.30923   0.46219   0.00000  Uiso   1.00
N775   N     0.83333   0.28402   0.50000   0.00000  Uiso   1.00
N776   N     0.83333   0.04931   0.50000   0.00000  Uiso   1.00
N777   N     0.71099   0.08401   0.52480   0.00000  Uiso   1.00
H778   H     0.70150   0.05383   0.50788   0.00000  Uiso   1.00
C779   C     0.71990   0.07915   0.57745   0.00000  Uiso   1.00
H780   H     0.69121   0.07416   0.59655   0.00000  Uiso   1.00
H781   H     0.73581   0.11027   0.59242   0.00000  Uiso   1.00
H782   H     0.74028   0.04867   0.58491   0.00000  Uiso   1.00
N783   N     0.95570   0.24928   0.47495   0.00000  Uiso   1.00
H784   H     0.96513   0.27948   0.49187   0.00000  Uiso   1.00
C785   C     0.94700   0.25410   0.42227   0.00000  Uiso   1.00
H786   H     0.97577   0.25941   0.40337   0.00000  Uiso   1.00
H787   H     0.92641   0.28441   0.41471   0.00000  Uiso   1.00
H788   H     0.93140   0.22282   0.40717   0.00000  Uiso   1.00
N789   N     0.95954   0.08044   0.50196   0.00000  Uiso   1.00
H790   H     0.97029   0.05679   0.52831   0.00000  Uiso   1.00
C791   C     0.95278   0.06042   0.45345   0.00000  Uiso   1.00
H792   H     0.98236   0.05026   0.43843   0.00000  Uiso   1.00
H793   H     0.93649   0.08544   0.42778   0.00000  Uiso   1.00
H794   H     0.93359   0.02921   0.45610   0.00000  Uiso   1.00
N795   N     0.70713   0.25290   0.49823   0.00000  Uiso   1.00
H796   H     0.69644   0.27665   0.47195   0.00000  Uiso   1.00
C797   C     0.71374   0.27277   0.54684   0.00000  Uiso   1.00
H798   H     0.68411   0.28288   0.56175   0.00000  Uiso   1.00
H799   H     0.73296   0.30398   0.54439   0.00000  Uiso   1.00
H800   H     0.72994   0.24766   0.57249   0.00000  Uiso   1.00
C801   C     0.78750   0.04990   0.42398   0.00000  Uiso   1.00
O802   O     0.75309   0.06326   0.43203   0.00000  Uiso   1.00
O803   O     0.80192   0.05445   0.37676   0.00000  Uiso   1.00
H804   H     0.78156   0.07076   0.35282   0.00000  Uiso   1.00
C805   C     0.87778   0.28363   0.57733   0.00000  Uiso   1.00
O806   O     0.86411   0.28007   0.61814   0.00000  Uiso   1.00
O807   O     0.91733   0.26807   0.56971   0.00000  Uiso   1.00
H808   H     0.93103   0.25273   0.60014   0.00000  Uiso   1.00
C809   C     0.87352   0.04765   0.58050   0.00000  Uiso   1.00
O810   O     0.90538   0.06829   0.57654   0.00000  Uiso   1.00
O811   O     0.85639   0.04472   0.62636   0.00000  Uiso   1.00
H812   H     0.87304   0.06154   0.65323   0.00000  Uiso   1.00
C813   C     0.79512   0.28611   0.41801   0.00000  Uiso   1.00
O814   O     0.81144   0.28942   0.37878   0.00000  Uiso   1.00
O815   O     0.75883   0.26181   0.42035   0.00000  Uiso   1.00
H816   H     0.74939   0.24784   0.38748   0.00000  Uiso   1.00
O817   O     0.10655   0.53958   0.50000   0.00000  Uiso   1.00
O818   O     0.22679   0.46042   0.50000   0.00000  Uiso   1.00
O819   O     0.22679   0.53958   0.50000   0.00000  Uiso   1.00
O820   O     0.10655   0.46042   0.50000   0.00000  Uiso   1.00
C821   C     0.08757   0.50029   0.50226   0.00000  Uiso   1.00
C822   C     0.24577   0.49971   0.49773   0.00000  Uiso   1.00
O823   O     0.16667   0.53959   0.42946   0.00000  Uiso   1.00
O824   O     0.16667   0.46041   0.57054   0.00000  Uiso   1.00
O825   O     0.16667   0.53959   0.57054   0.00000  Uiso   1.00
O826   O     0.16667   0.46041   0.42946   0.00000  Uiso   1.00
C827   C     0.16656   0.50008   0.40699   0.00000  Uiso   1.00
C828   C     0.16677   0.49992   0.59301   0.00000  Uiso   1.00
Cu829  Cu    0.16667   0.54689   0.50000   0.00000  Uiso   1.00
Cu830  Cu    0.16667   0.45311   0.50000   0.00000  Uiso   1.00
C831   C     0.16663   0.50012   0.35522   0.00000  Uiso   1.00
C832   C     0.16670   0.49990   0.64478   0.00000  Uiso   1.00
C833   C     0.02219   0.45854   0.51030   0.00000  Uiso   1.00
C834   C     0.31116   0.54145   0.48960   0.00000  Uiso   1.00
C835   C     0.31300   0.45730   0.50254   0.00000  Uiso   1.00
C836   C     0.02035   0.54270   0.49744   0.00000  Uiso   1.00
C837   C     0.29053   0.49919   0.49526   0.00000  Uiso   1.00
C838   C     0.04281   0.50080   0.50470   0.00000  Uiso   1.00
C839   C     0.14600   0.35857   0.46299   0.00000  Uiso   1.00
C840   C     0.18699   0.64151   0.53732   0.00000  Uiso   1.00
C841   C     0.18673   0.35753   0.53752   0.00000  Uiso   1.00
C842   C     0.14697   0.64257   0.46219   0.00000  Uiso   1.00
N843   N     0.16667   0.61736   0.50000   0.00000  Uiso   1.00
N844   N     0.16667   0.38264   0.50000   0.00000  Uiso   1.00
N845   N     0.04433   0.41734   0.52480   0.00000  Uiso   1.00
H846   H     0.03483   0.38716   0.50788   0.00000  Uiso   1.00
C847   C     0.05323   0.41248   0.57745   0.00000  Uiso   1.00
H848   H     0.02454   0.40749   0.59655   0.00000  Uiso   1.00
H849   H     0.06914   0.44361   0.59242   0.00000  Uiso   1.00
H850   H     0.07361   0.38200   0.58491   0.00000  Uiso   1.00
N851   N     0.28903   0.58261   0.47495   0.00000  Uiso   1.00
H852   H     0.29846   0.61281   0.49187   0.00000  Uiso   1.00
C853   C     0.28034   0.58744   0.42227   0.00000  Uiso   1.00
H854   H     0.30911   0.59274   0.40337   0.00000  Uiso   1.00
H855   H     0.25975   0.61775   0.41471   0.00000  Uiso   1.00
H856   H     0.26473   0.55615   0.40717   0.00000  Uiso   1.00
N857   N     0.29288   0.41378   0.50196   0.00000  Uiso   1.00
H858   H     0.30362   0.39012   0.52831   0.00000  Uiso   1.00
C859   C     0.28612   0.39375   0.45345   0.00000  Uiso   1.00
H860   H     0.31569   0.38360   0.43843   0.00000  Uiso   1.00
H861   H     0.26983   0.41877   0.42778   0.00000  Uiso   1.00
H862   H     0.26692   0.36254   0.45610   0.00000  Uiso   1.00
N863   N     0.04046   0.58624   0.49823   0.00000  Uiso   1.00
H864   H     0.02977   0.60998   0.47195   0.00000  Uiso   1.00
C865   C     0.04707   0.60610   0.54684   0.00000  Uiso   1.00
H866   H     0.01744   0.61622   0.56175   0.00000  Uiso   1.00
H867   H     0.06630   0.63732   0.54439   0.00000  Uiso   1.00
H868   H     0.06328   0.58099   0.57249   0.00000  Uiso   1.00
C869   C     0.12083   0.38323   0.42398   0.00000  Uiso   1.00
O870   O     0.08643   0.39660   0.43203   0.00000  Uiso   1.00
O871   O     0.13525   0.38779   0.37676   0.00000  Uiso   1.00
H872   H     0.11489   0.40410   0.35282   0.00000  Uiso   1.00
C873   C     0.21111   0.61697   0.57733   0.00000  Uiso   1.00
O874   O     0.19744   0.61340   0.61814   0.00000  Uiso   1.00
O875   O     0.25066   0.60141   0.56971   0.00000  Uiso   1.00
H876   H     0.26437   0.58606   0.60014   0.00000  Uiso   1.00
C877   C     0.20685   0.38099   0.58050   0.00000  Uiso   1.00
O878   O     0.23871   0.40162   0.57654   0.00000  Uiso   1.00
O879   O     0.18973   0.37805   0.62636   0.00000  Uiso   1.00
H880   H     0.20637   0.39487   0.65323   0.00000  Uiso   1.00
C881   C     0.12845   0.61944   0.41801   0.00000  Uiso   1.00
O882   O     0.14477   0.62275   0.37878   0.00000  Uiso   1.00
O883   O     0.09216   0.59514   0.42035   0.00000  Uiso   1.00
H884   H     0.08273   0.58118   0.38748   0.00000  Uiso   1.00
O885   O     0.43988   0.53958   0.50000   0.00000  Uiso   1.00
O886   O     0.56012   0.46042   0.50000   0.00000  Uiso   1.00
O887   O     0.56012   0.53958   0.50000   0.00000  Uiso   1.00
O888   O     0.43988   0.46042   0.50000   0.00000  Uiso   1.00
C889   C     0.42090   0.50029   0.50226   0.00000  Uiso   1.00
C890   C     0.57910   0.49971   0.49773   0.00000  Uiso   1.00
O891   O     0.50000   0.53959   0.42946   0.00000  Uiso   1.00
O892   O     0.50000   0.46041   0.57054   0.00000  Uiso   1.00
O893   O     0.50000   0.53959   0.57054   0.00000  Uiso   1.00
O894   O     0.50000   0.46041   0.42946   0.00000  Uiso   1.00
C895   C     0.49989   0.50008   0.40699   0.00000  Uiso   1.00
C896   C     0.50010   0.49992   0.59301   0.00000  Uiso   1.00
Cu897  Cu    0.50000   0.54689   0.50000   0.00000  Uiso   1.00
Cu898  Cu    0.50000   0.45311   0.50000   0.00000  Uiso   1.00
C899   C     0.49996   0.50012   0.35522   0.00000  Uiso   1.00
C900   C     0.50003   0.49990   0.64478   0.00000  Uiso   1.00
C901   C     0.35552   0.45854   0.51030   0.00000  Uiso   1.00
C902   C     0.64449   0.54145   0.48960   0.00000  Uiso   1.00
C903   C     0.64633   0.45730   0.50254   0.00000  Uiso   1.00
C904   C     0.35368   0.54270   0.49744   0.00000  Uiso   1.00
C905   C     0.62386   0.49919   0.49526   0.00000  Uiso   1.00
C906   C     0.37615   0.50080   0.50470   0.00000  Uiso   1.00
C907   C     0.47934   0.35857   0.46299   0.00000  Uiso   1.00
C908   C     0.52033   0.64151   0.53732   0.00000  Uiso   1.00
C909   C     0.52006   0.35753   0.53752   0.00000  Uiso   1.00
C910   C     0.48031   0.64257   0.46219   0.00000  Uiso   1.00
N911   N     0.50000   0.61736   0.50000   0.00000  Uiso   1.00
N912   N     0.50000   0.38264   0.50000   0.00000  Uiso   1.00
N913   N     0.37766   0.41734   0.52480   0.00000  Uiso   1.00
H914   H     0.36817   0.38716   0.50788   0.00000  Uiso   1.00
C915   C     0.38656   0.41248   0.57745   0.00000  Uiso   1.00
H916   H     0.35787   0.40749   0.59655   0.00000  Uiso   1.00
H917   H     0.40247   0.44361   0.59242   0.00000  Uiso   1.00
H918   H     0.40695   0.38200   0.58491   0.00000  Uiso   1.00
N919   N     0.62236   0.58261   0.47495   0.00000  Uiso   1.00
H920   H     0.63180   0.61281   0.49187   0.00000  Uiso   1.00
C921   C     0.61367   0.58744   0.42227   0.00000  Uiso   1.00
H922   H     0.64244   0.59274   0.40337   0.00000  Uiso   1.00
H923   H     0.59308   0.61775   0.41471   0.00000  Uiso   1.00
H924   H     0.59806   0.55615   0.40717   0.00000  Uiso   1.00
N925   N     0.62621   0.41378   0.50196   0.00000  Uiso   1.00
H926   H     0.63696   0.39012   0.52831   0.00000  Uiso   1.00
C927   C     0.61945   0.39375   0.45345   0.00000  Uiso   1.00
H928   H     0.64902   0.38360   0.43843   0.00000  Uiso   1.00
H929   H     0.60316   0.41877   0.42778   0.00000  Uiso   1.00
H930   H     0.60025   0.36254   0.45610   0.00000  Uiso   1.00
N931   N     0.37380   0.58624   0.49823   0.00000  Uiso   1.00
H932   H     0.36311   0.60998   0.47195   0.00000  Uiso   1.00
C933   C     0.38041   0.60610   0.54684   0.00000  Uiso   1.00
H934   H     0.35078   0.61622   0.56175   0.00000  Uiso   1.00
H935   H     0.39963   0.63732   0.54439   0.00000  Uiso   1.00
H936   H     0.39661   0.58099   0.57249   0.00000  Uiso   1.00
C937   C     0.45417   0.38323   0.42398   0.00000  Uiso   1.00
O938   O     0.41976   0.39660   0.43203   0.00000  Uiso   1.00
O939   O     0.46858   0.38779   0.37676   0.00000  Uiso   1.00
H940   H     0.44823   0.40410   0.35282   0.00000  Uiso   1.00
C941   C     0.54444   0.61697   0.57733   0.00000  Uiso   1.00
O942   O     0.53077   0.61340   0.61814   0.00000  Uiso   1.00
O943   O     0.58399   0.60141   0.56971   0.00000  Uiso   1.00
H944   H     0.59770   0.58606   0.60014   0.00000  Uiso   1.00
C945   C     0.54018   0.38099   0.58050   0.00000  Uiso   1.00
O946   O     0.57205   0.40162   0.57654   0.00000  Uiso   1.00
O947   O     0.52306   0.37805   0.62636   0.00000  Uiso   1.00
H948   H     0.53970   0.39487   0.65323   0.00000  Uiso   1.00
C949   C     0.46179   0.61944   0.41801   0.00000  Uiso   1.00
O950   O     0.47811   0.62275   0.37878   0.00000  Uiso   1.00
O951   O     0.42549   0.59514   0.42035   0.00000  Uiso   1.00
H952   H     0.41606   0.58118   0.38748   0.00000  Uiso   1.00
O953   O     0.77321   0.53958   0.50000   0.00000  Uiso   1.00
O954   O     0.89345   0.46042   0.50000   0.00000  Uiso   1.00
O955   O     0.89345   0.53958   0.50000   0.00000  Uiso   1.00
O956   O     0.77321   0.46042   0.50000   0.00000  Uiso   1.00
C957   C     0.75423   0.50029   0.50226   0.00000  Uiso   1.00
C958   C     0.91243   0.49971   0.49773   0.00000  Uiso   1.00
O959   O     0.83333   0.53959   0.42946   0.00000  Uiso   1.00
O960   O     0.83333   0.46041   0.57054   0.00000  Uiso   1.00
O961   O     0.83333   0.53959   0.57054   0.00000  Uiso   1.00
O962   O     0.83333   0.46041   0.42946   0.00000  Uiso   1.00
C963   C     0.83322   0.50008   0.40699   0.00000  Uiso   1.00
C964   C     0.83344   0.49992   0.59301   0.00000  Uiso   1.00
Cu965  Cu    0.83333   0.54689   0.50000   0.00000  Uiso   1.00
Cu966  Cu    0.83333   0.45311   0.50000   0.00000  Uiso   1.00
C967   C     0.83330   0.50012   0.35522   0.00000  Uiso   1.00
C968   C     0.83336   0.49990   0.64478   0.00000  Uiso   1.00
C969   C     0.68886   0.45854   0.51030   0.00000  Uiso   1.00
C970   C     0.97783   0.54145   0.48960   0.00000  Uiso   1.00
C971   C     0.97966   0.45730   0.50254   0.00000  Uiso   1.00
C972   C     0.68701   0.54270   0.49744   0.00000  Uiso   1.00
C973   C     0.95719   0.49919   0.49526   0.00000  Uiso   1.00
C974   C     0.70948   0.50080   0.50470   0.00000  Uiso   1.00
C975   C     0.81267   0.35857   0.46299   0.00000  Uiso   1.00
C976   C     0.85366   0.64151   0.53732   0.00000  Uiso   1.00
C977   C     0.85340   0.35753   0.53752   0.00000  Uiso   1.00
C978   C     0.81364   0.64257   0.46219   0.00000  Uiso   1.00
N979   N     0.83333   0.61736   0.50000   0.00000  Uiso   1.00
N980   N     0.83333   0.38264   0.50000   0.00000  Uiso   1.00
N981   N     0.71099   0.41734   0.52480   0.00000  Uiso   1.00
H982   H     0.70150   0.38716   0.50788   0.00000  Uiso   1.00
C983   C     0.71990   0.41248   0.57745   0.00000  Uiso   1.00
H984   H     0.69121   0.40749   0.59655   0.00000  Uiso   1.00
H985   H     0.73581   0.44361   0.59242   0.00000  Uiso   1.00
H986   H     0.74028   0.38200   0.58491   0.00000  Uiso   1.00
N987   N     0.95570   0.58261   0.47495   0.00000  Uiso   1.00
H988   H     0.96513   0.61281   0.49187   0.00000  Uiso   1.00
C989   C     0.94700   0.58744   0.42227   0.00000  Uiso   1.00
H990   H     0.97577   0.59274   0.40337   0.00000  Uiso   1.00
H991   H     0.92641   0.61775   0.41471   0.00000  Uiso   1.00
H992   H     0.93140   0.55615   0.40717   0.00000  Uiso   1.00
N993   N     0.95954   0.41378   0.50196   0.00000  Uiso   1.00
H994   H     0.97029   0.39012   0.52831   0.00000  Uiso   1.00
C995   C     0.95278   0.39375   0.45345   0.00000  Uiso   1.00
H996   H     0.98236   0.38360   0.43843   0.00000  Uiso   1.00
H997   H     0.93649   0.41877   0.42778   0.00000  Uiso   1.00
H998   H     0.93359   0.36254   0.45610   0.00000  Uiso   1.00
N999   N     0.70713   0.58624   0.49823   0.00000  Uiso   1.00
H1000  H     0.69644   0.60998   0.47195   0.00000  Uiso   1.00
C1001  C     0.71374   0.60610   0.54684   0.00000  Uiso   1.00
H1002  H     0.68411   0.61622   0.56175   0.00000  Uiso   1.00
H1003  H     0.73296   0.63732   0.54439   0.00000  Uiso   1.00
H1004  H     0.72994   0.58099   0.57249   0.00000  Uiso   1.00
C1005  C     0.78750   0.38323   0.42398   0.00000  Uiso   1.00
O1006  O     0.75309   0.39660   0.43203   0.00000  Uiso   1.00
O1007  O     0.80192   0.38779   0.37676   0.00000  Uiso   1.00
H1008  H     0.78156   0.40410   0.35282   0.00000  Uiso   1.00
C1009  C     0.87778   0.61697   0.57733   0.00000  Uiso   1.00
O1010  O     0.86411   0.61340   0.61814   0.00000  Uiso   1.00
O1011  O     0.91733   0.60141   0.56971   0.00000  Uiso   1.00
H1012  H     0.93103   0.58606   0.60014   0.00000  Uiso   1.00
C1013  C     0.87352   0.38099   0.58050   0.00000  Uiso   1.00
O1014  O     0.90538   0.40162   0.57654   0.00000  Uiso   1.00
O1015  O     0.85639   0.37805   0.62636   0.00000  Uiso   1.00
H1016  H     0.87304   0.39487   0.65323   0.00000  Uiso   1.00
C1017  C     0.79512   0.61944   0.41801   0.00000  Uiso   1.00
O1018  O     0.81144   0.62275   0.37878   0.00000  Uiso   1.00
O1019  O     0.75883   0.59514   0.42035   0.00000  Uiso   1.00
H1020  H     0.74939   0.58118   0.38748   0.00000  Uiso   1.00
O1021  O     0.10655   0.87291   0.50000   0.00000  Uiso   1.00
O1022  O     0.22679   0.79375   0.50000   0.00000  Uiso   1.00
O1023  O     0.22679   0.87291   0.50000   0.00000  Uiso   1.00
O1024  O     0.10655   0.79375   0.50000   0.00000  Uiso   1.00
C1025  C     0.08757   0.83362   0.50226   0.00000  Uiso   1.00
C1026  C     0.24577   0.83305   0.49773   0.00000  Uiso   1.00
O1027  O     0.16667   0.87292   0.42946   0.00000  Uiso   1.00
O1028  O     0.16667   0.79375   0.57054   0.00000  Uiso   1.00
O1029  O     0.16667   0.87292   0.57054   0.00000  Uiso   1.00
O1030  O     0.16667   0.79375   0.42946   0.00000  Uiso   1.00
C1031  C     0.16656   0.83341   0.40699   0.00000  Uiso   1.00
C1032  C     0.16677   0.83326   0.59301   0.00000  Uiso   1.00
Cu1033 Cu    0.16667   0.88022   0.50000   0.00000  Uiso   1.00
Cu1034 Cu    0.16667   0.78645   0.50000   0.00000  Uiso   1.00
C1035  C     0.16663   0.83345   0.35522   0.00000  Uiso   1.00
C1036  C     0.16670   0.83323   0.64478   0.00000  Uiso   1.00
C1037  C     0.02219   0.79188   0.51030   0.00000  Uiso   1.00
C1038  C     0.31116   0.87478   0.48960   0.00000  Uiso   1.00
C1039  C     0.31300   0.79063   0.50254   0.00000  Uiso   1.00
C1040  C     0.02035   0.87604   0.49744   0.00000  Uiso   1.00
C1041  C     0.29053   0.83253   0.49526   0.00000  Uiso   1.00
C1042  C     0.04281   0.83414   0.50470   0.00000  Uiso   1.00
C1043  C     0.14600   0.69191   0.46299   0.00000  Uiso   1.00
C1044  C     0.18699   0.97484   0.53732   0.00000  Uiso   1.00
C1045  C     0.18673   0.69086   0.53752   0.00000  Uiso   1.00
C1046  C     0.14697   0.97590   0.46219   0.00000  Uiso   1.00
N1047  N     0.16667   0.95069   0.50000   0.00000  Uiso   1.00
N1048  N     0.16667   0.71598   0.50000   0.00000  Uiso   1.00
N1049  N     0.04433   0.75067   0.52480   0.00000  Uiso   1.00
H1050  H     0.03483   0.72049   0.50788   0.00000  Uiso   1.00
C1051  C     0.05323   0.74581   0.57745   0.00000  Uiso   1.00
H1052  H     0.02454   0.74082   0.59655   0.00000  Uiso   1.00
H1053  H     0.06914   0.77694   0.59242   0.00000  Uiso   1.00
H1054  H     0.07361   0.71533   0.58491   0.00000  Uiso   1.00
N1055  N     0.28903   0.91594   0.47495   0.00000  Uiso   1.00
H1056  H     0.29846   0.94614   0.49187   0.00000  Uiso   1.00
C1057  C     0.28034   0.92077   0.42227   0.00000  Uiso   1.00
H1058  H     0.30911   0.92607   0.40337   0.00000  Uiso   1.00
H1059  H     0.25975   0.95108   0.41471   0.00000  Uiso   1.00
H1060  H     0.26473   0.88948   0.40717   0.00000  Uiso   1.00
N1061  N     0.29288   0.74711   0.50196   0.00000  Uiso   1.00
H1062  H     0.30362   0.72345   0.52831   0.00000  Uiso   1.00
C1063  C     0.28612   0.72709   0.45345   0.00000  Uiso   1.00
H1064  H     0.31569   0.71693   0.43843   0.00000  Uiso   1.00
H1065  H     0.26983   0.75211   0.42778   0.00000  Uiso   1.00
H1066  H     0.26692   0.69587   0.45610   0.00000  Uiso   1.00
N1067  N     0.04046   0.91957   0.49823   0.00000  Uiso   1.00
H1068  H     0.02977   0.94331   0.47195   0.00000  Uiso   1.00
C1069  C     0.04707   0.93944   0.54684   0.00000  Uiso   1.00
H1070  H     0.01744   0.94955   0.56175   0.00000  Uiso   1.00
H1071  H     0.06630   0.97065   0.54439   0.00000  Uiso   1.00
H1072  H     0.06328   0.91433   0.57249   0.00000  Uiso   1.00
C1073  C     0.12083   0.71656   0.42398   0.00000  Uiso   1.00
O1074  O     0.08643   0.72993   0.43203   0.00000  Uiso   1.00
O1075  O     0.13525   0.72112   0.37676   0.00000  Uiso   1.00
H1076  H     0.11489   0.73743   0.35282   0.00000  Uiso   1.00
C1077  C     0.21111   0.95030   0.57733   0.00000  Uiso   1.00
O1078  O     0.19744   0.94673   0.61814   0.00000  Uiso   1.00
O1079  O     0.25066   0.93474   0.56971   0.00000  Uiso   1.00
H1080  H     0.26437   0.91940   0.60014   0.00000  Uiso   1.00
C1081  C     0.20685   0.71432   0.58050   0.00000  Uiso   1.00
O1082  O     0.23871   0.73496   0.57654   0.00000  Uiso   1.00
O1083  O     0.18973   0.71138   0.62636   0.00000  Uiso   1.00
H1084  H     0.20637   0.72820   0.65323   0.00000  Uiso   1.00
C1085  C     0.12845   0.95277   0.41801   0.00000  Uiso   1.00
O1086  O     0.14477   0.95608   0.37878   0.00000  Uiso   1.00
O1087  O     0.09216   0.92848   0.42035   0.00000  Uiso   1.00
H1088  H     0.08273   0.91451   0.38748   0.00000  Uiso   1.00
O1089  O     0.43988   0.87291   0.50000   0.00000  Uiso   1.00
O1090  O     0.56012   0.79375   0.50000   0.00000  Uiso   1.00
O1091  O     0.56012   0.87291   0.50000   0.00000  Uiso   1.00
O1092  O     0.43988   0.79375   0.50000   0.00000  Uiso   1.00
C1093  C     0.42090   0.83362   0.50226   0.00000  Uiso   1.00
C1094  C     0.57910   0.83305   0.49773   0.00000  Uiso   1.00
O1095  O     0.50000   0.87292   0.42946   0.00000  Uiso   1.00
O1096  O     0.50000   0.79375   0.57054   0.00000  Uiso   1.00
O1097  O     0.50000   0.87292   0.57054   0.00000  Uiso   1.00
O1098  O     0.50000   0.79375   0.42946   0.00000  Uiso   1.00
C1099  C     0.49989   0.83341   0.40699   0.00000  Uiso   1.00
C1100  C     0.50010   0.83326   0.59301   0.00000  Uiso   1.00
Cu1101 Cu    0.50000   0.88022   0.50000   0.00000  Uiso   1.00
Cu1102 Cu    0.50000   0.78645   0.50000   0.00000  Uiso   1.00
C1103  C     0.49996   0.83345   0.35522   0.00000  Uiso   1.00
C1104  C     0.50003   0.83323   0.64478   0.00000  Uiso   1.00
C1105  C     0.35552   0.79188   0.51030   0.00000  Uiso   1.00
C1106  C     0.64449   0.87478   0.48960   0.00000  Uiso   1.00
C1107  C     0.64633   0.79063   0.50254   0.00000  Uiso   1.00
C1108  C     0.35368   0.87604   0.49744   0.00000  Uiso   1.00
C1109  C     0.62386   0.83253   0.49526   0.00000  Uiso   1.00
C1110  C     0.37615   0.83414   0.50470   0.00000  Uiso   1.00
C1111  C     0.47934   0.69191   0.46299   0.00000  Uiso   1.00
C1112  C     0.52033   0.97484   0.53732   0.00000  Uiso   1.00
C1113  C     0.52006   0.69086   0.53752   0.00000  Uiso   1.00
C1114  C     0.48031   0.97590   0.46219   0.00000  Uiso   1.00
N1115  N     0.50000   0.95069   0.50000   0.00000  Uiso   1.00
N1116  N     0.50000   0.71598   0.50000   0.00000  Uiso   1.00
N1117  N     0.37766   0.75067   0.52480   0.00000  Uiso   1.00
H1118  H     0.36817   0.72049   0.50788   0.00000  Uiso   1.00
C1119  C     0.38656   0.74581   0.57745   0.00000  Uiso   1.00
H1120  H     0.35787   0.74082   0.59655   0.00000  Uiso   1.00
H1121  H     0.40247   0.77694   0.59242   0.00000  Uiso   1.00
H1122  H     0.40695   0.71533   0.58491   0.00000  Uiso   1.00
N1123  N     0.62236   0.91594   0.47495   0.00000  Uiso   1.00
H1124  H     0.63180   0.94614   0.49187   0.00000  Uiso   1.00
C1125  C     0.61367   0.92077   0.42227   0.00000  Uiso   1.00
H1126  H     0.64244   0.92607   0.40337   0.00000  Uiso   1.00
H1127  H     0.59308   0.95108   0.41471   0.00000  Uiso   1.00
H1128  H     0.59806   0.88948   0.40717   0.00000  Uiso   1.00
N1129  N     0.62621   0.74711   0.50196   0.00000  Uiso   1.00
H1130  H     0.63696   0.72345   0.52831   0.00000  Uiso   1.00
C1131  C     0.61945   0.72709   0.45345   0.00000  Uiso   1.00
H1132  H     0.64902   0.71693   0.43843   0.00000  Uiso   1.00
H1133  H     0.60316   0.75211   0.42778   0.00000  Uiso   1.00
H1134  H     0.60025   0.69587   0.45610   0.00000  Uiso   1.00
N1135  N     0.37380   0.91957   0.49823   0.00000  Uiso   1.00
H1136  H     0.36311   0.94331   0.47195   0.00000  Uiso   1.00
C1137  C     0.38041   0.93944   0.54684   0.00000  Uiso   1.00
H1138  H     0.35078   0.94955   0.56175   0.00000  Uiso   1.00
H1139  H     0.39963   0.97065   0.54439   0.00000  Uiso   1.00
H1140  H     0.39661   0.91433   0.57249   0.00000  Uiso   1.00
C1141  C     0.45417   0.71656   0.42398   0.00000  Uiso   1.00
O1142  O     0.41976   0.72993   0.43203   0.00000  Uiso   1.00
O1143  O     0.46858   0.72112   0.37676   0.00000  Uiso   1.00
H1144  H     0.44823   0.73743   0.35282   0.00000  Uiso   1.00
C1145  C     0.54444   0.95030   0.57733   0.00000  Uiso   1.00
O1146  O     0.53077   0.94673   0.61814   0.00000  Uiso   1.00
O1147  O     0.58399   0.93474   0.56971   0.00000  Uiso   1.00
H1148  H     0.59770   0.91940   0.60014   0.00000  Uiso   1.00
C1149  C     0.54018   0.71432   0.58050   0.00000  Uiso   1.00
O1150  O     0.57205   0.73496   0.57654   0.00000  Uiso   1.00
O1151  O     0.52306   0.71138   0.62636   0.00000  Uiso   1.00
H1152  H     0.53970   0.72820   0.65323   0.00000  Uiso   1.00
C1153  C     0.46179   0.95277   0.41801   0.00000  Uiso   1.00
O1154  O     0.47811   0.95608   0.37878   0.00000  Uiso   1.00
O1155  O     0.42549   0.92848   0.42035   0.00000  Uiso   1.00
H1156  H     0.41606   0.91451   0.38748   0.00000  Uiso   1.00
O1157  O     0.77321   0.87291   0.50000   0.00000  Uiso   1.00
O1158  O     0.89345   0.79375   0.50000   0.00000  Uiso   1.00
O1159  O     0.89345   0.87291   0.50000   0.00000  Uiso   1.00
O1160  O     0.77321   0.79375   0.50000   0.00000  Uiso   1.00
C1161  C     0.75423   0.83362   0.50226   0.00000  Uiso   1.00
C1162  C     0.91243   0.83305   0.49773   0.00000  Uiso   1.00
O1163  O     0.83333   0.87292   0.42946   0.00000  Uiso   1.00
O1164  O     0.83333   0.79375   0.57054   0.00000  Uiso   1.00
O1165  O     0.83333   0.87292   0.57054   0.00000  Uiso   1.00
O1166  O     0.83333   0.79375   0.42946   0.00000  Uiso   1.00
C1167  C     0.83322   0.83341   0.40699   0.00000  Uiso   1.00
C1168  C     0.83344   0.83326   0.59301   0.00000  Uiso   1.00
Cu1169 Cu    0.83333   0.88022   0.50000   0.00000  Uiso   1.00
Cu1170 Cu    0.83333   0.78645   0.50000   0.00000  Uiso   1.00
C1171  C     0.83330   0.83345   0.35522   0.00000  Uiso   1.00
C1172  C     0.83336   0.83323   0.64478   0.00000  Uiso   1.00
C1173  C     0.68886   0.79188   0.51030   0.00000  Uiso   1.00
C1174  C     0.97783   0.87478   0.48960   0.00000  Uiso   1.00
C1175  C     0.97966   0.79063   0.50254   0.00000  Uiso   1.00
C1176  C     0.68701   0.87604   0.49744   0.00000  Uiso   1.00
C1177  C     0.95719   0.83253   0.49526   0.00000  Uiso   1.00
C1178  C     0.70948   0.83414   0.50470   0.00000  Uiso   1.00
C1179  C     0.81267   0.69191   0.46299   0.00000  Uiso   1.00
C1180  C     0.85366   0.97484   0.53732   0.00000  Uiso   1.00
C1181  C     0.85340   0.69086   0.53752   0.00000  Uiso   1.00
C1182  C     0.81364   0.97590   0.46219   0.00000  Uiso   1.00
N1183  N     0.83333   0.95069   0.50000   0.00000  Uiso   1.00
N1184  N     0.83333   0.71598   0.50000   0.00000  Uiso   1.00
N1185  N     0.71099   0.75067   0.52480   0.00000  Uiso   1.00
H1186  H     0.70150   0.72049   0.50788   0.00000  Uiso   1.00
C1187  C     0.71990   0.74581   0.57745   0.00000  Uiso   1.00
H1188  H     0.69121   0.74082   0.59655   0.00000  Uiso   1.00
H1189  H     0.73581   0.77694   0.59242   0.00000  Uiso   1.00
H1190  H     0.74028   0.71533   0.58491   0.00000  Uiso   1.00
N1191  N     0.95570   0.91594   0.47495   0.00000  Uiso   1.00
H1192  H     0.96513   0.94614   0.49187   0.00000  Uiso   1.00
C1193  C     0.94700   0.92077   0.42227   0.00000  Uiso   1.00
H1194  H     0.97577   0.92607   0.40337   0.00000  Uiso   1.00
H1195  H     0.92641   0.95108   0.41471   0.00000  Uiso   1.00
H1196  H     0.93140   0.88948   0.40717   0.00000  Uiso   1.00
N1197  N     0.95954   0.74711   0.50196   0.00000  Uiso   1.00
H1198  H     0.97029   0.72345   0.52831   0.00000  Uiso   1.00
C1199  C     0.95278   0.72709   0.45345   0.00000  Uiso   1.00
H1200  H     0.98236   0.71693   0.43843   0.00000  Uiso   1.00
H1201  H     0.93649   0.75211   0.42778   0.00000  Uiso   1.00
H1202  H     0.93359   0.69587   0.45610   0.00000  Uiso   1.00
N1203  N     0.70713   0.91957   0.49823   0.00000  Uiso   1.00
H1204  H     0.69644   0.94331   0.47195   0.00000  Uiso   1.00
C1205  C     0.71374   0.93944   0.54684   0.00000  Uiso   1.00
H1206  H     0.68411   0.94955   0.56175   0.00000  Uiso   1.00
H1207  H     0.73296   0.97065   0.54439   0.00000  Uiso   1.00
H1208  H     0.72994   0.91433   0.57249   0.00000  Uiso   1.00
C1209  C     0.78750   0.71656   0.42398   0.00000  Uiso   1.00
O1210  O     0.75309   0.72993   0.43203   0.00000  Uiso   1.00
O1211  O     0.80192   0.72112   0.37676   0.00000  Uiso   1.00
H1212  H     0.78156   0.73743   0.35282   0.00000  Uiso   1.00
C1213  C     0.87778   0.95030   0.57733   0.00000  Uiso   1.00
O1214  O     0.86411   0.94673   0.61814   0.00000  Uiso   1.00
O1215  O     0.91733   0.93474   0.56971   0.00000  Uiso   1.00
H1216  H     0.93103   0.91940   0.60014   0.00000  Uiso   1.00
C1217  C     0.87352   0.71432   0.58050   0.00000  Uiso   1.00
O1218  O     0.90538   0.73496   0.57654   0.00000  Uiso   1.00
O1219  O     0.85639   0.71138   0.62636   0.00000  Uiso   1.00
H1220  H     0.87304   0.72820   0.65323   0.00000  Uiso   1.00
C1221  C     0.79512   0.95277   0.41801   0.00000  Uiso   1.00
O1222  O     0.81144   0.95608   0.37878   0.00000  Uiso   1.00
O1223  O     0.75883   0.92848   0.42035   0.00000  Uiso   1.00
H1224  H     0.74939   0.91451   0.38748   0.00000  Uiso   1.00
O1225  O     0.10655   0.20625   0.83333   0.00000  Uiso   1.00
O1226  O     0.22679   0.12709   0.83334   0.00000  Uiso   1.00
O1227  O     0.22679   0.20625   0.83334   0.00000  Uiso   1.00
O1228  O     0.10655   0.12709   0.83333   0.00000  Uiso   1.00
C1229  C     0.08757   0.16695   0.83559   0.00000  Uiso   1.00
C1230  C     0.24577   0.16638   0.83106   0.00000  Uiso   1.00
O1231  O     0.16667   0.20625   0.76280   0.00000  Uiso   1.00
O1232  O     0.16667   0.12708   0.90387   0.00000  Uiso   1.00
O1233  O     0.16667   0.20625   0.90387   0.00000  Uiso   1.00
O1234  O     0.16667   0.12708   0.76280   0.00000  Uiso   1.00
C1235  C     0.16656   0.16675   0.74032   0.00000  Uiso   1.00
C1236  C     0.16677   0.16659   0.92634   0.00000  Uiso   1.00
Cu1237 Cu    0.16667   0.21355   0.83333   0.00000  Uiso   1.00
Cu1238 Cu    0.16667   0.11978   0.83333   0.00000  Uiso   1.00
C1239  C     0.16663   0.16679   0.68856   0.00000  Uiso   1.00
C1240  C     0.16670   0.16656   0.97811   0.00000  Uiso   1.00
C1241  C     0.02219   0.12521   0.84363   0.00000  Uiso   1.00
C1242  C     0.31116   0.20811   0.82293   0.00000  Uiso   1.00
C1243  C     0.31300   0.12397   0.83588   0.00000  Uiso   1.00
C1244  C     0.02035   0.20937   0.83077   0.00000  Uiso   1.00
C1245  C     0.29053   0.16586   0.82859   0.00000  Uiso   1.00
C1246  C     0.04281   0.16747   0.83803   0.00000  Uiso   1.00
C1247  C     0.14600   0.02524   0.79632   0.00000  Uiso   1.00
C1248  C     0.18699   0.30817   0.87065   0.00000  Uiso   1.00
C1249  C     0.18673   0.02420   0.87085   0.00000  Uiso   1.00
C1250  C     0.14697   0.30923   0.79552   0.00000  Uiso   1.00
N1251  N     0.16667   0.28402   0.83333   0.00000  Uiso   1.00
N1252  N     0.16667   0.04931   0.83333   0.00000  Uiso   1.00
N1253  N     0.04433   0.08401   0.85813   0.00000  Uiso   1.00
H1254  H     0.03483   0.05383   0.84121   0.00000  Uiso   1.00
C1255  C     0.05323   0.07915   0.91078   0.00000  Uiso   1.00
H1256  H     0.02454   0.07416   0.92988   0.00000  Uiso   1.00
H1257  H     0.06914   0.11027   0.92576   0.00000  Uiso   1.00
H1258  H     0.07361   0.04867   0.91824   0.00000  Uiso   1.00
N1259  N     0.28903   0.24928   0.80828   0.00000  Uiso   1.00
H1260  H     0.29846   0.27948   0.82520   0.00000  Uiso   1.00
C1261  C     0.28034   0.25410   0.75560   0.00000  Uiso   1.00
H1262  H     0.30911   0.25941   0.73670   0.00000  Uiso   1.00
H1263  H     0.25975   0.28441   0.74804   0.00000  Uiso   1.00
H1264  H     0.26473   0.22282   0.74050   0.00000  Uiso   1.00
N1265  N     0.29288   0.08044   0.83530   0.00000  Uiso   1.00
H1266  H     0.30362   0.05679   0.86164   0.00000  Uiso   1.00
C1267  C     0.28612   0.06042   0.78678   0.00000  Uiso   1.00
H1268  H     0.31569   0.05026   0.77176   0.00000  Uiso   1.00
H1269  H     0.26983   0.08544   0.76111   0.00000  Uiso   1.00
H1270  H     0.26692   0.02921   0.78943   0.00000  Uiso   1.00
N1271  N     0.04046   0.25290   0.83157   0.00000  Uiso   1.00
H1272  H     0.02977   0.27665   0.80529   0.00000  Uiso   1.00
C1273  C     0.04707   0.27277   0.88017   0.00000  Uiso   1.00
H1274  H     0.01744   0.28288   0.89509   0.00000  Uiso   1.00
H1275  H     0.06630   0.30398   0.87772   0.00000  Uiso   1.00
H1276  H     0.06328   0.24766   0.90582   0.00000  Uiso   1.00
C1277  C     0.12083   0.04990   0.75731   0.00000  Uiso   1.00
O1278  O     0.08643   0.06326   0.76536   0.00000  Uiso   1.00
O1279  O     0.13525   0.05445   0.71009   0.00000  Uiso   1.00
H1280  H     0.11489   0.07076   0.68615   0.00000  Uiso   1.00
C1281  C     0.21111   0.28363   0.91067   0.00000  Uiso   1.00
O1282  O     0.19744   0.28007   0.95147   0.00000  Uiso   1.00
O1283  O     0.25066   0.26807   0.90304   0.00000  Uiso   1.00
H1284  H     0.26437   0.25273   0.93347   0.00000  Uiso   1.00
C1285  C     0.20685   0.04765   0.91383   0.00000  Uiso   1.00
O1286  O     0.23871   0.06829   0.90987   0.00000  Uiso   1.00
O1287  O     0.18973   0.04472   0.95970   0.00000  Uiso   1.00
H1288  H     0.20637   0.06154   0.98657   0.00000  Uiso   1.00
C1289  C     0.12845   0.28611   0.75134   0.00000  Uiso   1.00
O1290  O     0.14477   0.28942   0.71211   0.00000  Uiso   1.00
O1291  O     0.09216   0.26181   0.75369   0.00000  Uiso   1.00
H1292  H     0.08273   0.24784   0.72082   0.00000  Uiso   1.00
O1293  O     0.43988   0.20625   0.83333   0.00000  Uiso   1.00
O1294  O     0.56012   0.12709   0.83334   0.00000  Uiso   1.00
O1295  O     0.56012   0.20625   0.83334   0.00000  Uiso   1.00
O1296  O     0.43988   0.12709   0.83333   0.00000  Uiso   1.00
C1297  C     0.42090   0.16695   0.83559   0.00000  Uiso   1.00
C1298  C     0.57910   0.16638   0.83106   0.00000  Uiso   1.00
O1299  O     0.50000   0.20625   0.76280   0.00000  Uiso   1.00
O1300  O     0.50000   0.12708   0.90387   0.00000  Uiso   1.00
O1301  O     0.50000   0.20625   0.90387   0.00000  Uiso   1.00
O1302  O     0.50000   0.12708   0.76280   0.00000  Uiso   1.00
C1303  C     0.49989   0.16675   0.74032   0.00000  Uiso   1.00
C1304  C     0.50010   0.16659   0.92634   0.00000  Uiso   1.00
Cu1305 Cu    0.50000   0.21355   0.83333   0.00000  Uiso   1.00
Cu1306 Cu    0.50000   0.11978   0.83333   0.00000  Uiso   1.00
C1307  C     0.49996   0.16679   0.68856   0.00000  Uiso   1.00
C1308  C     0.50003   0.16656   0.97811   0.00000  Uiso   1.00
C1309  C     0.35552   0.12521   0.84363   0.00000  Uiso   1.00
C1310  C     0.64449   0.20811   0.82293   0.00000  Uiso   1.00
C1311  C     0.64633   0.12397   0.83588   0.00000  Uiso   1.00
C1312  C     0.35368   0.20937   0.83077   0.00000  Uiso   1.00
C1313  C     0.62386   0.16586   0.82859   0.00000  Uiso   1.00
C1314  C     0.37615   0.16747   0.83803   0.00000  Uiso   1.00
C1315  C     0.47934   0.02524   0.79632   0.00000  Uiso   1.00
C1316  C     0.52033   0.30817   0.87065   0.00000  Uiso   1.00
C1317  C     0.52006   0.02420   0.87085   0.00000  Uiso   1.00
C1318  C     0.48031   0.30923   0.79552   0.00000  Uiso   1.00
N1319  N     0.50000   0.28402   0.83333   0.00000  Uiso   1.00
N1320  N     0.50000   0.04931   0.83333   0.00000  Uiso   1.00
N1321  N     0.37766   0.08401   0.85813   0.00000  Uiso   1.00
H1322  H     0.36817   0.05383   0.84121   0.00000  Uiso   1.00
C1323  C     0.38656   0.07915   0.91078   0.00000  Uiso   1.00
H1324  H     0.35787   0.07416   0.92988   0.00000  Uiso   1.00
H1325  H     0.40247   0.11027   0.92576   0.00000  Uiso   1.00
H1326  H     0.40695   0.04867   0.91824   0.00000  Uiso   1.00
N1327  N     0.62236   0.24928   0.80828   0.00000  Uiso   1.00
H1328  H     0.63180   0.27948   0.82520   0.00000  Uiso   1.00
C1329  C     0.61367   0.25410   0.75560   0.00000  Uiso   1.00
H1330  H     0.64244   0.25941   0.73670   0.00000  Uiso   1.00
H1331  H     0.59308   0.28441   0.74804   0.00000  Uiso   1.00
H1332  H     0.59806   0.22282   0.74050   0.00000  Uiso   1.00
N1333  N     0.62621   0.08044   0.83530   0.00000  Uiso   1.00
H1334  H     0.63696   0.05679   0.86164   0.00000  Uiso   1.00
C1335  C     0.61945   0.06042   0.78678   0.00000  Uiso   1.00
H1336  H     0.64902   0.05026   0.77176   0.00000  Uiso   1.00
H1337  H     0.60316   0.08544   0.76111   0.00000  Uiso   1.00
H1338  H     0.60025   0.02921   0.78943   0.00000  Uiso   1.00
N1339  N     0.37380   0.25290   0.83157   0.00000  Uiso   1.00
H1340  H     0.36311   0.27665   0.80529   0.00000  Uiso   1.00
C1341  C     0.38041   0.27277   0.88017   0.00000  Uiso   1.00
H1342  H     0.35078   0.28288   0.89509   0.00000  Uiso   1.00
H1343  H     0.39963   0.30398   0.87772   0.00000  Uiso   1.00
H1344  H     0.39661   0.24766   0.90582   0.00000  Uiso   1.00
C1345  C     0.45417   0.04990   0.75731   0.00000  Uiso   1.00
O1346  O     0.41976   0.06326   0.76536   0.00000  Uiso   1.00
O1347  O     0.46858   0.05445   0.71009   0.00000  Uiso   1.00
H1348  H     0.44823   0.07076   0.68615   0.00000  Uiso   1.00
C1349  C     0.54444   0.28363   0.91067   0.00000  Uiso   1.00
O1350  O     0.53077   0.28007   0.95147   0.00000  Uiso   1.00
O1351  O     0.58399   0.26807   0.90304   0.00000  Uiso   1.00
H1352  H     0.59770   0.25273   0.93347   0.00000  Uiso   1.00
C1353  C     0.54018   0.04765   0.91383   0.00000  Uiso   1.00
O1354  O     0.57205   0.06829   0.90987   0.00000  Uiso   1.00
O1355  O     0.52306   0.04472   0.95970   0.00000  Uiso   1.00
H1356  H     0.53970   0.06154   0.98657   0.00000  Uiso   1.00
C1357  C     0.46179   0.28611   0.75134   0.00000  Uiso   1.00
O1358  O     0.47811   0.28942   0.71211   0.00000  Uiso   1.00
O1359  O     0.42549   0.26181   0.75369   0.00000  Uiso   1.00
H1360  H     0.41606   0.24784   0.72082   0.00000  Uiso   1.00
O1361  O     0.77321   0.20625   0.83333   0.00000  Uiso   1.00
O1362  O     0.89345   0.12709   0.83334   0.00000  Uiso   1.00
O1363  O     0.89345   0.20625   0.83334   0.00000  Uiso   1.00
O1364  O     0.77321   0.12709   0.83333   0.00000  Uiso   1.00
C1365  C     0.75423   0.16695   0.83559   0.00000  Uiso   1.00
C1366  C     0.91243   0.16638   0.83106   0.00000  Uiso   1.00
O1367  O     0.83333   0.20625   0.76280   0.00000  Uiso   1.00
O1368  O     0.83333   0.12708   0.90387   0.00000  Uiso   1.00
O1369  O     0.83333   0.20625   0.90387   0.00000  Uiso   1.00
O1370  O     0.83333   0.12708   0.76280   0.00000  Uiso   1.00
C1371  C     0.83322   0.16675   0.74032   0.00000  Uiso   1.00
C1372  C     0.83344   0.16659   0.92634   0.00000  Uiso   1.00
Cu1373 Cu    0.83333   0.21355   0.83333   0.00000  Uiso   1.00
Cu1374 Cu    0.83333   0.11978   0.83333   0.00000  Uiso   1.00
C1375  C     0.83330   0.16679   0.68856   0.00000  Uiso   1.00
C1376  C     0.83336   0.16656   0.97811   0.00000  Uiso   1.00
C1377  C     0.68886   0.12521   0.84363   0.00000  Uiso   1.00
C1378  C     0.97783   0.20811   0.82293   0.00000  Uiso   1.00
C1379  C     0.97966   0.12397   0.83588   0.00000  Uiso   1.00
C1380  C     0.68701   0.20937   0.83077   0.00000  Uiso   1.00
C1381  C     0.95719   0.16586   0.82859   0.00000  Uiso   1.00
C1382  C     0.70948   0.16747   0.83803   0.00000  Uiso   1.00
C1383  C     0.81267   0.02524   0.79632   0.00000  Uiso   1.00
C1384  C     0.85366   0.30817   0.87065   0.00000  Uiso   1.00
C1385  C     0.85340   0.02420   0.87085   0.00000  Uiso   1.00
C1386  C     0.81364   0.30923   0.79552   0.00000  Uiso   1.00
N1387  N     0.83333   0.28402   0.83333   0.00000  Uiso   1.00
N1388  N     0.83333   0.04931   0.83333   0.00000  Uiso   1.00
N1389  N     0.71099   0.08401   0.85813   0.00000  Uiso   1.00
H1390  H     0.70150   0.05383   0.84121   0.00000  Uiso   1.00
C1391  C     0.71990   0.07915   0.91078   0.00000  Uiso   1.00
H1392  H     0.69121   0.07416   0.92988   0.00000  Uiso   1.00
H1393  H     0.73581   0.11027   0.92576   0.00000  Uiso   1.00
H1394  H     0.74028   0.04867   0.91824   0.00000  Uiso   1.00
N1395  N     0.95570   0.24928   0.80828   0.00000  Uiso   1.00
H1396  H     0.96513   0.27948   0.82520   0.00000  Uiso   1.00
C1397  C     0.94700   0.25410   0.75560   0.00000  Uiso   1.00
H1398  H     0.97577   0.25941   0.73670   0.00000  Uiso   1.00
H1399  H     0.92641   0.28441   0.74804   0.00000  Uiso   1.00
H1400  H     0.93140   0.22282   0.74050   0.00000  Uiso   1.00
N1401  N     0.95954   0.08044   0.83530   0.00000  Uiso   1.00
H1402  H     0.97029   0.05679   0.86164   0.00000  Uiso   1.00
C1403  C     0.95278   0.06042   0.78678   0.00000  Uiso   1.00
H1404  H     0.98236   0.05026   0.77176   0.00000  Uiso   1.00
H1405  H     0.93649   0.08544   0.76111   0.00000  Uiso   1.00
H1406  H     0.93359   0.02921   0.78943   0.00000  Uiso   1.00
N1407  N     0.70713   0.25290   0.83157   0.00000  Uiso   1.00
H1408  H     0.69644   0.27665   0.80529   0.00000  Uiso   1.00
C1409  C     0.71374   0.27277   0.88017   0.00000  Uiso   1.00
H1410  H     0.68411   0.28288   0.89509   0.00000  Uiso   1.00
H1411  H     0.73296   0.30398   0.87772   0.00000  Uiso   1.00
H1412  H     0.72994   0.24766   0.90582   0.00000  Uiso   1.00
C1413  C     0.78750   0.04990   0.75731   0.00000  Uiso   1.00
O1414  O     0.75309   0.06326   0.76536   0.00000  Uiso   1.00
O1415  O     0.80192   0.05445   0.71009   0.00000  Uiso   1.00
H1416  H     0.78156   0.07076   0.68615   0.00000  Uiso   1.00
C1417  C     0.87778   0.28363   0.91067   0.00000  Uiso   1.00
O1418  O     0.86411   0.28007   0.95147   0.00000  Uiso   1.00
O1419  O     0.91733   0.26807   0.90304   0.00000  Uiso   1.00
H1420  H     0.93103   0.25273   0.93347   0.00000  Uiso   1.00
C1421  C     0.87352   0.04765   0.91383   0.00000  Uiso   1.00
O1422  O     0.90538   0.06829   0.90987   0.00000  Uiso   1.00
O1423  O     0.85639   0.04472   0.95970   0.00000  Uiso   1.00
H1424  H     0.87304   0.06154   0.98657   0.00000  Uiso   1.00
C1425  C     0.79512   0.28611   0.75134   0.00000  Uiso   1.00
O1426  O     0.81144   0.28942   0.71211   0.00000  Uiso   1.00
O1427  O     0.75883   0.26181   0.75369   0.00000  Uiso   1.00
H1428  H     0.74939   0.24784   0.72082   0.00000  Uiso   1.00
O1429  O     0.10655   0.53958   0.83333   0.00000  Uiso   1.00
O1430  O     0.22679   0.46042   0.83334   0.00000  Uiso   1.00
O1431  O     0.22679   0.53958   0.83334   0.00000  Uiso   1.00
O1432  O     0.10655   0.46042   0.83333   0.00000  Uiso   1.00
C1433  C     0.08757   0.50029   0.83559   0.00000  Uiso   1.00
C1434  C     0.24577   0.49971   0.83106   0.00000  Uiso   1.00
O1435  O     0.16667   0.53959   0.76280   0.00000  Uiso   1.00
O1436  O     0.16667   0.46041   0.90387   0.00000  Uiso   1.00
O1437  O     0.16667   0.53959   0.90387   0.00000  Uiso   1.00
O1438  O     0.16667   0.46041   0.76280   0.00000  Uiso   1.00
C1439  C     0.16656   0.50008   0.74032   0.00000  Uiso   1.00
C1440  C     0.16677   0.49992   0.92634   0.00000  Uiso   1.00
Cu1441 Cu    0.16667   0.54689   0.83333   0.00000  Uiso   1.00
Cu1442 Cu    0.16667   0.45311   0.83333   0.00000  Uiso   1.00
C1443  C     0.16663   0.50012   0.68856   0.00000  Uiso   1.00
C1444  C     0.16670   0.49990   0.97811   0.00000  Uiso   1.00
C1445  C     0.02219   0.45854   0.84363   0.00000  Uiso   1.00
C1446  C     0.31116   0.54145   0.82293   0.00000  Uiso   1.00
C1447  C     0.31300   0.45730   0.83588   0.00000  Uiso   1.00
C1448  C     0.02035   0.54270   0.83077   0.00000  Uiso   1.00
C1449  C     0.29053   0.49919   0.82859   0.00000  Uiso   1.00
C1450  C     0.04281   0.50080   0.83803   0.00000  Uiso   1.00
C1451  C     0.14600   0.35857   0.79632   0.00000  Uiso   1.00
C1452  C     0.18699   0.64151   0.87065   0.00000  Uiso   1.00
C1453  C     0.18673   0.35753   0.87085   0.00000  Uiso   1.00
C1454  C     0.14697   0.64257   0.79552   0.00000  Uiso   1.00
N1455  N     0.16667   0.61736   0.83333   0.00000  Uiso   1.00
N1456  N     0.16667   0.38264   0.83333   0.00000  Uiso   1.00
N1457  N     0.04433   0.41734   0.85813   0.00000  Uiso   1.00
H1458  H     0.03483   0.38716   0.84121   0.00000  Uiso   1.00
C1459  C     0.05323   0.41248   0.91078   0.00000  Uiso   1.00
H1460  H     0.02454   0.40749   0.92988   0.00000  Uiso   1.00
H1461  H     0.06914   0.44361   0.92576   0.00000  Uiso   1.00
H1462  H     0.07361   0.38200   0.91824   0.00000  Uiso   1.00
N1463  N     0.28903   0.58261   0.80828   0.00000  Uiso   1.00
H1464  H     0.29846   0.61281   0.82520   0.00000  Uiso   1.00
C1465  C     0.28034   0.58744   0.75560   0.00000  Uiso   1.00
H1466  H     0.30911   0.59274   0.73670   0.00000  Uiso   1.00
H1467  H     0.25975   0.61775   0.74804   0.00000  Uiso   1.00
H1468  H     0.26473   0.55615   0.74050   0.00000  Uiso   1.00
N1469  N     0.29288   0.41378   0.83530   0.00000  Uiso   1.00
H1470  H     0.30362   0.39012   0.86164   0.00000  Uiso   1.00
C1471  C     0.28612   0.39375   0.78678   0.00000  Uiso   1.00
H1472  H     0.31569   0.38360   0.77176   0.00000  Uiso   1.00
H1473  H     0.26983   0.41877   0.76111   0.00000  Uiso   1.00
H1474  H     0.26692   0.36254   0.78943   0.00000  Uiso   1.00
N1475  N     0.04046   0.58624   0.83157   0.00000  Uiso   1.00
H1476  H     0.02977   0.60998   0.80529   0.00000  Uiso   1.00
C1477  C     0.04707   0.60610   0.88017   0.00000  Uiso   1.00
H1478  H     0.01744   0.61622   0.89509   0.00000  Uiso   1.00
H1479  H     0.06630   0.63732   0.87772   0.00000  Uiso   1.00
H1480  H     0.06328   0.58099   0.90582   0.00000  Uiso   1.00
C1481  C     0.12083   0.38323   0.75731   0.00000  Uiso   1.00
O1482  O     0.08643   0.39660   0.76536   0.00000  Uiso   1.00
O1483  O     0.13525   0.38779   0.71009   0.00000  Uiso   1.00
H1484  H     0.11489   0.40410   0.68615   0.00000  Uiso   1.00
C1485  C     0.21111   0.61697   0.91067   0.00000  Uiso   1.00
O1486  O     0.19744   0.61340   0.95147   0.00000  Uiso   1.00
O1487  O     0.25066   0.60141   0.90304   0.00000  Uiso   1.00
H1488  H     0.26437   0.58606   0.93347   0.00000  Uiso   1.00
C1489  C     0.20685   0.38099   0.91383   0.00000  Uiso   1.00
O1490  O     0.23871   0.40162   0.90987   0.00000  Uiso   1.00
O1491  O     0.18973   0.37805   0.95970   0.00000  Uiso   1.00
H1492  H     0.20637   0.39487   0.98657   0.00000  Uiso   1.00
C1493  C     0.12845   0.61944   0.75134   0.00000  Uiso   1.00
O1494  O     0.14477   0.62275   0.71211   0.00000  Uiso   1.00
O1495  O     0.09216   0.59514   0.75369   0.00000  Uiso   1.00
H1496  H     0.08273   0.58118   0.72082   0.00000  Uiso   1.00
O1497  O     0.43988   0.53958   0.83333   0.00000  Uiso   1.00
O1498  O     0.56012   0.46042   0.83334   0.00000  Uiso   1.00
O1499  O     0.56012   0.53958   0.83334   0.00000  Uiso   1.00
O1500  O     0.43988   0.46042   0.83333   0.00000  Uiso   1.00
C1501  C     0.42090   0.50029   0.83559   0.00000  Uiso   1.00
C1502  C     0.57910   0.49971   0.83106   0.00000  Uiso   1.00
O1503  O     0.50000   0.53959   0.76280   0.00000  Uiso   1.00
O1504  O     0.50000   0.46041   0.90387   0.00000  Uiso   1.00
O1505  O     0.50000   0.53959   0.90387   0.00000  Uiso   1.00
O1506  O     0.50000   0.46041   0.76280   0.00000  Uiso   1.00
C1507  C     0.49989   0.50008   0.74032   0.00000  Uiso   1.00
C1508  C     0.50010   0.49992   0.92634   0.00000  Uiso   1.00
Cu1509 Cu    0.50000   0.54689   0.83333   0.00000  Uiso   1.00
Cu1510 Cu    0.50000   0.45311   0.83333   0.00000  Uiso   1.00
C1511  C     0.49996   0.50012   0.68856   0.00000  Uiso   1.00
C1512  C     0.50003   0.49990   0.97811   0.00000  Uiso   1.00
C1513  C     0.35552   0.45854   0.84363   0.00000  Uiso   1.00
C1514  C     0.64449   0.54145   0.82293   0.00000  Uiso   1.00
C1515  C     0.64633   0.45730   0.83588   0.00000  Uiso   1.00
C1516  C     0.35368   0.54270   0.83077   0.00000  Uiso   1.00
C1517  C     0.62386   0.49919   0.82859   0.00000  Uiso   1.00
C1518  C     0.37615   0.50080   0.83803   0.00000  Uiso   1.00
C1519  C     0.47934   0.35857   0.79632   0.00000  Uiso   1.00
C1520  C     0.52033   0.64151   0.87065   0.00000  Uiso   1.00
C1521  C     0.52006   0.35753   0.87085   0.00000  Uiso   1.00
C1522  C     0.48031   0.64257   0.79552   0.00000  Uiso   1.00
N1523  N     0.50000   0.61736   0.83333   0.00000  Uiso   1.00
N1524  N     0.50000   0.38264   0.83333   0.00000  Uiso   1.00
N1525  N     0.37766   0.41734   0.85813   0.00000  Uiso   1.00
H1526  H     0.36817   0.38716   0.84121   0.00000  Uiso   1.00
C1527  C     0.38656   0.41248   0.91078   0.00000  Uiso   1.00
H1528  H     0.35787   0.40749   0.92988   0.00000  Uiso   1.00
H1529  H     0.40247   0.44361   0.92576   0.00000  Uiso   1.00
H1530  H     0.40695   0.38200   0.91824   0.00000  Uiso   1.00
N1531  N     0.62236   0.58261   0.80828   0.00000  Uiso   1.00
H1532  H     0.63180   0.61281   0.82520   0.00000  Uiso   1.00
C1533  C     0.61367   0.58744   0.75560   0.00000  Uiso   1.00
H1534  H     0.64244   0.59274   0.73670   0.00000  Uiso   1.00
H1535  H     0.59308   0.61775   0.74804   0.00000  Uiso   1.00
H1536  H     0.59806   0.55615   0.74050   0.00000  Uiso   1.00
N1537  N     0.62621   0.41378   0.83530   0.00000  Uiso   1.00
H1538  H     0.63696   0.39012   0.86164   0.00000  Uiso   1.00
C1539  C     0.61945   0.39375   0.78678   0.00000  Uiso   1.00
H1540  H     0.64902   0.38360   0.77176   0.00000  Uiso   1.00
H1541  H     0.60316   0.41877   0.76111   0.00000  Uiso   1.00
H1542  H     0.60025   0.36254   0.78943   0.00000  Uiso   1.00
N1543  N     0.37380   0.58624   0.83157   0.00000  Uiso   1.00
H1544  H     0.36311   0.60998   0.80529   0.00000  Uiso   1.00
C1545  C     0.38041   0.60610   0.88017   0.00000  Uiso   1.00
H1546  H     0.35078   0.61622   0.89509   0.00000  Uiso   1.00
H1547  H     0.39963   0.63732   0.87772   0.00000  Uiso   1.00
H1548  H     0.39661   0.58099   0.90582   0.00000  Uiso   1.00
C1549  C     0.45417   0.38323   0.75731   0.00000  Uiso   1.00
O1550  O     0.41976   0.39660   0.76536   0.00000  Uiso   1.00
O1551  O     0.46858   0.38779   0.71009   0.00000  Uiso   1.00
H1552  H     0.44823   0.40410   0.68615   0.00000  Uiso   1.00
C1553  C     0.54444   0.61697   0.91067   0.00000  Uiso   1.00
O1554  O     0.53077   0.61340   0.95147   0.00000  Uiso   1.00
O1555  O     0.58399   0.60141   0.90304   0.00000  Uiso   1.00
H1556  H     0.59770   0.58606   0.93347   0.00000  Uiso   1.00
C1557  C     0.54018   0.38099   0.91383   0.00000  Uiso   1.00
O1558  O     0.57205   0.40162   0.90987   0.00000  Uiso   1.00
O1559  O     0.52306   0.37805   0.95970   0.00000  Uiso   1.00
H1560  H     0.53970   0.39487   0.98657   0.00000  Uiso   1.00
C1561  C     0.46179   0.61944   0.75134   0.00000  Uiso   1.00
O1562  O     0.47811   0.62275   0.71211   0.00000  Uiso   1.00
O1563  O     0.42549   0.59514   0.75369   0.00000  Uiso   1.00
H1564  H     0.41606   0.58118   0.72082   0.00000  Uiso   1.00
O1565  O     0.77321   0.53958   0.83333   0.00000  Uiso   1.00
O1566  O     0.89345   0.46042   0.83334   0.00000  Uiso   1.00
O1567  O     0.89345   0.53958   0.83334   0.00000  Uiso   1.00
O1568  O     0.77321   0.46042   0.83333   0.00000  Uiso   1.00
C1569  C     0.75423   0.50029   0.83559   0.00000  Uiso   1.00
C1570  C     0.91243   0.49971   0.83106   0.00000  Uiso   1.00
O1571  O     0.83333   0.53959   0.76280   0.00000  Uiso   1.00
O1572  O     0.83333   0.46041   0.90387   0.00000  Uiso   1.00
O1573  O     0.83333   0.53959   0.90387   0.00000  Uiso   1.00
O1574  O     0.83333   0.46041   0.76280   0.00000  Uiso   1.00
C1575  C     0.83322   0.50008   0.74032   0.00000  Uiso   1.00
C1576  C     0.83344   0.49992   0.92634   0.00000  Uiso   1.00
Cu1577 Cu    0.83333   0.54689   0.83333   0.00000  Uiso   1.00
Cu1578 Cu    0.83333   0.45311   0.83333   0.00000  Uiso   1.00
C1579  C     0.83330   0.50012   0.68856   0.00000  Uiso   1.00
C1580  C     0.83336   0.49990   0.97811   0.00000  Uiso   1.00
C1581  C     0.68886   0.45854   0.84363   0.00000  Uiso   1.00
C1582  C     0.97783   0.54145   0.82293   0.00000  Uiso   1.00
C1583  C     0.97966   0.45730   0.83588   0.00000  Uiso   1.00
C1584  C     0.68701   0.54270   0.83077   0.00000  Uiso   1.00
C1585  C     0.95719   0.49919   0.82859   0.00000  Uiso   1.00
C1586  C     0.70948   0.50080   0.83803   0.00000  Uiso   1.00
C1587  C     0.81267   0.35857   0.79632   0.00000  Uiso   1.00
C1588  C     0.85366   0.64151   0.87065   0.00000  Uiso   1.00
C1589  C     0.85340   0.35753   0.87085   0.00000  Uiso   1.00
C1590  C     0.81364   0.64257   0.79552   0.00000  Uiso   1.00
N1591  N     0.83333   0.61736   0.83333   0.00000  Uiso   1.00
N1592  N     0.83333   0.38264   0.83333   0.00000  Uiso   1.00
N1593  N     0.71099   0.41734   0.85813   0.00000  Uiso   1.00
H1594  H     0.70150   0.38716   0.84121   0.00000  Uiso   1.00
C1595  C     0.71990   0.41248   0.91078   0.00000  Uiso   1.00
H1596  H     0.69121   0.40749   0.92988   0.00000  Uiso   1.00
H1597  H     0.73581   0.44361   0.92576   0.00000  Uiso   1.00
H1598  H     0.74028   0.38200   0.91824   0.00000  Uiso   1.00
N1599  N     0.95570   0.58261   0.80828   0.00000  Uiso   1.00
H1600  H     0.96513   0.61281   0.82520   0.00000  Uiso   1.00
C1601  C     0.94700   0.58744   0.75560   0.00000  Uiso   1.00
H1602  H     0.97577   0.59274   0.73670   0.00000  Uiso   1.00
H1603  H     0.92641   0.61775   0.74804   0.00000  Uiso   1.00
H1604  H     0.93140   0.55615   0.74050   0.00000  Uiso   1.00
N1605  N     0.95954   0.41378   0.83530   0.00000  Uiso   1.00
H1606  H     0.97029   0.39012   0.86164   0.00000  Uiso   1.00
C1607  C     0.95278   0.39375   0.78678   0.00000  Uiso   1.00
H1608  H     0.98236   0.38360   0.77176   0.00000  Uiso   1.00
H1609  H     0.93649   0.41877   0.76111   0.00000  Uiso   1.00
H1610  H     0.93359   0.36254   0.78943   0.00000  Uiso   1.00
N1611  N     0.70713   0.58624   0.83157   0.00000  Uiso   1.00
H1612  H     0.69644   0.60998   0.80529   0.00000  Uiso   1.00
C1613  C     0.71374   0.60610   0.88017   0.00000  Uiso   1.00
H1614  H     0.68411   0.61622   0.89509   0.00000  Uiso   1.00
H1615  H     0.73296   0.63732   0.87772   0.00000  Uiso   1.00
H1616  H     0.72994   0.58099   0.90582   0.00000  Uiso   1.00
C1617  C     0.78750   0.38323   0.75731   0.00000  Uiso   1.00
O1618  O     0.75309   0.39660   0.76536   0.00000  Uiso   1.00
O1619  O     0.80192   0.38779   0.71009   0.00000  Uiso   1.00
H1620  H     0.78156   0.40410   0.68615   0.00000  Uiso   1.00
C1621  C     0.87778   0.61697   0.91067   0.00000  Uiso   1.00
O1622  O     0.86411   0.61340   0.95147   0.00000  Uiso   1.00
O1623  O     0.91733   0.60141   0.90304   0.00000  Uiso   1.00
H1624  H     0.93103   0.58606   0.93347   0.00000  Uiso   1.00
C1625  C     0.87352   0.38099   0.91383   0.00000  Uiso   1.00
O1626  O     0.90538   0.40162   0.90987   0.00000  Uiso   1.00
O1627  O     0.85639   0.37805   0.95970   0.00000  Uiso   1.00
H1628  H     0.87304   0.39487   0.98657   0.00000  Uiso   1.00
C1629  C     0.79512   0.61944   0.75134   0.00000  Uiso   1.00
O1630  O     0.81144   0.62275   0.71211   0.00000  Uiso   1.00
O1631  O     0.75883   0.59514   0.75369   0.00000  Uiso   1.00
H1632  H     0.74939   0.58118   0.72082   0.00000  Uiso   1.00
O1633  O     0.10655   0.87291   0.83333   0.00000  Uiso   1.00
O1634  O     0.22679   0.79375   0.83334   0.00000  Uiso   1.00
O1635  O     0.22679   0.87291   0.83334   0.00000  Uiso   1.00
O1636  O     0.10655   0.79375   0.83333   0.00000  Uiso   1.00
C1637  C     0.08757   0.83362   0.83559   0.00000  Uiso   1.00
C1638  C     0.24577   0.83305   0.83106   0.00000  Uiso   1.00
O1639  O     0.16667   0.87292   0.76280   0.00000  Uiso   1.00
O1640  O     0.16667   0.79375   0.90387   0.00000  Uiso   1.00
O1641  O     0.16667   0.87292   0.90387   0.00000  Uiso   1.00
O1642  O     0.16667   0.79375   0.76280   0.00000  Uiso   1.00
C1643  C     0.16656   0.83341   0.74032   0.00000  Uiso   1.00
C1644  C     0.16677   0.83326   0.92634   0.00000  Uiso   1.00
Cu1645 Cu    0.16667   0.88022   0.83333   0.00000  Uiso   1.00
Cu1646 Cu    0.16667   0.78645   0.83333   0.00000  Uiso   1.00
C1647  C     0.16663   0.83345   0.68856   0.00000  Uiso   1.00
C1648  C     0.16670   0.83323   0.97811   0.00000  Uiso   1.00
C1649  C     0.02219   0.79188   0.84363   0.00000  Uiso   1.00
C1650  C     0.31116   0.87478   0.82293   0.00000  Uiso   1.00
C1651  C     0.31300   0.79063   0.83588   0.00000  Uiso   1.00
C1652  C     0.02035   0.87604   0.83077   0.00000  Uiso   1.00
C1653  C     0.29053   0.83253   0.82859   0.00000  Uiso   1.00
C1654  C     0.04281   0.83414   0.83803   0.00000  Uiso   1.00
C1655  C     0.14600   0.69191   0.79632   0.00000  Uiso   1.00
C1656  C     0.18699   0.97484   0.87065   0.00000  Uiso   1.00
C1657  C     0.18673   0.69086   0.87085   0.00000  Uiso   1.00
C1658  C     0.14697   0.97590   0.79552   0.00000  Uiso   1.00
N1659  N     0.16667   0.95069   0.83333   0.00000  Uiso   1.00
N1660  N     0.16667   0.71598   0.83333   0.00000  Uiso   1.00
N1661  N     0.04433   0.75067   0.85813   0.00000  Uiso   1.00
H1662  H     0.03483   0.72049   0.84121   0.00000  Uiso   1.00
C1663  C     0.05323   0.74581   0.91078   0.00000  Uiso   1.00
H1664  H     0.02454   0.74082   0.92988   0.00000  Uiso   1.00
H1665  H     0.06914   0.77694   0.92576   0.00000  Uiso   1.00
H1666  H     0.07361   0.71533   0.91824   0.00000  Uiso   1.00
N1667  N     0.28903   0.91594   0.80828   0.00000  Uiso   1.00
H1668  H     0.29846   0.94614   0.82520   0.00000  Uiso   1.00
C1669  C     0.28034   0.92077   0.75560   0.00000  Uiso   1.00
H1670  H     0.30911   0.92607   0.73670   0.00000  Uiso   1.00
H1671  H     0.25975   0.95108   0.74804   0.00000  Uiso   1.00
H1672  H     0.26473   0.88948   0.74050   0.00000  Uiso   1.00
N1673  N     0.29288   0.74711   0.83530   0.00000  Uiso   1.00
H1674  H     0.30362   0.72345   0.86164   0.00000  Uiso   1.00
C1675  C     0.28612   0.72709   0.78678   0.00000  Uiso   1.00
H1676  H     0.31569   0.71693   0.77176   0.00000  Uiso   1.00
H1677  H     0.26983   0.75211   0.76111   0.00000  Uiso   1.00
H1678  H     0.26692   0.69587   0.78943   0.00000  Uiso   1.00
N1679  N     0.04046   0.91957   0.83157   0.00000  Uiso   1.00
H1680  H     0.02977   0.94331   0.80529   0.00000  Uiso   1.00
C1681  C     0.04707   0.93944   0.88017   0.00000  Uiso   1.00
H1682  H     0.01744   0.94955   0.89509   0.00000  Uiso   1.00
H1683  H     0.06630   0.97065   0.87772   0.00000  Uiso   1.00
H1684  H     0.06328   0.91433   0.90582   0.00000  Uiso   1.00
C1685  C     0.12083   0.71656   0.75731   0.00000  Uiso   1.00
O1686  O     0.08643   0.72993   0.76536   0.00000  Uiso   1.00
O1687  O     0.13525   0.72112   0.71009   0.00000  Uiso   1.00
H1688  H     0.11489   0.73743   0.68615   0.00000  Uiso   1.00
C1689  C     0.21111   0.95030   0.91067   0.00000  Uiso   1.00
O1690  O     0.19744   0.94673   0.95147   0.00000  Uiso   1.00
O1691  O     0.25066   0.93474   0.90304   0.00000  Uiso   1.00
H1692  H     0.26437   0.91940   0.93347   0.00000  Uiso   1.00
C1693  C     0.20685   0.71432   0.91383   0.00000  Uiso   1.00
O1694  O     0.23871   0.73496   0.90987   0.00000  Uiso   1.00
O1695  O     0.18973   0.71138   0.95970   0.00000  Uiso   1.00
H1696  H     0.20637   0.72820   0.98657   0.00000  Uiso   1.00
C1697  C     0.12845   0.95277   0.75134   0.00000  Uiso   1.00
O1698  O     0.14477   0.95608   0.71211   0.00000  Uiso   1.00
O1699  O     0.09216   0.92848   0.75369   0.00000  Uiso   1.00
H1700  H     0.08273   0.91451   0.72082   0.00000  Uiso   1.00
O1701  O     0.43988   0.87291   0.83333   0.00000  Uiso   1.00
O1702  O     0.56012   0.79375   0.83334   0.00000  Uiso   1.00
O1703  O     0.56012   0.87291   0.83334   0.00000  Uiso   1.00
O1704  O     0.43988   0.79375   0.83333   0.00000  Uiso   1.00
C1705  C     0.42090   0.83362   0.83559   0.00000  Uiso   1.00
C1706  C     0.57910   0.83305   0.83106   0.00000  Uiso   1.00
O1707  O     0.50000   0.87292   0.76280   0.00000  Uiso   1.00
O1708  O     0.50000   0.79375   0.90387   0.00000  Uiso   1.00
O1709  O     0.50000   0.87292   0.90387   0.00000  Uiso   1.00
O1710  O     0.50000   0.79375   0.76280   0.00000  Uiso   1.00
C1711  C     0.49989   0.83341   0.74032   0.00000  Uiso   1.00
C1712  C     0.50010   0.83326   0.92634   0.00000  Uiso   1.00
Cu1713 Cu    0.50000   0.88022   0.83333   0.00000  Uiso   1.00
Cu1714 Cu    0.50000   0.78645   0.83333   0.00000  Uiso   1.00
C1715  C     0.49996   0.83345   0.68856   0.00000  Uiso   1.00
C1716  C     0.50003   0.83323   0.97811   0.00000  Uiso   1.00
C1717  C     0.35552   0.79188   0.84363   0.00000  Uiso   1.00
C1718  C     0.64449   0.87478   0.82293   0.00000  Uiso   1.00
C1719  C     0.64633   0.79063   0.83588   0.00000  Uiso   1.00
C1720  C     0.35368   0.87604   0.83077   0.00000  Uiso   1.00
C1721  C     0.62386   0.83253   0.82859   0.00000  Uiso   1.00
C1722  C     0.37615   0.83414   0.83803   0.00000  Uiso   1.00
C1723  C     0.47934   0.69191   0.79632   0.00000  Uiso   1.00
C1724  C     0.52033   0.97484   0.87065   0.00000  Uiso   1.00
C1725  C     0.52006   0.69086   0.87085   0.00000  Uiso   1.00
C1726  C     0.48031   0.97590   0.79552   0.00000  Uiso   1.00
N1727  N     0.50000   0.95069   0.83333   0.00000  Uiso   1.00
N1728  N     0.50000   0.71598   0.83333   0.00000  Uiso   1.00
N1729  N     0.37766   0.75067   0.85813   0.00000  Uiso   1.00
H1730  H     0.36817   0.72049   0.84121   0.00000  Uiso   1.00
C1731  C     0.38656   0.74581   0.91078   0.00000  Uiso   1.00
H1732  H     0.35787   0.74082   0.92988   0.00000  Uiso   1.00
H1733  H     0.40247   0.77694   0.92576   0.00000  Uiso   1.00
H1734  H     0.40695   0.71533   0.91824   0.00000  Uiso   1.00
N1735  N     0.62236   0.91594   0.80828   0.00000  Uiso   1.00
H1736  H     0.63180   0.94614   0.82520   0.00000  Uiso   1.00
C1737  C     0.61367   0.92077   0.75560   0.00000  Uiso   1.00
H1738  H     0.64244   0.92607   0.73670   0.00000  Uiso   1.00
H1739  H     0.59308   0.95108   0.74804   0.00000  Uiso   1.00
H1740  H     0.59806   0.88948   0.74050   0.00000  Uiso   1.00
N1741  N     0.62621   0.74711   0.83530   0.00000  Uiso   1.00
H1742  H     0.63696   0.72345   0.86164   0.00000  Uiso   1.00
C1743  C     0.61945   0.72709   0.78678   0.00000  Uiso   1.00
H1744  H     0.64902   0.71693   0.77176   0.00000  Uiso   1.00
H1745  H     0.60316   0.75211   0.76111   0.00000  Uiso   1.00
H1746  H     0.60025   0.69587   0.78943   0.00000  Uiso   1.00
N1747  N     0.37380   0.91957   0.83157   0.00000  Uiso   1.00
H1748  H     0.36311   0.94331   0.80529   0.00000  Uiso   1.00
C1749  C     0.38041   0.93944   0.88017   0.00000  Uiso   1.00
H1750  H     0.35078   0.94955   0.89509   0.00000  Uiso   1.00
H1751  H     0.39963   0.97065   0.87772   0.00000  Uiso   1.00
H1752  H     0.39661   0.91433   0.90582   0.00000  Uiso   1.00
C1753  C     0.45417   0.71656   0.75731   0.00000  Uiso   1.00
O1754  O     0.41976   0.72993   0.76536   0.00000  Uiso   1.00
O1755  O     0.46858   0.72112   0.71009   0.00000  Uiso   1.00
H1756  H     0.44823   0.73743   0.68615   0.00000  Uiso   1.00
C1757  C     0.54444   0.95030   0.91067   0.00000  Uiso   1.00
O1758  O     0.53077   0.94673   0.95147   0.00000  Uiso   1.00
O1759  O     0.58399   0.93474   0.90304   0.00000  Uiso   1.00
H1760  H     0.59770   0.91940   0.93347   0.00000  Uiso   1.00
C1761  C     0.54018   0.71432   0.91383   0.00000  Uiso   1.00
O1762  O     0.57205   0.73496   0.90987   0.00000  Uiso   1.00
O1763  O     0.52306   0.71138   0.95970   0.00000  Uiso   1.00
H1764  H     0.53970   0.72820   0.98657   0.00000  Uiso   1.00
C1765  C     0.46179   0.95277   0.75134   0.00000  Uiso   1.00
O1766  O     0.47811   0.95608   0.71211   0.00000  Uiso   1.00
O1767  O     0.42549   0.92848   0.75369   0.00000  Uiso   1.00
H1768  H     0.41606   0.91451   0.72082   0.00000  Uiso   1.00
O1769  O     0.77321   0.87291   0.83333   0.00000  Uiso   1.00
O1770  O     0.89345   0.79375   0.83334   0.00000  Uiso   1.00
O1771  O     0.89345   0.87291   0.83334   0.00000  Uiso   1.00
O1772  O     0.77321   0.79375   0.83333   0.00000  Uiso   1.00
C1773  C     0.75423   0.83362   0.83559   0.00000  Uiso   1.00
C1774  C     0.91243   0.83305   0.83106   0.00000  Uiso   1.00
O1775  O     0.83333   0.87292   0.76280   0.00000  Uiso   1.00
O1776  O     0.83333   0.79375   0.90387   0.00000  Uiso   1.00
O1777  O     0.83333   0.87292   0.90387   0.00000  Uiso   1.00
O1778  O     0.83333   0.79375   0.76280   0.00000  Uiso   1.00
C1779  C     0.83322   0.83341   0.74032   0.00000  Uiso   1.00
C1780  C     0.83344   0.83326   0.92634   0.00000  Uiso   1.00
Cu1781 Cu    0.83333   0.88022   0.83333   0.00000  Uiso   1.00
Cu1782 Cu    0.83333   0.78645   0.83333   0.00000  Uiso   1.00
C1783  C     0.83330   0.83345   0.68856   0.00000  Uiso   1.00
C1784  C     0.83336   0.83323   0.97811   0.00000  Uiso   1.00
C1785  C     0.68886   0.79188   0.84363   0.00000  Uiso   1.00
C1786  C     0.97783   0.87478   0.82293   0.00000  Uiso   1.00
C1787  C     0.97966   0.79063   0.83588   0.00000  Uiso   1.00
C1788  C     0.68701   0.87604   0.83077   0.00000  Uiso   1.00
C1789  C     0.95719   0.83253   0.82859   0.00000  Uiso   1.00
C1790  C     0.70948   0.83414   0.83803   0.00000  Uiso   1.00
C1791  C     0.81267   0.69191   0.79632   0.00000  Uiso   1.00
C1792  C     0.85366   0.97484   0.87065   0.00000  Uiso   1.00
C1793  C     0.85340   0.69086   0.87085   0.00000  Uiso   1.00
C1794  C     0.81364   0.97590   0.79552   0.00000  Uiso   1.00
N1795  N     0.83333   0.95069   0.83333   0.00000  Uiso   1.00
N1796  N     0.83333   0.71598   0.83333   0.00000  Uiso   1.00
N1797  N     0.71099   0.75067   0.85813   0.00000  Uiso   1.00
H1798  H     0.70150   0.72049   0.84121   0.00000  Uiso   1.00
C1799  C     0.71990   0.74581   0.91078   0.00000  Uiso   1.00
H1800  H     0.69121   0.74082   0.92988   0.00000  Uiso   1.00
H1801  H     0.73581   0.77694   0.92576   0.00000  Uiso   1.00
H1802  H     0.74028   0.71533   0.91824   0.00000  Uiso   1.00
N1803  N     0.95570   0.91594   0.80828   0.00000  Uiso   1.00
H1804  H     0.96513   0.94614   0.82520   0.00000  Uiso   1.00
C1805  C     0.94700   0.92077   0.75560   0.00000  Uiso   1.00
H1806  H     0.97577   0.92607   0.73670   0.00000  Uiso   1.00
H1807  H     0.92641   0.95108   0.74804   0.00000  Uiso   1.00
H1808  H     0.93140   0.88948   0.74050   0.00000  Uiso   1.00
N1809  N     0.95954   0.74711   0.83530   0.00000  Uiso   1.00
H1810  H     0.97029   0.72345   0.86164   0.00000  Uiso   1.00
C1811  C     0.95278   0.72709   0.78678   0.00000  Uiso   1.00
H1812  H     0.98236   0.71693   0.77176   0.00000  Uiso   1.00
H1813  H     0.93649   0.75211   0.76111   0.00000  Uiso   1.00
H1814  H     0.93359   0.69587   0.78943   0.00000  Uiso   1.00
N1815  N     0.70713   0.91957   0.83157   0.00000  Uiso   1.00
H1816  H     0.69644   0.94331   0.80529   0.00000  Uiso   1.00
C1817  C     0.71374   0.93944   0.88017   0.00000  Uiso   1.00
H1818  H     0.68411   0.94955   0.89509   0.00000  Uiso   1.00
H1819  H     0.73296   0.97065   0.87772   0.00000  Uiso   1.00
H1820  H     0.72994   0.91433   0.90582   0.00000  Uiso   1.00
C1821  C     0.78750   0.71656   0.75731   0.00000  Uiso   1.00
O1822  O     0.75309   0.72993   0.76536   0.00000  Uiso   1.00
O1823  O     0.80192   0.72112   0.71009   0.00000  Uiso   1.00
H1824  H     0.78156   0.73743   0.68615   0.00000  Uiso   1.00
C1825  C     0.87778   0.95030   0.91067   0.00000  Uiso   1.00
O1826  O     0.86411   0.94673   0.95147   0.00000  Uiso   1.00
O1827  O     0.91733   0.93474   0.90304   0.00000  Uiso   1.00
H1828  H     0.93103   0.91940   0.93347   0.00000  Uiso   1.00
C1829  C     0.87352   0.71432   0.91383   0.00000  Uiso   1.00
O1830  O     0.90538   0.73496   0.90987   0.00000  Uiso   1.00
O1831  O     0.85639   0.71138   0.95970   0.00000  Uiso   1.00
H1832  H     0.87304   0.72820   0.98657   0.00000  Uiso   1.00
C1833  C     0.79512   0.95277   0.75134   0.00000  Uiso   1.00
O1834  O     0.81144   0.95608   0.71211   0.00000  Uiso   1.00
O1835  O     0.75883   0.92848   0.75369   0.00000  Uiso   1.00
H1836  H     0.74939   0.91451   0.72082   0.00000  Uiso   1.00
loop_
_geom_bond_atom_site_label_1
_geom_bond_atom_site_label_2
_geom_bond_distance
_geom_bond_site_symmetry_2
_ccdc_geom_bond_type
O1     C5      1.304   .     A
O1     Cu13    1.985   .     S
O2     C6      1.304   .     A
O2     Cu14    1.985   .     S
O3     Cu13    1.980   .     S
O3     C6      1.307   .     A
O4     Cu14    1.980   .     S
O4     C5      1.307   .     A
C5     C22     1.473   .     S
C6     C21     1.473   .     S
O7     C11     1.297   .     A
O7     Cu13    1.927   .     S
O8     C12     1.297   .     A
O8     Cu14    1.927   .     S
O9     C12     1.295   .     A
O9     Cu13    1.924   .     S
O10    C11     1.295   .     A
O10    Cu14    1.924   .     S
C11    C15     1.405   .     S
C12    C16     1.405   .     S
Cu13   Cu14    2.709   .     S
Cu13   N27     2.036   .     S
Cu14   N28     2.036   .     S
C15    C1240   1.188   1_554 S
C16    C627    1.188   .     S
C17    N29     1.429   .     S
C17    C22     1.414   .     A
C17    C155    1.399   1_455 S
C18    C21     1.414   .     A
C18    N35     1.429   .     S
C18    C88     1.399   .     S
C19    C21     1.417   .     A
C19    N41     1.426   .     S
C19    C85     1.399   .     S
C20    C22     1.417   .     A
C20    N47     1.426   .     S
C20    C154    1.399   1_455 S
C23    N28     1.374   .     A
C23    C53     1.478   .     S
C23    C434    1.426   1_545 S
C24    N27     1.376   .     A
C24    C57     1.478   .     S
C24    C229    1.426   .     S
C25    C61     1.477   .     S
C25    N28     1.378   .     A
C25    C432    1.426   1_545 S
C26    C65     1.478   .     S
C26    N27     1.380   .     A
C26    C227    1.426   .     S
N29    H30     1.030   .     S
N29    C31     1.447   .     S
C31    H33     1.111   .     S
C31    H34     1.110   .     S
C31    H32     1.111   .     S
N35    C37     1.447   .     S
N35    H36     1.030   .     S
C37    H39     1.111   .     S
C37    H38     1.112   .     S
C37    H40     1.112   .     S
N41    H42     1.030   .     S
N41    C43     1.447   .     S
C43    H45     1.111   .     S
C43    H44     1.111   .     S
C43    H46     1.110   .     S
N47    C49     1.447   .     S
N47    H48     1.030   .     S
C49    H52     1.111   .     S
C49    H51     1.110   .     S
C49    H50     1.111   .     S
C53    O55     1.398   .     S
C53    O54     1.221   .     D
O55    H56     1.014   .     S
C57    O58     1.223   .     D
C57    O59     1.395   .     S
O59    H60     1.014   .     S
C61    O63     1.398   .     S
C61    O62     1.219   .     D
O63    H64     1.014   .     S
C65    O66     1.223   .     D
C65    O67     1.393   .     S
O67    H68     1.014   .     S
O69    C73     1.304   .     A
O69    Cu81    1.985   .     S
O70    C74     1.304   .     A
O70    Cu82    1.985   .     S
O71    Cu81    1.980   .     S
O71    C74     1.307   .     A
O72    Cu82    1.980   .     S
O72    C73     1.307   .     A
C73    C90     1.473   .     S
C74    C89     1.473   .     S
O75    C79     1.297   .     A
O75    Cu81    1.927   .     S
O76    C80     1.297   .     A
O76    Cu82    1.927   .     S
O77    C80     1.295   .     A
O77    Cu81    1.924   .     S
O78    C79     1.295   .     A
O78    Cu82    1.924   .     S
C79    C83     1.405   .     S
C80    C84     1.405   .     S
Cu81   Cu82    2.709   .     S
Cu81   N95     2.036   .     S
Cu82   N96     2.036   .     S
C83    C1308   1.188   1_554 S
C84    C695    1.188   .     S
C85    N97     1.429   .     S
C85    C90     1.414   .     A
C86    C89     1.414   .     A
C86    N103    1.429   .     S
C86    C156    1.399   .     S
C87    C89     1.417   .     A
C87    N109    1.426   .     S
C87    C153    1.399   .     S
C88    C90     1.417   .     A
C88    N115    1.426   .     S
C91    N96     1.374   .     A
C91    C121    1.478   .     S
C91    C502    1.426   1_545 S
C92    N95     1.376   .     A
C92    C125    1.478   .     S
C92    C297    1.426   .     S
C93    C129    1.477   .     S
C93    N96     1.378   .     A
C93    C500    1.426   1_545 S
C94    C133    1.478   .     S
C94    N95     1.380   .     A
C94    C295    1.426   .     S
N97    H98     1.030   .     S
N97    C99     1.447   .     S
C99    H101    1.111   .     S
C99    H102    1.110   .     S
C99    H100    1.111   .     S
N103   C105    1.447   .     S
N103   H104    1.030   .     S
C105   H107    1.111   .     S
C105   H106    1.112   .     S
C105   H108    1.112   .     S
N109   H110    1.030   .     S
N109   C111    1.447   .     S
C111   H113    1.111   .     S
C111   H112    1.111   .     S
C111   H114    1.110   .     S
N115   C117    1.447   .     S
N115   H116    1.030   .     S
C117   H120    1.111   .     S
C117   H119    1.110   .     S
C117   H118    1.111   .     S
C121   O123    1.398   .     S
C121   O122    1.221   .     D
O123   H124    1.014   .     S
C125   O126    1.223   .     D
C125   O127    1.395   .     S
O127   H128    1.014   .     S
C129   O131    1.398   .     S
C129   O130    1.219   .     D
O131   H132    1.014   .     S
C133   O134    1.223   .     D
C133   O135    1.393   .     S
O135   H136    1.014   .     S
O137   C141    1.304   .     A
O137   Cu149   1.985   .     S
O138   C142    1.304   .     A
O138   Cu150   1.985   .     S
O139   Cu149   1.980   .     S
O139   C142    1.307   .     A
O140   Cu150   1.980   .     S
O140   C141    1.307   .     A
C141   C158    1.473   .     S
C142   C157    1.473   .     S
O143   C147    1.297   .     A
O143   Cu149   1.927   .     S
O144   C148    1.297   .     A
O144   Cu150   1.927   .     S
O145   C148    1.295   .     A
O145   Cu149   1.924   .     S
O146   C147    1.295   .     A
O146   Cu150   1.924   .     S
C147   C151    1.405   .     S
C148   C152    1.405   .     S
Cu149  Cu150   2.709   .     S
Cu149  N163    2.036   .     S
Cu150  N164    2.036   .     S
C151   C1376   1.188   1_554 S
C152   C763    1.188   .     S
C153   N165    1.429   .     S
C153   C158    1.414   .     A
C154   C157    1.414   .     A
C154   N171    1.429   .     S
C154   C20     1.399   1_655 S
C155   C157    1.417   .     A
C155   N177    1.426   .     S
C155   C17     1.399   1_655 S
C156   C158    1.417   .     A
C156   N183    1.426   .     S
C159   N164    1.374   .     A
C159   C189    1.478   .     S
C159   C570    1.426   1_545 S
C160   N163    1.376   .     A
C160   C193    1.478   .     S
C160   C365    1.426   .     S
C161   C197    1.477   .     S
C161   N164    1.378   .     A
C161   C568    1.426   1_545 S
C162   C201    1.478   .     S
C162   N163    1.380   .     A
C162   C363    1.426   .     S
N165   H166    1.030   .     S
N165   C167    1.447   .     S
C167   H169    1.111   .     S
C167   H170    1.110   .     S
C167   H168    1.111   .     S
N171   C173    1.447   .     S
N171   H172    1.030   .     S
C173   H175    1.111   .     S
C173   H174    1.112   .     S
C173   H176    1.112   .     S
N177   H178    1.030   .     S
N177   C179    1.447   .     S
C179   H181    1.111   .     S
C179   H180    1.111   .     S
C179   H182    1.110   .     S
N183   C185    1.447   .     S
N183   H184    1.030   .     S
C185   H188    1.111   .     S
C185   H187    1.110   .     S
C185   H186    1.111   .     S
C189   O191    1.398   .     S
C189   O190    1.221   .     D
O191   H192    1.014   .     S
C193   O194    1.223   .     D
C193   O195    1.395   .     S
O195   H196    1.014   .     S
C197   O199    1.398   .     S
C197   O198    1.219   .     D
O199   H200    1.014   .     S
C201   O202    1.223   .     D
C201   O203    1.393   .     S
O203   H204    1.014   .     S
O205   C209    1.304   .     A
O205   Cu217   1.985   .     S
O206   C210    1.304   .     A
O206   Cu218   1.985   .     S
O207   Cu217   1.980   .     S
O207   C210    1.307   .     A
O208   Cu218   1.980   .     S
O208   C209    1.307   .     A
C209   C226    1.473   .     S
C210   C225    1.473   .     S
O211   C215    1.297   .     A
O211   Cu217   1.927   .     S
O212   C216    1.297   .     A
O212   Cu218   1.927   .     S
O213   C216    1.295   .     A
O213   Cu217   1.924   .     S
O214   C215    1.295   .     A
O214   Cu218   1.924   .     S
C215   C219    1.405   .     S
C216   C220    1.405   .     S
Cu217  Cu218   2.709   .     S
Cu217  N231    2.036   .     S
Cu218  N232    2.036   .     S
C219   C1444   1.188   1_554 S
C220   C831    1.188   .     S
C221   N233    1.429   .     S
C221   C226    1.414   .     A
C221   C359    1.399   1_455 S
C222   C225    1.414   .     A
C222   N239    1.429   .     S
C222   C292    1.399   .     S
C223   C225    1.417   .     A
C223   N245    1.426   .     S
C223   C289    1.399   .     S
C224   C226    1.417   .     A
C224   N251    1.426   .     S
C224   C358    1.399   1_455 S
C227   N232    1.374   .     A
C227   C257    1.478   .     S
C228   N231    1.376   .     A
C228   C261    1.478   .     S
C228   C433    1.426   .     S
C229   C265    1.477   .     S
C229   N232    1.378   .     A
C230   C269    1.478   .     S
C230   N231    1.380   .     A
C230   C431    1.426   .     S
N233   H234    1.030   .     S
N233   C235    1.447   .     S
C235   H237    1.111   .     S
C235   H238    1.110   .     S
C235   H236    1.111   .     S
N239   C241    1.447   .     S
N239   H240    1.030   .     S
C241   H243    1.111   .     S
C241   H242    1.112   .     S
C241   H244    1.112   .     S
N245   H246    1.030   .     S
N245   C247    1.447   .     S
C247   H249    1.111   .     S
C247   H248    1.111   .     S
C247   H250    1.110   .     S
N251   C253    1.447   .     S
N251   H252    1.030   .     S
C253   H256    1.111   .     S
C253   H255    1.110   .     S
C253   H254    1.111   .     S
C257   O259    1.398   .     S
C257   O258    1.221   .     D
O259   H260    1.014   .     S
C261   O262    1.223   .     D
C261   O263    1.395   .     S
O263   H264    1.014   .     S
C265   O267    1.398   .     S
C265   O266    1.219   .     D
O267   H268    1.014   .     S
C269   O270    1.223   .     D
C269   O271    1.393   .     S
O271   H272    1.014   .     S
O273   C277    1.304   .     A
O273   Cu285   1.985   .     S
O274   C278    1.304   .     A
O274   Cu286   1.985   .     S
O275   Cu285   1.980   .     S
O275   C278    1.307   .     A
O276   Cu286   1.980   .     S
O276   C277    1.307   .     A
C277   C294    1.473   .     S
C278   C293    1.473   .     S
O279   C283    1.297   .     A
O279   Cu285   1.927   .     S
O280   C284    1.297   .     A
O280   Cu286   1.927   .     S
O281   C284    1.295   .     A
O281   Cu285   1.924   .     S
O282   C283    1.295   .     A
O282   Cu286   1.924   .     S
C283   C287    1.405   .     S
C284   C288    1.405   .     S
Cu285  Cu286   2.709   .     S
Cu285  N299    2.036   .     S
Cu286  N300    2.036   .     S
C287   C1512   1.188   1_554 S
C288   C899    1.188   .     S
C289   N301    1.429   .     S
C289   C294    1.414   .     A
C290   C293    1.414   .     A
C290   N307    1.429   .     S
C290   C360    1.399   .     S
C291   C293    1.417   .     A
C291   N313    1.426   .     S
C291   C357    1.399   .     S
C292   C294    1.417   .     A
C292   N319    1.426   .     S
C295   N300    1.374   .     A
C295   C325    1.478   .     S
C296   N299    1.376   .     A
C296   C329    1.478   .     S
C296   C501    1.426   .     S
C297   C333    1.477   .     S
C297   N300    1.378   .     A
C298   C337    1.478   .     S
C298   N299    1.380   .     A
C298   C499    1.426   .     S
N301   H302    1.030   .     S
N301   C303    1.447   .     S
C303   H305    1.111   .     S
C303   H306    1.110   .     S
C303   H304    1.111   .     S
N307   C309    1.447   .     S
N307   H308    1.030   .     S
C309   H311    1.111   .     S
C309   H310    1.112   .     S
C309   H312    1.112   .     S
N313   H314    1.030   .     S
N313   C315    1.447   .     S
C315   H317    1.111   .     S
C315   H316    1.111   .     S
C315   H318    1.110   .     S
N319   C321    1.447   .     S
N319   H320    1.030   .     S
C321   H324    1.111   .     S
C321   H323    1.110   .     S
C321   H322    1.111   .     S
C325   O327    1.398   .     S
C325   O326    1.221   .     D
O327   H328    1.014   .     S
C329   O330    1.223   .     D
C329   O331    1.395   .     S
O331   H332    1.014   .     S
C333   O335    1.398   .     S
C333   O334    1.219   .     D
O335   H336    1.014   .     S
C337   O338    1.223   .     D
C337   O339    1.393   .     S
O339   H340    1.014   .     S
O341   C345    1.304   .     A
O341   Cu353   1.985   .     S
O342   C346    1.304   .     A
O342   Cu354   1.985   .     S
O343   Cu353   1.980   .     S
O343   C346    1.307   .     A
O344   Cu354   1.980   .     S
O344   C345    1.307   .     A
C345   C362    1.473   .     S
C346   C361    1.473   .     S
O347   C351    1.297   .     A
O347   Cu353   1.927   .     S
O348   C352    1.297   .     A
O348   Cu354   1.927   .     S
O349   C352    1.295   .     A
O349   Cu353   1.924   .     S
O350   C351    1.295   .     A
O350   Cu354   1.924   .     S
C351   C355    1.405   .     S
C352   C356    1.405   .     S
Cu353  Cu354   2.709   .     S
Cu353  N367    2.036   .     S
Cu354  N368    2.036   .     S
C355   C1580   1.188   1_554 S
C356   C967    1.188   .     S
C357   N369    1.429   .     S
C357   C362    1.414   .     A
C358   C361    1.414   .     A
C358   N375    1.429   .     S
C358   C224    1.399   1_655 S
C359   C361    1.417   .     A
C359   N381    1.426   .     S
C359   C221    1.399   1_655 S
C360   C362    1.417   .     A
C360   N387    1.426   .     S
C363   N368    1.374   .     A
C363   C393    1.478   .     S
C364   N367    1.376   .     A
C364   C397    1.478   .     S
C364   C569    1.426   .     S
C365   C401    1.477   .     S
C365   N368    1.378   .     A
C366   C405    1.478   .     S
C366   N367    1.380   .     A
C366   C567    1.426   .     S
N369   H370    1.030   .     S
N369   C371    1.447   .     S
C371   H373    1.111   .     S
C371   H374    1.110   .     S
C371   H372    1.111   .     S
N375   C377    1.447   .     S
N375   H376    1.030   .     S
C377   H379    1.111   .     S
C377   H378    1.112   .     S
C377   H380    1.112   .     S
N381   H382    1.030   .     S
N381   C383    1.447   .     S
C383   H385    1.111   .     S
C383   H384    1.111   .     S
C383   H386    1.110   .     S
N387   C389    1.447   .     S
N387   H388    1.030   .     S
C389   H392    1.111   .     S
C389   H391    1.110   .     S
C389   H390    1.111   .     S
C393   O395    1.398   .     S
C393   O394    1.221   .     D
O395   H396    1.014   .     S
C397   O398    1.223   .     D
C397   O399    1.395   .     S
O399   H400    1.014   .     S
C401   O403    1.398   .     S
C401   O402    1.219   .     D
O403   H404    1.014   .     S
C405   O406    1.223   .     D
C405   O407    1.393   .     S
O407   H408    1.014   .     S
O409   C413    1.304   .     A
O409   Cu421   1.985   .     S
O410   C414    1.304   .     A
O410   Cu422   1.985   .     S
O411   Cu421   1.980   .     S
O411   C414    1.307   .     A
O412   Cu422   1.980   .     S
O412   C413    1.307   .     A
C413   C430    1.473   .     S
C414   C429    1.473   .     S
O415   C419    1.297   .     A
O415   Cu421   1.927   .     S
O416   C420    1.297   .     A
O416   Cu422   1.927   .     S
O417   C420    1.295   .     A
O417   Cu421   1.924   .     S
O418   C419    1.295   .     A
O418   Cu422   1.924   .     S
C419   C423    1.405   .     S
C420   C424    1.405   .     S
Cu421  Cu422   2.709   .     S
Cu421  N435    2.036   .     S
Cu422  N436    2.036   .     S
C423   C1648   1.188   1_554 S
C424   C1035   1.188   .     S
C425   N437    1.429   .     S
C425   C430    1.414   .     A
C425   C563    1.399   1_455 S
C426   C429    1.414   .     A
C426   N443    1.429   .     S
C426   C496    1.399   .     S
C427   C429    1.417   .     A
C427   N449    1.426   .     S
C427   C493    1.399   .     S
C428   C430    1.417   .     A
C428   N455    1.426   .     S
C428   C562    1.399   1_455 S
C431   N436    1.374   .     A
C431   C461    1.478   .     S
C432   N435    1.376   .     A
C432   C465    1.478   .     S
C432   C25     1.426   1_565 S
C433   C469    1.477   .     S
C433   N436    1.378   .     A
C434   C473    1.478   .     S
C434   N435    1.380   .     A
C434   C23     1.426   1_565 S
N437   H438    1.030   .     S
N437   C439    1.447   .     S
C439   H441    1.111   .     S
C439   H442    1.110   .     S
C439   H440    1.111   .     S
N443   C445    1.447   .     S
N443   H444    1.030   .     S
C445   H447    1.111   .     S
C445   H446    1.112   .     S
C445   H448    1.112   .     S
N449   H450    1.030   .     S
N449   C451    1.447   .     S
C451   H453    1.111   .     S
C451   H452    1.111   .     S
C451   H454    1.110   .     S
N455   C457    1.447   .     S
N455   H456    1.030   .     S
C457   H460    1.111   .     S
C457   H459    1.110   .     S
C457   H458    1.111   .     S
C461   O463    1.398   .     S
C461   O462    1.221   .     D
O463   H464    1.014   .     S
C465   O466    1.223   .     D
C465   O467    1.395   .     S
O467   H468    1.014   .     S
C469   O471    1.398   .     S
C469   O470    1.219   .     D
O471   H472    1.014   .     S
C473   O474    1.223   .     D
C473   O475    1.393   .     S
O475   H476    1.014   .     S
O477   C481    1.304   .     A
O477   Cu489   1.985   .     S
O478   C482    1.304   .     A
O478   Cu490   1.985   .     S
O479   Cu489   1.980   .     S
O479   C482    1.307   .     A
O480   Cu490   1.980   .     S
O480   C481    1.307   .     A
C481   C498    1.473   .     S
C482   C497    1.473   .     S
O483   C487    1.297   .     A
O483   Cu489   1.927   .     S
O484   C488    1.297   .     A
O484   Cu490   1.927   .     S
O485   C488    1.295   .     A
O485   Cu489   1.924   .     S
O486   C487    1.295   .     A
O486   Cu490   1.924   .     S
C487   C491    1.405   .     S
C488   C492    1.405   .     S
Cu489  Cu490   2.709   .     S
Cu489  N503    2.036   .     S
Cu490  N504    2.036   .     S
C491   C1716   1.188   1_554 S
C492   C1103   1.188   .     S
C493   N505    1.429   .     S
C493   C498    1.414   .     A
C494   C497    1.414   .     A
C494   N511    1.429   .     S
C494   C564    1.399   .     S
C495   C497    1.417   .     A
C495   N517    1.426   .     S
C495   C561    1.399   .     S
C496   C498    1.417   .     A
C496   N523    1.426   .     S
C499   N504    1.374   .     A
C499   C529    1.478   .     S
C500   N503    1.376   .     A
C500   C533    1.478   .     S
C500   C93     1.426   1_565 S
C501   C537    1.477   .     S
C501   N504    1.378   .     A
C502   C541    1.478   .     S
C502   N503    1.380   .     A
C502   C91     1.426   1_565 S
N505   H506    1.030   .     S
N505   C507    1.447   .     S
C507   H509    1.111   .     S
C507   H510    1.110   .     S
C507   H508    1.111   .     S
N511   C513    1.447   .     S
N511   H512    1.030   .     S
C513   H515    1.111   .     S
C513   H514    1.112   .     S
C513   H516    1.112   .     S
N517   H518    1.030   .     S
N517   C519    1.447   .     S
C519   H521    1.111   .     S
C519   H520    1.111   .     S
C519   H522    1.110   .     S
N523   C525    1.447   .     S
N523   H524    1.030   .     S
C525   H528    1.111   .     S
C525   H527    1.110   .     S
C525   H526    1.111   .     S
C529   O531    1.398   .     S
C529   O530    1.221   .     D
O531   H532    1.014   .     S
C533   O534    1.223   .     D
C533   O535    1.395   .     S
O535   H536    1.014   .     S
C537   O539    1.398   .     S
C537   O538    1.219   .     D
O539   H540    1.014   .     S
C541   O542    1.223   .     D
C541   O543    1.393   .     S
O543   H544    1.014   .     S
O545   C549    1.304   .     A
O545   Cu557   1.985   .     S
O546   C550    1.304   .     A
O546   Cu558   1.985   .     S
O547   Cu557   1.980   .     S
O547   C550    1.307   .     A
O548   Cu558   1.980   .     S
O548   C549    1.307   .     A
C549   C566    1.473   .     S
C550   C565    1.473   .     S
O551   C555    1.297   .     A
O551   Cu557   1.927   .     S
O552   C556    1.297   .     A
O552   Cu558   1.927   .     S
O553   C556    1.295   .     A
O553   Cu557   1.924   .     S
O554   C555    1.295   .     A
O554   Cu558   1.924   .     S
C555   C559    1.405   .     S
C556   C560    1.405   .     S
Cu557  Cu558   2.709   .     S
Cu557  N571    2.036   .     S
Cu558  N572    2.036   .     S
C559   C1784   1.188   1_554 S
C560   C1171   1.188   .     S
C561   N573    1.429   .     S
C561   C566    1.414   .     A
C562   C565    1.414   .     A
C562   N579    1.429   .     S
C562   C428    1.399   1_655 S
C563   C565    1.417   .     A
C563   N585    1.426   .     S
C563   C425    1.399   1_655 S
C564   C566    1.417   .     A
C564   N591    1.426   .     S
C567   N572    1.374   .     A
C567   C597    1.478   .     S
C568   N571    1.376   .     A
C568   C601    1.478   .     S
C568   C161    1.426   1_565 S
C569   C605    1.477   .     S
C569   N572    1.378   .     A
C570   C609    1.478   .     S
C570   N571    1.380   .     A
C570   C159    1.426   1_565 S
N573   H574    1.030   .     S
N573   C575    1.447   .     S
C575   H577    1.111   .     S
C575   H578    1.110   .     S
C575   H576    1.111   .     S
N579   C581    1.447   .     S
N579   H580    1.030   .     S
C581   H583    1.111   .     S
C581   H582    1.112   .     S
C581   H584    1.112   .     S
N585   H586    1.030   .     S
N585   C587    1.447   .     S
C587   H589    1.111   .     S
C587   H588    1.111   .     S
C587   H590    1.110   .     S
N591   C593    1.447   .     S
N591   H592    1.030   .     S
C593   H596    1.111   .     S
C593   H595    1.110   .     S
C593   H594    1.111   .     S
C597   O599    1.398   .     S
C597   O598    1.221   .     D
O599   H600    1.014   .     S
C601   O602    1.223   .     D
C601   O603    1.395   .     S
O603   H604    1.014   .     S
C605   O607    1.398   .     S
C605   O606    1.219   .     D
O607   H608    1.014   .     S
C609   O610    1.223   .     D
C609   O611    1.393   .     S
O611   H612    1.014   .     S
O613   C617    1.304   .     A
O613   Cu625   1.985   .     S
O614   C618    1.304   .     A
O614   Cu626   1.985   .     S
O615   Cu625   1.980   .     S
O615   C618    1.307   .     A
O616   Cu626   1.980   .     S
O616   C617    1.307   .     A
C617   C634    1.473   .     S
C618   C633    1.473   .     S
O619   C623    1.297   .     A
O619   Cu625   1.927   .     S
O620   C624    1.297   .     A
O620   Cu626   1.927   .     S
O621   C624    1.295   .     A
O621   Cu625   1.924   .     S
O622   C623    1.295   .     A
O622   Cu626   1.924   .     S
C623   C627    1.405   .     S
C624   C628    1.405   .     S
Cu625  Cu626   2.709   .     S
Cu625  N639    2.036   .     S
Cu626  N640    2.036   .     S
C628   C1239   1.188   .     S
C629   N641    1.429   .     S
C629   C634    1.414   .     A
C629   C767    1.399   1_455 S
C630   C633    1.414   .     A
C630   N647    1.429   .     S
C630   C700    1.399   .     S
C631   C633    1.417   .     A
C631   N653    1.426   .     S
C631   C697    1.399   .     S
C632   C634    1.417   .     A
C632   N659    1.426   .     S
C632   C766    1.399   1_455 S
C635   N640    1.374   .     A
C635   C665    1.478   .     S
C635   C1046   1.426   1_545 S
C636   N639    1.376   .     A
C636   C669    1.478   .     S
C636   C841    1.426   .     S
C637   C673    1.477   .     S
C637   N640    1.378   .     A
C637   C1044   1.426   1_545 S
C638   C677    1.478   .     S
C638   N639    1.380   .     A
C638   C839    1.426   .     S
N641   H642    1.030   .     S
N641   C643    1.447   .     S
C643   H645    1.111   .     S
C643   H646    1.110   .     S
C643   H644    1.111   .     S
N647   C649    1.447   .     S
N647   H648    1.030   .     S
C649   H651    1.111   .     S
C649   H650    1.112   .     S
C649   H652    1.112   .     S
N653   H654    1.030   .     S
N653   C655    1.447   .     S
C655   H657    1.111   .     S
C655   H656    1.111   .     S
C655   H658    1.110   .     S
N659   C661    1.447   .     S
N659   H660    1.030   .     S
C661   H664    1.111   .     S
C661   H663    1.110   .     S
C661   H662    1.111   .     S
C665   O667    1.398   .     S
C665   O666    1.221   .     D
O667   H668    1.014   .     S
C669   O670    1.223   .     D
C669   O671    1.395   .     S
O671   H672    1.014   .     S
C673   O675    1.398   .     S
C673   O674    1.219   .     D
O675   H676    1.014   .     S
C677   O678    1.223   .     D
C677   O679    1.393   .     S
O679   H680    1.014   .     S
O681   C685    1.304   .     A
O681   Cu693   1.985   .     S
O682   C686    1.304   .     A
O682   Cu694   1.985   .     S
O683   Cu693   1.980   .     S
O683   C686    1.307   .     A
O684   Cu694   1.980   .     S
O684   C685    1.307   .     A
C685   C702    1.473   .     S
C686   C701    1.473   .     S
O687   C691    1.297   .     A
O687   Cu693   1.927   .     S
O688   C692    1.297   .     A
O688   Cu694   1.927   .     S
O689   C692    1.295   .     A
O689   Cu693   1.924   .     S
O690   C691    1.295   .     A
O690   Cu694   1.924   .     S
C691   C695    1.405   .     S
C692   C696    1.405   .     S
Cu693  Cu694   2.709   .     S
Cu693  N707    2.036   .     S
Cu694  N708    2.036   .     S
C696   C1307   1.188   .     S
C697   N709    1.429   .     S
C697   C702    1.414   .     A
C698   C701    1.414   .     A
C698   N715    1.429   .     S
C698   C768    1.399   .     S
C699   C701    1.417   .     A
C699   N721    1.426   .     S
C699   C765    1.399   .     S
C700   C702    1.417   .     A
C700   N727    1.426   .     S
C703   N708    1.374   .     A
C703   C733    1.478   .     S
C703   C1114   1.426   1_545 S
C704   N707    1.376   .     A
C704   C737    1.478   .     S
C704   C909    1.426   .     S
C705   C741    1.477   .     S
C705   N708    1.378   .     A
C705   C1112   1.426   1_545 S
C706   C745    1.478   .     S
C706   N707    1.380   .     A
C706   C907    1.426   .     S
N709   H710    1.030   .     S
N709   C711    1.447   .     S
C711   H713    1.111   .     S
C711   H714    1.110   .     S
C711   H712    1.111   .     S
N715   C717    1.447   .     S
N715   H716    1.030   .     S
C717   H719    1.111   .     S
C717   H718    1.112   .     S
C717   H720    1.112   .     S
N721   H722    1.030   .     S
N721   C723    1.447   .     S
C723   H725    1.111   .     S
C723   H724    1.111   .     S
C723   H726    1.110   .     S
N727   C729    1.447   .     S
N727   H728    1.030   .     S
C729   H732    1.111   .     S
C729   H731    1.110   .     S
C729   H730    1.111   .     S
C733   O735    1.398   .     S
C733   O734    1.221   .     D
O735   H736    1.014   .     S
C737   O738    1.223   .     D
C737   O739    1.395   .     S
O739   H740    1.014   .     S
C741   O743    1.398   .     S
C741   O742    1.219   .     D
O743   H744    1.014   .     S
C745   O746    1.223   .     D
C745   O747    1.393   .     S
O747   H748    1.014   .     S
O749   C753    1.304   .     A
O749   Cu761   1.985   .     S
O750   C754    1.304   .     A
O750   Cu762   1.985   .     S
O751   Cu761   1.980   .     S
O751   C754    1.307   .     A
O752   Cu762   1.980   .     S
O752   C753    1.307   .     A
C753   C770    1.473   .     S
C754   C769    1.473   .     S
O755   C759    1.297   .     A
O755   Cu761   1.927   .     S
O756   C760    1.297   .     A
O756   Cu762   1.927   .     S
O757   C760    1.295   .     A
O757   Cu761   1.924   .     S
O758   C759    1.295   .     A
O758   Cu762   1.924   .     S
C759   C763    1.405   .     S
C760   C764    1.405   .     S
Cu761  Cu762   2.709   .     S
Cu761  N775    2.036   .     S
Cu762  N776    2.036   .     S
C764   C1375   1.188   .     S
C765   N777    1.429   .     S
C765   C770    1.414   .     A
C766   C769    1.414   .     A
C766   N783    1.429   .     S
C766   C632    1.399   1_655 S
C767   C769    1.417   .     A
C767   N789    1.426   .     S
C767   C629    1.399   1_655 S
C768   C770    1.417   .     A
C768   N795    1.426   .     S
C771   N776    1.374   .     A
C771   C801    1.478   .     S
C771   C1182   1.426   1_545 S
C772   N775    1.376   .     A
C772   C805    1.478   .     S
C772   C977    1.426   .     S
C773   C809    1.477   .     S
C773   N776    1.378   .     A
C773   C1180   1.426   1_545 S
C774   C813    1.478   .     S
C774   N775    1.380   .     A
C774   C975    1.426   .     S
N777   H778    1.030   .     S
N777   C779    1.447   .     S
C779   H781    1.111   .     S
C779   H782    1.110   .     S
C779   H780    1.111   .     S
N783   C785    1.447   .     S
N783   H784    1.030   .     S
C785   H787    1.111   .     S
C785   H786    1.112   .     S
C785   H788    1.112   .     S
N789   H790    1.030   .     S
N789   C791    1.447   .     S
C791   H793    1.111   .     S
C791   H792    1.111   .     S
C791   H794    1.110   .     S
N795   C797    1.447   .     S
N795   H796    1.030   .     S
C797   H800    1.111   .     S
C797   H799    1.110   .     S
C797   H798    1.111   .     S
C801   O803    1.398   .     S
C801   O802    1.221   .     D
O803   H804    1.014   .     S
C805   O806    1.223   .     D
C805   O807    1.395   .     S
O807   H808    1.014   .     S
C809   O811    1.398   .     S
C809   O810    1.219   .     D
O811   H812    1.014   .     S
C813   O814    1.223   .     D
C813   O815    1.393   .     S
O815   H816    1.014   .     S
O817   C821    1.304   .     A
O817   Cu829   1.985   .     S
O818   C822    1.304   .     A
O818   Cu830   1.985   .     S
O819   Cu829   1.980   .     S
O819   C822    1.307   .     A
O820   Cu830   1.980   .     S
O820   C821    1.307   .     A
C821   C838    1.473   .     S
C822   C837    1.473   .     S
O823   C827    1.297   .     A
O823   Cu829   1.927   .     S
O824   C828    1.297   .     A
O824   Cu830   1.927   .     S
O825   C828    1.295   .     A
O825   Cu829   1.924   .     S
O826   C827    1.295   .     A
O826   Cu830   1.924   .     S
C827   C831    1.405   .     S
C828   C832    1.405   .     S
Cu829  Cu830   2.709   .     S
Cu829  N843    2.036   .     S
Cu830  N844    2.036   .     S
C832   C1443   1.188   .     S
C833   N845    1.429   .     S
C833   C838    1.414   .     A
C833   C971    1.399   1_455 S
C834   C837    1.414   .     A
C834   N851    1.429   .     S
C834   C904    1.399   .     S
C835   C837    1.417   .     A
C835   N857    1.426   .     S
C835   C901    1.399   .     S
C836   C838    1.417   .     A
C836   N863    1.426   .     S
C836   C970    1.399   1_455 S
C839   N844    1.374   .     A
C839   C869    1.478   .     S
C840   N843    1.376   .     A
C840   C873    1.478   .     S
C840   C1045   1.426   .     S
C841   C877    1.477   .     S
C841   N844    1.378   .     A
C842   C881    1.478   .     S
C842   N843    1.380   .     A
C842   C1043   1.426   .     S
N845   H846    1.030   .     S
N845   C847    1.447   .     S
C847   H849    1.111   .     S
C847   H850    1.110   .     S
C847   H848    1.111   .     S
N851   C853    1.447   .     S
N851   H852    1.030   .     S
C853   H855    1.111   .     S
C853   H854    1.112   .     S
C853   H856    1.112   .     S
N857   H858    1.030   .     S
N857   C859    1.447   .     S
C859   H861    1.111   .     S
C859   H860    1.111   .     S
C859   H862    1.110   .     S
N863   C865    1.447   .     S
N863   H864    1.030   .     S
C865   H868    1.111   .     S
C865   H867    1.110   .     S
C865   H866    1.111   .     S
C869   O871    1.398   .     S
C869   O870    1.221   .     D
O871   H872    1.014   .     S
C873   O874    1.223   .     D
C873   O875    1.395   .     S
O875   H876    1.014   .     S
C877   O879    1.398   .     S
C877   O878    1.219   .     D
O879   H880    1.014   .     S
C881   O882    1.223   .     D
C881   O883    1.393   .     S
O883   H884    1.014   .     S
O885   C889    1.304   .     A
O885   Cu897   1.985   .     S
O886   C890    1.304   .     A
O886   Cu898   1.985   .     S
O887   Cu897   1.980   .     S
O887   C890    1.307   .     A
O888   Cu898   1.980   .     S
O888   C889    1.307   .     A
C889   C906    1.473   .     S
C890   C905    1.473   .     S
O891   C895    1.297   .     A
O891   Cu897   1.927   .     S
O892   C896    1.297   .     A
O892   Cu898   1.927   .     S
O893   C896    1.295   .     A
O893   Cu897   1.924   .     S
O894   C895    1.295   .     A
O894   Cu898   1.924   .     S
C895   C899    1.405   .     S
C896   C900    1.405   .     S
Cu897  Cu898   2.709   .     S
Cu897  N911    2.036   .     S
Cu898  N912    2.036   .     S
C900   C1511   1.188   .     S
C901   N913    1.429   .     S
C901   C906    1.414   .     A
C902   C905    1.414   .     A
C902   N919    1.429   .     S
C902   C972    1.399   .     S
C903   C905    1.417   .     A
C903   N925    1.426   .     S
C903   C969    1.399   .     S
C904   C906    1.417   .     A
C904   N931    1.426   .     S
C907   N912    1.374   .     A
C907   C937    1.478   .     S
C908   N911    1.376   .     A
C908   C941    1.478   .     S
C908   C1113   1.426   .     S
C909   C945    1.477   .     S
C909   N912    1.378   .     A
C910   C949    1.478   .     S
C910   N911    1.380   .     A
C910   C1111   1.426   .     S
N913   H914    1.030   .     S
N913   C915    1.447   .     S
C915   H917    1.111   .     S
C915   H918    1.110   .     S
C915   H916    1.111   .     S
N919   C921    1.447   .     S
N919   H920    1.030   .     S
C921   H923    1.111   .     S
C921   H922    1.112   .     S
C921   H924    1.112   .     S
N925   H926    1.030   .     S
N925   C927    1.447   .     S
C927   H929    1.111   .     S
C927   H928    1.111   .     S
C927   H930    1.110   .     S
N931   C933    1.447   .     S
N931   H932    1.030   .     S
C933   H936    1.111   .     S
C933   H935    1.110   .     S
C933   H934    1.111   .     S
C937   O939    1.398   .     S
C937   O938    1.221   .     D
O939   H940    1.014   .     S
C941   O942    1.223   .     D
C941   O943    1.395   .     S
O943   H944    1.014   .     S
C945   O947    1.398   .     S
C945   O946    1.219   .     D
O947   H948    1.014   .     S
C949   O950    1.223   .     D
C949   O951    1.393   .     S
O951   H952    1.014   .     S
O953   C957    1.304   .     A
O953   Cu965   1.985   .     S
O954   C958    1.304   .     A
O954   Cu966   1.985   .     S
O955   Cu965   1.980   .     S
O955   C958    1.307   .     A
O956   Cu966   1.980   .     S
O956   C957    1.307   .     A
C957   C974    1.473   .     S
C958   C973    1.473   .     S
O959   C963    1.297   .     A
O959   Cu965   1.927   .     S
O960   C964    1.297   .     A
O960   Cu966   1.927   .     S
O961   C964    1.295   .     A
O961   Cu965   1.924   .     S
O962   C963    1.295   .     A
O962   Cu966   1.924   .     S
C963   C967    1.405   .     S
C964   C968    1.405   .     S
Cu965  Cu966   2.709   .     S
Cu965  N979    2.036   .     S
Cu966  N980    2.036   .     S
C968   C1579   1.188   .     S
C969   N981    1.429   .     S
C969   C974    1.414   .     A
C970   C973    1.414   .     A
C970   N987    1.429   .     S
C970   C836    1.399   1_655 S
C971   C973    1.417   .     A
C971   N993    1.426   .     S
C971   C833    1.399   1_655 S
C972   C974    1.417   .     A
C972   N999    1.426   .     S
C975   N980    1.374   .     A
C975   C1005   1.478   .     S
C976   N979    1.376   .     A
C976   C1009   1.478   .     S
C976   C1181   1.426   .     S
C977   C1013   1.477   .     S
C977   N980    1.378   .     A
C978   C1017   1.478   .     S
C978   N979    1.380   .     A
C978   C1179   1.426   .     S
N981   H982    1.030   .     S
N981   C983    1.447   .     S
C983   H985    1.111   .     S
C983   H986    1.110   .     S
C983   H984    1.111   .     S
N987   C989    1.447   .     S
N987   H988    1.030   .     S
C989   H991    1.111   .     S
C989   H990    1.112   .     S
C989   H992    1.112   .     S
N993   H994    1.030   .     S
N993   C995    1.447   .     S
C995   H997    1.111   .     S
C995   H996    1.111   .     S
C995   H998    1.110   .     S
N999   C1001   1.447   .     S
N999   H1000   1.030   .     S
C1001  H1004   1.111   .     S
C1001  H1003   1.110   .     S
C1001  H1002   1.111   .     S
C1005  O1007   1.398   .     S
C1005  O1006   1.221   .     D
O1007  H1008   1.014   .     S
C1009  O1010   1.223   .     D
C1009  O1011   1.395   .     S
O1011  H1012   1.014   .     S
C1013  O1015   1.398   .     S
C1013  O1014   1.219   .     D
O1015  H1016   1.014   .     S
C1017  O1018   1.223   .     D
C1017  O1019   1.393   .     S
O1019  H1020   1.014   .     S
O1021  C1025   1.304   .     A
O1021  Cu1033  1.985   .     S
O1022  C1026   1.304   .     A
O1022  Cu1034  1.985   .     S
O1023  Cu1033  1.980   .     S
O1023  C1026   1.307   .     A
O1024  Cu1034  1.980   .     S
O1024  C1025   1.307   .     A
C1025  C1042   1.473   .     S
C1026  C1041   1.473   .     S
O1027  C1031   1.297   .     A
O1027  Cu1033  1.927   .     S
O1028  C1032   1.297   .     A
O1028  Cu1034  1.927   .     S
O1029  C1032   1.295   .     A
O1029  Cu1033  1.924   .     S
O1030  C1031   1.295   .     A
O1030  Cu1034  1.924   .     S
C1031  C1035   1.405   .     S
C1032  C1036   1.405   .     S
Cu1033 Cu1034  2.709   .     S
Cu1033 N1047   2.036   .     S
Cu1034 N1048   2.036   .     S
C1036  C1647   1.188   .     S
C1037  N1049   1.429   .     S
C1037  C1042   1.414   .     A
C1037  C1175   1.399   1_455 S
C1038  C1041   1.414   .     A
C1038  N1055   1.429   .     S
C1038  C1108   1.399   .     S
C1039  C1041   1.417   .     A
C1039  N1061   1.426   .     S
C1039  C1105   1.399   .     S
C1040  C1042   1.417   .     A
C1040  N1067   1.426   .     S
C1040  C1174   1.399   1_455 S
C1043  N1048   1.374   .     A
C1043  C1073   1.478   .     S
C1044  N1047   1.376   .     A
C1044  C1077   1.478   .     S
C1044  C637    1.426   1_565 S
C1045  C1081   1.477   .     S
C1045  N1048   1.378   .     A
C1046  C1085   1.478   .     S
C1046  N1047   1.380   .     A
C1046  C635    1.426   1_565 S
N1049  H1050   1.030   .     S
N1049  C1051   1.447   .     S
C1051  H1053   1.111   .     S
C1051  H1054   1.110   .     S
C1051  H1052   1.111   .     S
N1055  C1057   1.447   .     S
N1055  H1056   1.030   .     S
C1057  H1059   1.111   .     S
C1057  H1058   1.112   .     S
C1057  H1060   1.112   .     S
N1061  H1062   1.030   .     S
N1061  C1063   1.447   .     S
C1063  H1065   1.111   .     S
C1063  H1064   1.111   .     S
C1063  H1066   1.110   .     S
N1067  C1069   1.447   .     S
N1067  H1068   1.030   .     S
C1069  H1072   1.111   .     S
C1069  H1071   1.110   .     S
C1069  H1070   1.111   .     S
C1073  O1075   1.398   .     S
C1073  O1074   1.221   .     D
O1075  H1076   1.014   .     S
C1077  O1078   1.223   .     D
C1077  O1079   1.395   .     S
O1079  H1080   1.014   .     S
C1081  O1083   1.398   .     S
C1081  O1082   1.219   .     D
O1083  H1084   1.014   .     S
C1085  O1086   1.223   .     D
C1085  O1087   1.393   .     S
O1087  H1088   1.014   .     S
O1089  C1093   1.304   .     A
O1089  Cu1101  1.985   .     S
O1090  C1094   1.304   .     A
O1090  Cu1102  1.985   .     S
O1091  Cu1101  1.980   .     S
O1091  C1094   1.307   .     A
O1092  Cu1102  1.980   .     S
O1092  C1093   1.307   .     A
C1093  C1110   1.473   .     S
C1094  C1109   1.473   .     S
O1095  C1099   1.297   .     A
O1095  Cu1101  1.927   .     S
O1096  C1100   1.297   .     A
O1096  Cu1102  1.927   .     S
O1097  C1100   1.295   .     A
O1097  Cu1101  1.924   .     S
O1098  C1099   1.295   .     A
O1098  Cu1102  1.924   .     S
C1099  C1103   1.405   .     S
C1100  C1104   1.405   .     S
Cu1101 Cu1102  2.709   .     S
Cu1101 N1115   2.036   .     S
Cu1102 N1116   2.036   .     S
C1104  C1715   1.188   .     S
C1105  N1117   1.429   .     S
C1105  C1110   1.414   .     A
C1106  C1109   1.414   .     A
C1106  N1123   1.429   .     S
C1106  C1176   1.399   .     S
C1107  C1109   1.417   .     A
C1107  N1129   1.426   .     S
C1107  C1173   1.399   .     S
C1108  C1110   1.417   .     A
C1108  N1135   1.426   .     S
C1111  N1116   1.374   .     A
C1111  C1141   1.478   .     S
C1112  N1115   1.376   .     A
C1112  C1145   1.478   .     S
C1112  C705    1.426   1_565 S
C1113  C1149   1.477   .     S
C1113  N1116   1.378   .     A
C1114  C1153   1.478   .     S
C1114  N1115   1.380   .     A
C1114  C703    1.426   1_565 S
N1117  H1118   1.030   .     S
N1117  C1119   1.447   .     S
C1119  H1121   1.111   .     S
C1119  H1122   1.110   .     S
C1119  H1120   1.111   .     S
N1123  C1125   1.447   .     S
N1123  H1124   1.030   .     S
C1125  H1127   1.111   .     S
C1125  H1126   1.112   .     S
C1125  H1128   1.112   .     S
N1129  H1130   1.030   .     S
N1129  C1131   1.447   .     S
C1131  H1133   1.111   .     S
C1131  H1132   1.111   .     S
C1131  H1134   1.110   .     S
N1135  C1137   1.447   .     S
N1135  H1136   1.030   .     S
C1137  H1140   1.111   .     S
C1137  H1139   1.110   .     S
C1137  H1138   1.111   .     S
C1141  O1143   1.398   .     S
C1141  O1142   1.221   .     D
O1143  H1144   1.014   .     S
C1145  O1146   1.223   .     D
C1145  O1147   1.395   .     S
O1147  H1148   1.014   .     S
C1149  O1151   1.398   .     S
C1149  O1150   1.219   .     D
O1151  H1152   1.014   .     S
C1153  O1154   1.223   .     D
C1153  O1155   1.393   .     S
O1155  H1156   1.014   .     S
O1157  C1161   1.304   .     A
O1157  Cu1169  1.985   .     S
O1158  C1162   1.304   .     A
O1158  Cu1170  1.985   .     S
O1159  Cu1169  1.980   .     S
O1159  C1162   1.307   .     A
O1160  Cu1170  1.980   .     S
O1160  C1161   1.307   .     A
C1161  C1178   1.473   .     S
C1162  C1177   1.473   .     S
O1163  C1167   1.297   .     A
O1163  Cu1169  1.927   .     S
O1164  C1168   1.297   .     A
O1164  Cu1170  1.927   .     S
O1165  C1168   1.295   .     A
O1165  Cu1169  1.924   .     S
O1166  C1167   1.295   .     A
O1166  Cu1170  1.924   .     S
C1167  C1171   1.405   .     S
C1168  C1172   1.405   .     S
Cu1169 Cu1170  2.709   .     S
Cu1169 N1183   2.036   .     S
Cu1170 N1184   2.036   .     S
C1172  C1783   1.188   .     S
C1173  N1185   1.429   .     S
C1173  C1178   1.414   .     A
C1174  C1177   1.414   .     A
C1174  N1191   1.429   .     S
C1174  C1040   1.399   1_655 S
C1175  C1177   1.417   .     A
C1175  N1197   1.426   .     S
C1175  C1037   1.399   1_655 S
C1176  C1178   1.417   .     A
C1176  N1203   1.426   .     S
C1179  N1184   1.374   .     A
C1179  C1209   1.478   .     S
C1180  N1183   1.376   .     A
C1180  C1213   1.478   .     S
C1180  C773    1.426   1_565 S
C1181  C1217   1.477   .     S
C1181  N1184   1.378   .     A
C1182  C1221   1.478   .     S
C1182  N1183   1.380   .     A
C1182  C771    1.426   1_565 S
N1185  H1186   1.030   .     S
N1185  C1187   1.447   .     S
C1187  H1189   1.111   .     S
C1187  H1190   1.110   .     S
C1187  H1188   1.111   .     S
N1191  C1193   1.447   .     S
N1191  H1192   1.030   .     S
C1193  H1195   1.111   .     S
C1193  H1194   1.112   .     S
C1193  H1196   1.112   .     S
N1197  H1198   1.030   .     S
N1197  C1199   1.447   .     S
C1199  H1201   1.111   .     S
C1199  H1200   1.111   .     S
C1199  H1202   1.110   .     S
N1203  C1205   1.447   .     S
N1203  H1204   1.030   .     S
C1205  H1208   1.111   .     S
C1205  H1207   1.110   .     S
C1205  H1206   1.111   .     S
C1209  O1211   1.398   .     S
C1209  O1210   1.221   .     D
O1211  H1212   1.014   .     S
C1213  O1214   1.223   .     D
C1213  O1215   1.395   .     S
O1215  H1216   1.014   .     S
C1217  O1219   1.398   .     S
C1217  O1218   1.219   .     D
O1219  H1220   1.014   .     S
C1221  O1222   1.223   .     D
C1221  O1223   1.393   .     S
O1223  H1224   1.014   .     S
O1225  C1229   1.304   .     A
O1225  Cu1237  1.985   .     S
O1226  C1230   1.304   .     A
O1226  Cu1238  1.985   .     S
O1227  Cu1237  1.980   .     S
O1227  C1230   1.307   .     A
O1228  Cu1238  1.980   .     S
O1228  C1229   1.307   .     A
C1229  C1246   1.473   .     S
C1230  C1245   1.473   .     S
O1231  C1235   1.297   .     A
O1231  Cu1237  1.927   .     S
O1232  C1236   1.297   .     A
O1232  Cu1238  1.927   .     S
O1233  C1236   1.295   .     A
O1233  Cu1237  1.924   .     S
O1234  C1235   1.295   .     A
O1234  Cu1238  1.924   .     S
C1235  C1239   1.405   .     S
C1236  C1240   1.405   .     S
Cu1237 Cu1238  2.709   .     S
Cu1237 N1251   2.036   .     S
Cu1238 N1252   2.036   .     S
C1240  C15     1.188   1_556 S
C1241  N1253   1.429   .     S
C1241  C1246   1.414   .     A
C1241  C1379   1.399   1_455 S
C1242  C1245   1.414   .     A
C1242  N1259   1.429   .     S
C1242  C1312   1.399   .     S
C1243  C1245   1.417   .     A
C1243  N1265   1.426   .     S
C1243  C1309   1.399   .     S
C1244  C1246   1.417   .     A
C1244  N1271   1.426   .     S
C1244  C1378   1.399   1_455 S
C1247  N1252   1.374   .     A
C1247  C1277   1.478   .     S
C1247  C1658   1.426   1_545 S
C1248  N1251   1.376   .     A
C1248  C1281   1.478   .     S
C1248  C1453   1.426   .     S
C1249  C1285   1.477   .     S
C1249  N1252   1.378   .     A
C1249  C1656   1.426   1_545 S
C1250  C1289   1.478   .     S
C1250  N1251   1.380   .     A
C1250  C1451   1.426   .     S
N1253  H1254   1.030   .     S
N1253  C1255   1.447   .     S
C1255  H1257   1.111   .     S
C1255  H1258   1.110   .     S
C1255  H1256   1.111   .     S
N1259  C1261   1.447   .     S
N1259  H1260   1.030   .     S
C1261  H1263   1.111   .     S
C1261  H1262   1.112   .     S
C1261  H1264   1.112   .     S
N1265  H1266   1.030   .     S
N1265  C1267   1.447   .     S
C1267  H1269   1.111   .     S
C1267  H1268   1.111   .     S
C1267  H1270   1.110   .     S
N1271  C1273   1.447   .     S
N1271  H1272   1.030   .     S
C1273  H1276   1.111   .     S
C1273  H1275   1.110   .     S
C1273  H1274   1.111   .     S
C1277  O1279   1.398   .     S
C1277  O1278   1.221   .     D
O1279  H1280   1.014   .     S
C1281  O1282   1.223   .     D
C1281  O1283   1.395   .     S
O1283  H1284   1.014   .     S
C1285  O1287   1.398   .     S
C1285  O1286   1.219   .     D
O1287  H1288   1.014   .     S
C1289  O1290   1.223   .     D
C1289  O1291   1.393   .     S
O1291  H1292   1.014   .     S
O1293  C1297   1.304   .     A
O1293  Cu1305  1.985   .     S
O1294  C1298   1.304   .     A
O1294  Cu1306  1.985   .     S
O1295  Cu1305  1.980   .     S
O1295  C1298   1.307   .     A
O1296  Cu1306  1.980   .     S
O1296  C1297   1.307   .     A
C1297  C1314   1.473   .     S
C1298  C1313   1.473   .     S
O1299  C1303   1.297   .     A
O1299  Cu1305  1.927   .     S
O1300  C1304   1.297   .     A
O1300  Cu1306  1.927   .     S
O1301  C1304   1.295   .     A
O1301  Cu1305  1.924   .     S
O1302  C1303   1.295   .     A
O1302  Cu1306  1.924   .     S
C1303  C1307   1.405   .     S
C1304  C1308   1.405   .     S
Cu1305 Cu1306  2.709   .     S
Cu1305 N1319   2.036   .     S
Cu1306 N1320   2.036   .     S
C1308  C83     1.188   1_556 S
C1309  N1321   1.429   .     S
C1309  C1314   1.414   .     A
C1310  C1313   1.414   .     A
C1310  N1327   1.429   .     S
C1310  C1380   1.399   .     S
C1311  C1313   1.417   .     A
C1311  N1333   1.426   .     S
C1311  C1377   1.399   .     S
C1312  C1314   1.417   .     A
C1312  N1339   1.426   .     S
C1315  N1320   1.374   .     A
C1315  C1345   1.478   .     S
C1315  C1726   1.426   1_545 S
C1316  N1319   1.376   .     A
C1316  C1349   1.478   .     S
C1316  C1521   1.426   .     S
C1317  C1353   1.477   .     S
C1317  N1320   1.378   .     A
C1317  C1724   1.426   1_545 S
C1318  C1357   1.478   .     S
C1318  N1319   1.380   .     A
C1318  C1519   1.426   .     S
N1321  H1322   1.030   .     S
N1321  C1323   1.447   .     S
C1323  H1325   1.111   .     S
C1323  H1326   1.110   .     S
C1323  H1324   1.111   .     S
N1327  C1329   1.447   .     S
N1327  H1328   1.030   .     S
C1329  H1331   1.111   .     S
C1329  H1330   1.112   .     S
C1329  H1332   1.112   .     S
N1333  H1334   1.030   .     S
N1333  C1335   1.447   .     S
C1335  H1337   1.111   .     S
C1335  H1336   1.111   .     S
C1335  H1338   1.110   .     S
N1339  C1341   1.447   .     S
N1339  H1340   1.030   .     S
C1341  H1344   1.111   .     S
C1341  H1343   1.110   .     S
C1341  H1342   1.111   .     S
C1345  O1347   1.398   .     S
C1345  O1346   1.221   .     D
O1347  H1348   1.014   .     S
C1349  O1350   1.223   .     D
C1349  O1351   1.395   .     S
O1351  H1352   1.014   .     S
C1353  O1355   1.398   .     S
C1353  O1354   1.219   .     D
O1355  H1356   1.014   .     S
C1357  O1358   1.223   .     D
C1357  O1359   1.393   .     S
O1359  H1360   1.014   .     S
O1361  C1365   1.304   .     A
O1361  Cu1373  1.985   .     S
O1362  C1366   1.304   .     A
O1362  Cu1374  1.985   .     S
O1363  Cu1373  1.980   .     S
O1363  C1366   1.307   .     A
O1364  Cu1374  1.980   .     S
O1364  C1365   1.307   .     A
C1365  C1382   1.473   .     S
C1366  C1381   1.473   .     S
O1367  C1371   1.297   .     A
O1367  Cu1373  1.927   .     S
O1368  C1372   1.297   .     A
O1368  Cu1374  1.927   .     S
O1369  C1372   1.295   .     A
O1369  Cu1373  1.924   .     S
O1370  C1371   1.295   .     A
O1370  Cu1374  1.924   .     S
C1371  C1375   1.405   .     S
C1372  C1376   1.405   .     S
Cu1373 Cu1374  2.709   .     S
Cu1373 N1387   2.036   .     S
Cu1374 N1388   2.036   .     S
C1376  C151    1.188   1_556 S
C1377  N1389   1.429   .     S
C1377  C1382   1.414   .     A
C1378  C1381   1.414   .     A
C1378  N1395   1.429   .     S
C1378  C1244   1.399   1_655 S
C1379  C1381   1.417   .     A
C1379  N1401   1.426   .     S
C1379  C1241   1.399   1_655 S
C1380  C1382   1.417   .     A
C1380  N1407   1.426   .     S
C1383  N1388   1.374   .     A
C1383  C1413   1.478   .     S
C1383  C1794   1.426   1_545 S
C1384  N1387   1.376   .     A
C1384  C1417   1.478   .     S
C1384  C1589   1.426   .     S
C1385  C1421   1.477   .     S
C1385  N1388   1.378   .     A
C1385  C1792   1.426   1_545 S
C1386  C1425   1.478   .     S
C1386  N1387   1.380   .     A
C1386  C1587   1.426   .     S
N1389  H1390   1.030   .     S
N1389  C1391   1.447   .     S
C1391  H1393   1.111   .     S
C1391  H1394   1.110   .     S
C1391  H1392   1.111   .     S
N1395  C1397   1.447   .     S
N1395  H1396   1.030   .     S
C1397  H1399   1.111   .     S
C1397  H1398   1.112   .     S
C1397  H1400   1.112   .     S
N1401  H1402   1.030   .     S
N1401  C1403   1.447   .     S
C1403  H1405   1.111   .     S
C1403  H1404   1.111   .     S
C1403  H1406   1.110   .     S
N1407  C1409   1.447   .     S
N1407  H1408   1.030   .     S
C1409  H1412   1.111   .     S
C1409  H1411   1.110   .     S
C1409  H1410   1.111   .     S
C1413  O1415   1.398   .     S
C1413  O1414   1.221   .     D
O1415  H1416   1.014   .     S
C1417  O1418   1.223   .     D
C1417  O1419   1.395   .     S
O1419  H1420   1.014   .     S
C1421  O1423   1.398   .     S
C1421  O1422   1.219   .     D
O1423  H1424   1.014   .     S
C1425  O1426   1.223   .     D
C1425  O1427   1.393   .     S
O1427  H1428   1.014   .     S
O1429  C1433   1.304   .     A
O1429  Cu1441  1.985   .     S
O1430  C1434   1.304   .     A
O1430  Cu1442  1.985   .     S
O1431  Cu1441  1.980   .     S
O1431  C1434   1.307   .     A
O1432  Cu1442  1.980   .     S
O1432  C1433   1.307   .     A
C1433  C1450   1.473   .     S
C1434  C1449   1.473   .     S
O1435  C1439   1.297   .     A
O1435  Cu1441  1.927   .     S
O1436  C1440   1.297   .     A
O1436  Cu1442  1.927   .     S
O1437  C1440   1.295   .     A
O1437  Cu1441  1.924   .     S
O1438  C1439   1.295   .     A
O1438  Cu1442  1.924   .     S
C1439  C1443   1.405   .     S
C1440  C1444   1.405   .     S
Cu1441 Cu1442  2.709   .     S
Cu1441 N1455   2.036   .     S
Cu1442 N1456   2.036   .     S
C1444  C219    1.188   1_556 S
C1445  N1457   1.429   .     S
C1445  C1450   1.414   .     A
C1445  C1583   1.399   1_455 S
C1446  C1449   1.414   .     A
C1446  N1463   1.429   .     S
C1446  C1516   1.399   .     S
C1447  C1449   1.417   .     A
C1447  N1469   1.426   .     S
C1447  C1513   1.399   .     S
C1448  C1450   1.417   .     A
C1448  N1475   1.426   .     S
C1448  C1582   1.399   1_455 S
C1451  N1456   1.374   .     A
C1451  C1481   1.478   .     S
C1452  N1455   1.376   .     A
C1452  C1485   1.478   .     S
C1452  C1657   1.426   .     S
C1453  C1489   1.477   .     S
C1453  N1456   1.378   .     A
C1454  C1493   1.478   .     S
C1454  N1455   1.380   .     A
C1454  C1655   1.426   .     S
N1457  H1458   1.030   .     S
N1457  C1459   1.447   .     S
C1459  H1461   1.111   .     S
C1459  H1462   1.110   .     S
C1459  H1460   1.111   .     S
N1463  C1465   1.447   .     S
N1463  H1464   1.030   .     S
C1465  H1467   1.111   .     S
C1465  H1466   1.112   .     S
C1465  H1468   1.112   .     S
N1469  H1470   1.030   .     S
N1469  C1471   1.447   .     S
C1471  H1473   1.111   .     S
C1471  H1472   1.111   .     S
C1471  H1474   1.110   .     S
N1475  C1477   1.447   .     S
N1475  H1476   1.030   .     S
C1477  H1480   1.111   .     S
C1477  H1479   1.110   .     S
C1477  H1478   1.111   .     S
C1481  O1483   1.398   .     S
C1481  O1482   1.221   .     D
O1483  H1484   1.014   .     S
C1485  O1486   1.223   .     D
C1485  O1487   1.395   .     S
O1487  H1488   1.014   .     S
C1489  O1491   1.398   .     S
C1489  O1490   1.219   .     D
O1491  H1492   1.014   .     S
C1493  O1494   1.223   .     D
C1493  O1495   1.393   .     S
O1495  H1496   1.014   .     S
O1497  C1501   1.304   .     A
O1497  Cu1509  1.985   .     S
O1498  C1502   1.304   .     A
O1498  Cu1510  1.985   .     S
O1499  Cu1509  1.980   .     S
O1499  C1502   1.307   .     A
O1500  Cu1510  1.980   .     S
O1500  C1501   1.307   .     A
C1501  C1518   1.473   .     S
C1502  C1517   1.473   .     S
O1503  C1507   1.297   .     A
O1503  Cu1509  1.927   .     S
O1504  C1508   1.297   .     A
O1504  Cu1510  1.927   .     S
O1505  C1508   1.295   .     A
O1505  Cu1509  1.924   .     S
O1506  C1507   1.295   .     A
O1506  Cu1510  1.924   .     S
C1507  C1511   1.405   .     S
C1508  C1512   1.405   .     S
Cu1509 Cu1510  2.709   .     S
Cu1509 N1523   2.036   .     S
Cu1510 N1524   2.036   .     S
C1512  C287    1.188   1_556 S
C1513  N1525   1.429   .     S
C1513  C1518   1.414   .     A
C1514  C1517   1.414   .     A
C1514  N1531   1.429   .     S
C1514  C1584   1.399   .     S
C1515  C1517   1.417   .     A
C1515  N1537   1.426   .     S
C1515  C1581   1.399   .     S
C1516  C1518   1.417   .     A
C1516  N1543   1.426   .     S
C1519  N1524   1.374   .     A
C1519  C1549   1.478   .     S
C1520  N1523   1.376   .     A
C1520  C1553   1.478   .     S
C1520  C1725   1.426   .     S
C1521  C1557   1.477   .     S
C1521  N1524   1.378   .     A
C1522  C1561   1.478   .     S
C1522  N1523   1.380   .     A
C1522  C1723   1.426   .     S
N1525  H1526   1.030   .     S
N1525  C1527   1.447   .     S
C1527  H1529   1.111   .     S
C1527  H1530   1.110   .     S
C1527  H1528   1.111   .     S
N1531  C1533   1.447   .     S
N1531  H1532   1.030   .     S
C1533  H1535   1.111   .     S
C1533  H1534   1.112   .     S
C1533  H1536   1.112   .     S
N1537  H1538   1.030   .     S
N1537  C1539   1.447   .     S
C1539  H1541   1.111   .     S
C1539  H1540   1.111   .     S
C1539  H1542   1.110   .     S
N1543  C1545   1.447   .     S
N1543  H1544   1.030   .     S
C1545  H1548   1.111   .     S
C1545  H1547   1.110   .     S
C1545  H1546   1.111   .     S
C1549  O1551   1.398   .     S
C1549  O1550   1.221   .     D
O1551  H1552   1.014   .     S
C1553  O1554   1.223   .     D
C1553  O1555   1.395   .     S
O1555  H1556   1.014   .     S
C1557  O1559   1.398   .     S
C1557  O1558   1.219   .     D
O1559  H1560   1.014   .     S
C1561  O1562   1.223   .     D
C1561  O1563   1.393   .     S
O1563  H1564   1.014   .     S
O1565  C1569   1.304   .     A
O1565  Cu1577  1.985   .     S
O1566  C1570   1.304   .     A
O1566  Cu1578  1.985   .     S
O1567  Cu1577  1.980   .     S
O1567  C1570   1.307   .     A
O1568  Cu1578  1.980   .     S
O1568  C1569   1.307   .     A
C1569  C1586   1.473   .     S
C1570  C1585   1.473   .     S
O1571  C1575   1.297   .     A
O1571  Cu1577  1.927   .     S
O1572  C1576   1.297   .     A
O1572  Cu1578  1.927   .     S
O1573  C1576   1.295   .     A
O1573  Cu1577  1.924   .     S
O1574  C1575   1.295   .     A
O1574  Cu1578  1.924   .     S
C1575  C1579   1.405   .     S
C1576  C1580   1.405   .     S
Cu1577 Cu1578  2.709   .     S
Cu1577 N1591   2.036   .     S
Cu1578 N1592   2.036   .     S
C1580  C355    1.188   1_556 S
C1581  N1593   1.429   .     S
C1581  C1586   1.414   .     A
C1582  C1585   1.414   .     A
C1582  N1599   1.429   .     S
C1582  C1448   1.399   1_655 S
C1583  C1585   1.417   .     A
C1583  N1605   1.426   .     S
C1583  C1445   1.399   1_655 S
C1584  C1586   1.417   .     A
C1584  N1611   1.426   .     S
C1587  N1592   1.374   .     A
C1587  C1617   1.478   .     S
C1588  N1591   1.376   .     A
C1588  C1621   1.478   .     S
C1588  C1793   1.426   .     S
C1589  C1625   1.477   .     S
C1589  N1592   1.378   .     A
C1590  C1629   1.478   .     S
C1590  N1591   1.380   .     A
C1590  C1791   1.426   .     S
N1593  H1594   1.030   .     S
N1593  C1595   1.447   .     S
C1595  H1597   1.111   .     S
C1595  H1598   1.110   .     S
C1595  H1596   1.111   .     S
N1599  C1601   1.447   .     S
N1599  H1600   1.030   .     S
C1601  H1603   1.111   .     S
C1601  H1602   1.112   .     S
C1601  H1604   1.112   .     S
N1605  H1606   1.030   .     S
N1605  C1607   1.447   .     S
C1607  H1609   1.111   .     S
C1607  H1608   1.111   .     S
C1607  H1610   1.110   .     S
N1611  C1613   1.447   .     S
N1611  H1612   1.030   .     S
C1613  H1616   1.111   .     S
C1613  H1615   1.110   .     S
C1613  H1614   1.111   .     S
C1617  O1619   1.398   .     S
C1617  O1618   1.221   .     D
O1619  H1620   1.014   .     S
C1621  O1622   1.223   .     D
C1621  O1623   1.395   .     S
O1623  H1624   1.014   .     S
C1625  O1627   1.398   .     S
C1625  O1626   1.219   .     D
O1627  H1628   1.014   .     S
C1629  O1630   1.223   .     D
C1629  O1631   1.393   .     S
O1631  H1632   1.014   .     S
O1633  C1637   1.304   .     A
O1633  Cu1645  1.985   .     S
O1634  C1638   1.304   .     A
O1634  Cu1646  1.985   .     S
O1635  Cu1645  1.980   .     S
O1635  C1638   1.307   .     A
O1636  Cu1646  1.980   .     S
O1636  C1637   1.307   .     A
C1637  C1654   1.473   .     S
C1638  C1653   1.473   .     S
O1639  C1643   1.297   .     A
O1639  Cu1645  1.927   .     S
O1640  C1644   1.297   .     A
O1640  Cu1646  1.927   .     S
O1641  C1644   1.295   .     A
O1641  Cu1645  1.924   .     S
O1642  C1643   1.295   .     A
O1642  Cu1646  1.924   .     S
C1643  C1647   1.405   .     S
C1644  C1648   1.405   .     S
Cu1645 Cu1646  2.709   .     S
Cu1645 N1659   2.036   .     S
Cu1646 N1660   2.036   .     S
C1648  C423    1.188   1_556 S
C1649  N1661   1.429   .     S
C1649  C1654   1.414   .     A
C1649  C1787   1.399   1_455 S
C1650  C1653   1.414   .     A
C1650  N1667   1.429   .     S
C1650  C1720   1.399   .     S
C1651  C1653   1.417   .     A
C1651  N1673   1.426   .     S
C1651  C1717   1.399   .     S
C1652  C1654   1.417   .     A
C1652  N1679   1.426   .     S
C1652  C1786   1.399   1_455 S
C1655  N1660   1.374   .     A
C1655  C1685   1.478   .     S
C1656  N1659   1.376   .     A
C1656  C1689   1.478   .     S
C1656  C1249   1.426   1_565 S
C1657  C1693   1.477   .     S
C1657  N1660   1.378   .     A
C1658  C1697   1.478   .     S
C1658  N1659   1.380   .     A
C1658  C1247   1.426   1_565 S
N1661  H1662   1.030   .     S
N1661  C1663   1.447   .     S
C1663  H1665   1.111   .     S
C1663  H1666   1.110   .     S
C1663  H1664   1.111   .     S
N1667  C1669   1.447   .     S
N1667  H1668   1.030   .     S
C1669  H1671   1.111   .     S
C1669  H1670   1.112   .     S
C1669  H1672   1.112   .     S
N1673  H1674   1.030   .     S
N1673  C1675   1.447   .     S
C1675  H1677   1.111   .     S
C1675  H1676   1.111   .     S
C1675  H1678   1.110   .     S
N1679  C1681   1.447   .     S
N1679  H1680   1.030   .     S
C1681  H1684   1.111   .     S
C1681  H1683   1.110   .     S
C1681  H1682   1.111   .     S
C1685  O1687   1.398   .     S
C1685  O1686   1.221   .     D
O1687  H1688   1.014   .     S
C1689  O1690   1.223   .     D
C1689  O1691   1.395   .     S
O1691  H1692   1.014   .     S
C1693  O1695   1.398   .     S
C1693  O1694   1.219   .     D
O1695  H1696   1.014   .     S
C1697  O1698   1.223   .     D
C1697  O1699   1.393   .     S
O1699  H1700   1.014   .     S
O1701  C1705   1.304   .     A
O1701  Cu1713  1.985   .     S
O1702  C1706   1.304   .     A
O1702  Cu1714  1.985   .     S
O1703  Cu1713  1.980   .     S
O1703  C1706   1.307   .     A
O1704  Cu1714  1.980   .     S
O1704  C1705   1.307   .     A
C1705  C1722   1.473   .     S
C1706  C1721   1.473   .     S
O1707  C1711   1.297   .     A
O1707  Cu1713  1.927   .     S
O1708  C1712   1.297   .     A
O1708  Cu1714  1.927   .     S
O1709  C1712   1.295   .     A
O1709  Cu1713  1.924   .     S
O1710  C1711   1.295   .     A
O1710  Cu1714  1.924   .     S
C1711  C1715   1.405   .     S
C1712  C1716   1.405   .     S
Cu1713 Cu1714  2.709   .     S
Cu1713 N1727   2.036   .     S
Cu1714 N1728   2.036   .     S
C1716  C491    1.188   1_556 S
C1717  N1729   1.429   .     S
C1717  C1722   1.414   .     A
C1718  C1721   1.414   .     A
C1718  N1735   1.429   .     S
C1718  C1788   1.399   .     S
C1719  C1721   1.417   .     A
C1719  N1741   1.426   .     S
C1719  C1785   1.399   .     S
C1720  C1722   1.417   .     A
C1720  N1747   1.426   .     S
C1723  N1728   1.374   .     A
C1723  C1753   1.478   .     S
C1724  N1727   1.376   .     A
C1724  C1757   1.478   .     S
C1724  C1317   1.426   1_565 S
C1725  C1761   1.477   .     S
C1725  N1728   1.378   .     A
C1726  C1765   1.478   .     S
C1726  N1727   1.380   .     A
C1726  C1315   1.426   1_565 S
N1729  H1730   1.030   .     S
N1729  C1731   1.447   .     S
C1731  H1733   1.111   .     S
C1731  H1734   1.110   .     S
C1731  H1732   1.111   .     S
N1735  C1737   1.447   .     S
N1735  H1736   1.030   .     S
C1737  H1739   1.111   .     S
C1737  H1738   1.112   .     S
C1737  H1740   1.112   .     S
N1741  H1742   1.030   .     S
N1741  C1743   1.447   .     S
C1743  H1745   1.111   .     S
C1743  H1744   1.111   .     S
C1743  H1746   1.110   .     S
N1747  C1749   1.447   .     S
N1747  H1748   1.030   .     S
C1749  H1752   1.111   .     S
C1749  H1751   1.110   .     S
C1749  H1750   1.111   .     S
C1753  O1755   1.398   .     S
C1753  O1754   1.221   .     D
O1755  H1756   1.014   .     S
C1757  O1758   1.223   .     D
C1757  O1759   1.395   .     S
O1759  H1760   1.014   .     S
C1761  O1763   1.398   .     S
C1761  O1762   1.219   .     D
O1763  H1764   1.014   .     S
C1765  O1766   1.223   .     D
C1765  O1767   1.393   .     S
O1767  H1768   1.014   .     S
O1769  C1773   1.304   .     A
O1769  Cu1781  1.985   .     S
O1770  C1774   1.304   .     A
O1770  Cu1782  1.985   .     S
O1771  Cu1781  1.980   .     S
O1771  C1774   1.307   .     A
O1772  Cu1782  1.980   .     S
O1772  C1773   1.307   .     A
C1773  C1790   1.473   .     S
C1774  C1789   1.473   .     S
O1775  C1779   1.297   .     A
O1775  Cu1781  1.927   .     S
O1776  C1780   1.297   .     A
O1776  Cu1782  1.927   .     S
O1777  C1780   1.295   .     A
O1777  Cu1781  1.924   .     S
O1778  C1779   1.295   .     A
O1778  Cu1782  1.924   .     S
C1779  C1783   1.405   .     S
C1780  C1784   1.405   .     S
Cu1781 Cu1782  2.709   .     S
Cu1781 N1795   2.036   .     S
Cu1782 N1796   2.036   .     S
C1784  C559    1.188   1_556 S
C1785  N1797   1.429   .     S
C1785  C1790   1.414   .     A
C1786  C1789   1.414   .     A
C1786  N1803   1.429   .     S
C1786  C1652   1.399   1_655 S
C1787  C1789   1.417   .     A
C1787  N1809   1.426   .     S
C1787  C1649   1.399   1_655 S
C1788  C1790   1.417   .     A
C1788  N1815   1.426   .     S
C1791  N1796   1.374   .     A
C1791  C1821   1.478   .     S
C1792  N1795   1.376   .     A
C1792  C1825   1.478   .     S
C1792  C1385   1.426   1_565 S
C1793  C1829   1.477   .     S
C1793  N1796   1.378   .     A
C1794  C1833   1.478   .     S
C1794  N1795   1.380   .     A
C1794  C1383   1.426   1_565 S
N1797  H1798   1.030   .     S
N1797  C1799   1.447   .     S
C1799  H1801   1.111   .     S
C1799  H1802   1.110   .     S
C1799  H1800   1.111   .     S
N1803  C1805   1.447   .     S
N1803  H1804   1.030   .     S
C1805  H1807   1.111   .     S
C1805  H1806   1.112   .     S
C1805  H1808   1.112   .     S
N1809  H1810   1.030   .     S
N1809  C1811   1.447   .     S
C1811  H1813   1.111   .     S
C1811  H1812   1.111   .     S
C1811  H1814   1.110   .     S
N1815  C1817   1.447   .     S
N1815  H1816   1.030   .     S
C1817  H1820   1.111   .     S
C1817  H1819   1.110   .     S
C1817  H1818   1.111   .     S
C1821  O1823   1.398   .     S
C1821  O1822   1.221   .     D
O1823  H1824   1.014   .     S
C1825  O1826   1.223   .     D
C1825  O1827   1.395   .     S
O1827  H1828   1.014   .     S
C1829  O1831   1.398   .     S
C1829  O1830   1.219   .     D
O1831  H1832   1.014   .     S
C1833  O1834   1.223   .     D
C1833  O1835   1.393   .     S
O1835  H1836   1.014   .     S
