data_str_m2_o2_o10_pcu_sym.95
_audit_creation_date              2020-01-03
_audit_creation_method            'Materials Studio'
_symmetry_space_group_name_H-M    'P1'
_symmetry_Int_Tables_number       1
_symmetry_cell_setting            triclinic
loop_
_symmetry_equiv_pos_as_xyz
  x,y,z
_cell_length_a                    26.3469
_cell_length_b                    30.2326
_cell_length_c                    27.7275
_cell_angle_alpha                 90.1441
_cell_angle_beta                  97.5098
_cell_angle_gamma                 90.1801
loop_
_atom_site_label
_atom_site_type_symbol
_atom_site_fract_x
_atom_site_fract_y
_atom_site_fract_z
_atom_site_U_iso_or_equiv
_atom_site_adp_type
_atom_site_occupancy
C1     C     0.16677   0.16496   0.24995   0.00000  Uiso   1.00
C2     C     0.20445   0.27297   0.45071   0.00000  Uiso   1.00
C3     C     0.16683   0.24996   0.02735   0.00000  Uiso   1.00
C4     C     0.16681   0.24996   0.47264   0.00000  Uiso   1.00
C5     C     0.06813   0.25056   0.23782   0.00000  Uiso   1.00
C6     C     0.26518   0.24918   0.26213   0.00000  Uiso   1.00
C7     C     0.01336   0.25529   0.23160   0.00000  Uiso   1.00
C8     C     0.31986   0.24382   0.26814   0.00000  Uiso   1.00
C9     C     0.14788   0.04731   0.28609   0.00000  Uiso   1.00
C10    C     0.15092   0.45268   0.20837   0.00000  Uiso   1.00
C11    C     0.14725   0.09324   0.28631   0.00000  Uiso   1.00
C12    C     0.16684   0.33507   0.25008   0.00000  Uiso   1.00
C13    C     0.15029   0.40675   0.20798   0.00000  Uiso   1.00
C14    C     0.16775   0.11677   0.24994   0.00000  Uiso   1.00
C15    C     0.16786   0.38332   0.25035   0.00000  Uiso   1.00
C16    C     0.18955   0.09406   0.21369   0.00000  Uiso   1.00
C17    C     0.18672   0.40622   0.29298   0.00000  Uiso   1.00
C18    C     0.19228   0.04791   0.21438   0.00000  Uiso   1.00
C19    C     0.18932   0.45239   0.29314   0.00000  Uiso   1.00
C20    C     0.17033   0.02435   0.25034   0.00000  Uiso   1.00
C21    C     0.17035   0.47580   0.25072   0.00000  Uiso   1.00
C22    C     0.32773   0.31706   0.18630   0.00000  Uiso   1.00
C23    C     0.18875   0.28500   0.05681   0.00000  Uiso   1.00
C24    C     0.00318   0.18083   0.31177   0.00000  Uiso   1.00
C25    C     0.26776   0.02800   0.18967   0.00000  Uiso   1.00
C26    C     0.26190   0.47336   0.34101   0.00000  Uiso   1.00
C27    C     0.12918   0.22689   0.44130   0.00000  Uiso   1.00
C28    C     0.18865   0.28418   0.10752   0.00000  Uiso   1.00
C29    C     0.13016   0.22698   0.39071   0.00000  Uiso   1.00
C30    C     0.14485   0.21578   0.10187   0.00000  Uiso   1.00
C31    C     0.20342   0.27285   0.39985   0.00000  Uiso   1.00
C32    C     0.14492   0.21491   0.05116   0.00000  Uiso   1.00
Cu33   Cu    0.16667   0.24999   0.29822   0.00000  Uiso   1.00
Cu34   Cu    0.16667   0.25000   0.20179   0.00000  Uiso   1.00
H35    H     0.13041   0.02961   0.31363   0.00000  Uiso   1.00
H36    H     0.10153   0.20857   0.36743   0.00000  Uiso   1.00
H37    H     0.12738   0.18872   0.11920   0.00000  Uiso   1.00
H38    H     0.23241   0.29097   0.38377   0.00000  Uiso   1.00
H39    H     0.12838   0.18649   0.03112   0.00000  Uiso   1.00
H40    H     0.23513   0.29059   0.47246   0.00000  Uiso   1.00
H41    H     0.03516   0.32749   0.18822   0.00000  Uiso   1.00
H42    H     0.30972   0.33275   0.21622   0.00000  Uiso   1.00
H43    H     0.30733   0.32936   0.15140   0.00000  Uiso   1.00
H44    H     0.02170   0.16505   0.28224   0.00000  Uiso   1.00
H45    H     0.29527   0.17154   0.30832   0.00000  Uiso   1.00
H46    H     0.13574   0.47026   0.17567   0.00000  Uiso   1.00
H47    H     0.02167   0.16739   0.34688   0.00000  Uiso   1.00
H48    H     0.28090   0.01307   0.22576   0.00000  Uiso   1.00
H49    H     0.28192   0.06263   0.18832   0.00000  Uiso   1.00
H50    H     0.28510   0.00869   0.16198   0.00000  Uiso   1.00
H51    H     0.27721   0.48889   0.30953   0.00000  Uiso   1.00
H52    H     0.27631   0.43893   0.34638   0.00000  Uiso   1.00
H53    H     0.27681   0.49262   0.37396   0.00000  Uiso   1.00
H54    H     0.12979   0.11036   0.31430   0.00000  Uiso   1.00
H55    H     0.13517   0.38956   0.17484   0.00000  Uiso   1.00
H56    H     0.20537   0.11206   0.18534   0.00000  Uiso   1.00
H57    H     0.20027   0.38839   0.32599   0.00000  Uiso   1.00
H58    H     0.20538   0.31339   0.04105   0.00000  Uiso   1.00
H59    H     0.09859   0.20917   0.45535   0.00000  Uiso   1.00
H60    H     0.20612   0.31122   0.12934   0.00000  Uiso   1.00
N61    N     0.16667   0.25001   0.12935   0.00000  Uiso   1.00
N62    N     0.16667   0.24999   0.37066   0.00000  Uiso   1.00
O63    O     0.16667   0.18572   0.29072   0.00000  Uiso   1.00
O64    O     0.01008   0.22717   0.31202   0.00000  Uiso   1.00
O65    O     0.21405   0.02576   0.17855   0.00000  Uiso   1.00
O66    O     0.20798   0.47466   0.33541   0.00000  Uiso   1.00
O67    O     0.16666   0.31428   0.20929   0.00000  Uiso   1.00
O68    O     0.16667   0.18573   0.20928   0.00000  Uiso   1.00
O69    O     0.16666   0.31427   0.29072   0.00000  Uiso   1.00
O70    O     0.09161   0.25000   0.28132   0.00000  Uiso   1.00
O71    O     0.24172   0.25000   0.21868   0.00000  Uiso   1.00
O72    O     0.09161   0.25000   0.19989   0.00000  Uiso   1.00
O73    O     0.24172   0.25000   0.30012   0.00000  Uiso   1.00
O74    O     0.32293   0.27059   0.18715   0.00000  Uiso   1.00
C75    C     0.50010   0.16496   0.24995   0.00000  Uiso   1.00
C76    C     0.53778   0.27297   0.45071   0.00000  Uiso   1.00
C77    C     0.50017   0.24996   0.02735   0.00000  Uiso   1.00
C78    C     0.50014   0.24996   0.47264   0.00000  Uiso   1.00
C79    C     0.40146   0.25056   0.23782   0.00000  Uiso   1.00
C80    C     0.59851   0.24918   0.26213   0.00000  Uiso   1.00
C81    C     0.34670   0.25529   0.23160   0.00000  Uiso   1.00
C82    C     0.65319   0.24382   0.26814   0.00000  Uiso   1.00
C83    C     0.48122   0.04731   0.28609   0.00000  Uiso   1.00
C84    C     0.48425   0.45268   0.20837   0.00000  Uiso   1.00
C85    C     0.48058   0.09324   0.28631   0.00000  Uiso   1.00
C86    C     0.50017   0.33507   0.25008   0.00000  Uiso   1.00
C87    C     0.48363   0.40675   0.20798   0.00000  Uiso   1.00
C88    C     0.50109   0.11677   0.24994   0.00000  Uiso   1.00
C89    C     0.50119   0.38332   0.25035   0.00000  Uiso   1.00
C90    C     0.52289   0.09406   0.21369   0.00000  Uiso   1.00
C91    C     0.52005   0.40622   0.29298   0.00000  Uiso   1.00
C92    C     0.52561   0.04791   0.21438   0.00000  Uiso   1.00
C93    C     0.52266   0.45239   0.29314   0.00000  Uiso   1.00
C94    C     0.50366   0.02435   0.25034   0.00000  Uiso   1.00
C95    C     0.50369   0.47580   0.25072   0.00000  Uiso   1.00
C96    C     0.66106   0.31706   0.18630   0.00000  Uiso   1.00
C97    C     0.52208   0.28500   0.05681   0.00000  Uiso   1.00
C98    C     0.33651   0.18083   0.31177   0.00000  Uiso   1.00
C99    C     0.60110   0.02800   0.18967   0.00000  Uiso   1.00
C100   C     0.59523   0.47336   0.34101   0.00000  Uiso   1.00
C101   C     0.46252   0.22689   0.44130   0.00000  Uiso   1.00
C102   C     0.52199   0.28418   0.10752   0.00000  Uiso   1.00
C103   C     0.46350   0.22698   0.39071   0.00000  Uiso   1.00
C104   C     0.47818   0.21578   0.10187   0.00000  Uiso   1.00
C105   C     0.53675   0.27285   0.39985   0.00000  Uiso   1.00
C106   C     0.47825   0.21491   0.05116   0.00000  Uiso   1.00
Cu107  Cu    0.50000   0.24999   0.29822   0.00000  Uiso   1.00
Cu108  Cu    0.50000   0.25000   0.20179   0.00000  Uiso   1.00
H109   H     0.46374   0.02961   0.31363   0.00000  Uiso   1.00
H110   H     0.43486   0.20857   0.36743   0.00000  Uiso   1.00
H111   H     0.46072   0.18872   0.11920   0.00000  Uiso   1.00
H112   H     0.56574   0.29097   0.38377   0.00000  Uiso   1.00
H113   H     0.46172   0.18649   0.03112   0.00000  Uiso   1.00
H114   H     0.56846   0.29059   0.47246   0.00000  Uiso   1.00
H115   H     0.36850   0.32749   0.18822   0.00000  Uiso   1.00
H116   H     0.64305   0.33275   0.21622   0.00000  Uiso   1.00
H117   H     0.64067   0.32936   0.15140   0.00000  Uiso   1.00
H118   H     0.35504   0.16505   0.28224   0.00000  Uiso   1.00
H119   H     0.62861   0.17154   0.30832   0.00000  Uiso   1.00
H120   H     0.46907   0.47026   0.17567   0.00000  Uiso   1.00
H121   H     0.35500   0.16739   0.34688   0.00000  Uiso   1.00
H122   H     0.61424   0.01307   0.22576   0.00000  Uiso   1.00
H123   H     0.61526   0.06263   0.18832   0.00000  Uiso   1.00
H124   H     0.61843   0.00869   0.16198   0.00000  Uiso   1.00
H125   H     0.61054   0.48889   0.30953   0.00000  Uiso   1.00
H126   H     0.60965   0.43893   0.34638   0.00000  Uiso   1.00
H127   H     0.61014   0.49262   0.37396   0.00000  Uiso   1.00
H128   H     0.46312   0.11036   0.31430   0.00000  Uiso   1.00
H129   H     0.46850   0.38956   0.17484   0.00000  Uiso   1.00
H130   H     0.53870   0.11206   0.18534   0.00000  Uiso   1.00
H131   H     0.53361   0.38839   0.32599   0.00000  Uiso   1.00
H132   H     0.53871   0.31339   0.04105   0.00000  Uiso   1.00
H133   H     0.43192   0.20917   0.45535   0.00000  Uiso   1.00
H134   H     0.53946   0.31122   0.12934   0.00000  Uiso   1.00
N135   N     0.50000   0.25001   0.12935   0.00000  Uiso   1.00
N136   N     0.50000   0.24999   0.37066   0.00000  Uiso   1.00
O137   O     0.50000   0.18572   0.29072   0.00000  Uiso   1.00
O138   O     0.34342   0.22717   0.31202   0.00000  Uiso   1.00
O139   O     0.54739   0.02576   0.17855   0.00000  Uiso   1.00
O140   O     0.54131   0.47466   0.33541   0.00000  Uiso   1.00
O141   O     0.50000   0.31428   0.20929   0.00000  Uiso   1.00
O142   O     0.50000   0.18573   0.20928   0.00000  Uiso   1.00
O143   O     0.50000   0.31427   0.29072   0.00000  Uiso   1.00
O144   O     0.42495   0.25000   0.28132   0.00000  Uiso   1.00
O145   O     0.57505   0.25000   0.21868   0.00000  Uiso   1.00
O146   O     0.42495   0.25000   0.19989   0.00000  Uiso   1.00
O147   O     0.57505   0.25000   0.30012   0.00000  Uiso   1.00
O148   O     0.65626   0.27059   0.18715   0.00000  Uiso   1.00
C149   C     0.83343   0.16496   0.24995   0.00000  Uiso   1.00
C150   C     0.87112   0.27297   0.45071   0.00000  Uiso   1.00
C151   C     0.83350   0.24996   0.02735   0.00000  Uiso   1.00
C152   C     0.83348   0.24996   0.47264   0.00000  Uiso   1.00
C153   C     0.73479   0.25056   0.23782   0.00000  Uiso   1.00
C154   C     0.93184   0.24918   0.26213   0.00000  Uiso   1.00
C155   C     0.68003   0.25529   0.23160   0.00000  Uiso   1.00
C156   C     0.98652   0.24382   0.26814   0.00000  Uiso   1.00
C157   C     0.81455   0.04731   0.28609   0.00000  Uiso   1.00
C158   C     0.81758   0.45268   0.20837   0.00000  Uiso   1.00
C159   C     0.81391   0.09324   0.28631   0.00000  Uiso   1.00
C160   C     0.83351   0.33507   0.25008   0.00000  Uiso   1.00
C161   C     0.81696   0.40675   0.20798   0.00000  Uiso   1.00
C162   C     0.83442   0.11677   0.24994   0.00000  Uiso   1.00
C163   C     0.83453   0.38332   0.25035   0.00000  Uiso   1.00
C164   C     0.85622   0.09406   0.21369   0.00000  Uiso   1.00
C165   C     0.85338   0.40622   0.29298   0.00000  Uiso   1.00
C166   C     0.85895   0.04791   0.21438   0.00000  Uiso   1.00
C167   C     0.85599   0.45239   0.29314   0.00000  Uiso   1.00
C168   C     0.83700   0.02435   0.25034   0.00000  Uiso   1.00
C169   C     0.83702   0.47580   0.25072   0.00000  Uiso   1.00
C170   C     0.99439   0.31706   0.18630   0.00000  Uiso   1.00
C171   C     0.85541   0.28500   0.05681   0.00000  Uiso   1.00
C172   C     0.66984   0.18083   0.31177   0.00000  Uiso   1.00
C173   C     0.93443   0.02800   0.18967   0.00000  Uiso   1.00
C174   C     0.92857   0.47336   0.34101   0.00000  Uiso   1.00
C175   C     0.79585   0.22689   0.44130   0.00000  Uiso   1.00
C176   C     0.85532   0.28418   0.10752   0.00000  Uiso   1.00
C177   C     0.79683   0.22698   0.39071   0.00000  Uiso   1.00
C178   C     0.81151   0.21578   0.10187   0.00000  Uiso   1.00
C179   C     0.87008   0.27285   0.39985   0.00000  Uiso   1.00
C180   C     0.81158   0.21491   0.05116   0.00000  Uiso   1.00
Cu181  Cu    0.83333   0.24999   0.29822   0.00000  Uiso   1.00
Cu182  Cu    0.83333   0.25000   0.20179   0.00000  Uiso   1.00
H183   H     0.79708   0.02961   0.31363   0.00000  Uiso   1.00
H184   H     0.76819   0.20857   0.36743   0.00000  Uiso   1.00
H185   H     0.79405   0.18872   0.11920   0.00000  Uiso   1.00
H186   H     0.89907   0.29097   0.38377   0.00000  Uiso   1.00
H187   H     0.79505   0.18649   0.03112   0.00000  Uiso   1.00
H188   H     0.90180   0.29059   0.47246   0.00000  Uiso   1.00
H189   H     0.70183   0.32749   0.18822   0.00000  Uiso   1.00
H190   H     0.97639   0.33275   0.21622   0.00000  Uiso   1.00
H191   H     0.97400   0.32936   0.15140   0.00000  Uiso   1.00
H192   H     0.68837   0.16505   0.28224   0.00000  Uiso   1.00
H193   H     0.96194   0.17154   0.30832   0.00000  Uiso   1.00
H194   H     0.80240   0.47026   0.17567   0.00000  Uiso   1.00
H195   H     0.68834   0.16739   0.34688   0.00000  Uiso   1.00
H196   H     0.94757   0.01307   0.22576   0.00000  Uiso   1.00
H197   H     0.94859   0.06263   0.18832   0.00000  Uiso   1.00
H198   H     0.95176   0.00869   0.16198   0.00000  Uiso   1.00
H199   H     0.94387   0.48889   0.30953   0.00000  Uiso   1.00
H200   H     0.94298   0.43893   0.34638   0.00000  Uiso   1.00
H201   H     0.94347   0.49262   0.37396   0.00000  Uiso   1.00
H202   H     0.79645   0.11036   0.31430   0.00000  Uiso   1.00
H203   H     0.80183   0.38956   0.17484   0.00000  Uiso   1.00
H204   H     0.87204   0.11206   0.18534   0.00000  Uiso   1.00
H205   H     0.86694   0.38839   0.32599   0.00000  Uiso   1.00
H206   H     0.87204   0.31339   0.04105   0.00000  Uiso   1.00
H207   H     0.76526   0.20917   0.45535   0.00000  Uiso   1.00
H208   H     0.87279   0.31122   0.12934   0.00000  Uiso   1.00
N209   N     0.83333   0.25001   0.12935   0.00000  Uiso   1.00
N210   N     0.83333   0.24999   0.37066   0.00000  Uiso   1.00
O211   O     0.83334   0.18572   0.29072   0.00000  Uiso   1.00
O212   O     0.67675   0.22717   0.31202   0.00000  Uiso   1.00
O213   O     0.88072   0.02576   0.17855   0.00000  Uiso   1.00
O214   O     0.87464   0.47466   0.33541   0.00000  Uiso   1.00
O215   O     0.83333   0.31428   0.20929   0.00000  Uiso   1.00
O216   O     0.83334   0.18573   0.20928   0.00000  Uiso   1.00
O217   O     0.83333   0.31427   0.29072   0.00000  Uiso   1.00
O218   O     0.75828   0.25000   0.28132   0.00000  Uiso   1.00
O219   O     0.90839   0.25000   0.21868   0.00000  Uiso   1.00
O220   O     0.75828   0.25000   0.19989   0.00000  Uiso   1.00
O221   O     0.90839   0.25000   0.30012   0.00000  Uiso   1.00
O222   O     0.98960   0.27059   0.18715   0.00000  Uiso   1.00
C223   C     0.16677   0.66496   0.24995   0.00000  Uiso   1.00
C224   C     0.20445   0.77297   0.45071   0.00000  Uiso   1.00
C225   C     0.16683   0.74996   0.02735   0.00000  Uiso   1.00
C226   C     0.16681   0.74996   0.47264   0.00000  Uiso   1.00
C227   C     0.06813   0.75056   0.23782   0.00000  Uiso   1.00
C228   C     0.26518   0.74918   0.26213   0.00000  Uiso   1.00
C229   C     0.01336   0.75529   0.23160   0.00000  Uiso   1.00
C230   C     0.31986   0.74382   0.26814   0.00000  Uiso   1.00
C231   C     0.14788   0.54731   0.28609   0.00000  Uiso   1.00
C232   C     0.15092   0.95268   0.20837   0.00000  Uiso   1.00
C233   C     0.14725   0.59324   0.28631   0.00000  Uiso   1.00
C234   C     0.16684   0.83507   0.25008   0.00000  Uiso   1.00
C235   C     0.15029   0.90675   0.20798   0.00000  Uiso   1.00
C236   C     0.16775   0.61677   0.24994   0.00000  Uiso   1.00
C237   C     0.16786   0.88332   0.25035   0.00000  Uiso   1.00
C238   C     0.18955   0.59406   0.21369   0.00000  Uiso   1.00
C239   C     0.18672   0.90622   0.29298   0.00000  Uiso   1.00
C240   C     0.19228   0.54791   0.21438   0.00000  Uiso   1.00
C241   C     0.18932   0.95239   0.29314   0.00000  Uiso   1.00
C242   C     0.17033   0.52435   0.25034   0.00000  Uiso   1.00
C243   C     0.17035   0.97580   0.25072   0.00000  Uiso   1.00
C244   C     0.32773   0.81706   0.18630   0.00000  Uiso   1.00
C245   C     0.18875   0.78500   0.05681   0.00000  Uiso   1.00
C246   C     0.00318   0.68083   0.31177   0.00000  Uiso   1.00
C247   C     0.26776   0.52800   0.18967   0.00000  Uiso   1.00
C248   C     0.26190   0.97336   0.34101   0.00000  Uiso   1.00
C249   C     0.12918   0.72689   0.44130   0.00000  Uiso   1.00
C250   C     0.18865   0.78418   0.10752   0.00000  Uiso   1.00
C251   C     0.13016   0.72698   0.39071   0.00000  Uiso   1.00
C252   C     0.14485   0.71578   0.10187   0.00000  Uiso   1.00
C253   C     0.20342   0.77285   0.39985   0.00000  Uiso   1.00
C254   C     0.14492   0.71491   0.05116   0.00000  Uiso   1.00
Cu255  Cu    0.16667   0.74999   0.29822   0.00000  Uiso   1.00
Cu256  Cu    0.16667   0.75000   0.20179   0.00000  Uiso   1.00
H257   H     0.13041   0.52961   0.31363   0.00000  Uiso   1.00
H258   H     0.10153   0.70857   0.36743   0.00000  Uiso   1.00
H259   H     0.12738   0.68872   0.11920   0.00000  Uiso   1.00
H260   H     0.23241   0.79097   0.38377   0.00000  Uiso   1.00
H261   H     0.12838   0.68649   0.03112   0.00000  Uiso   1.00
H262   H     0.23513   0.79059   0.47246   0.00000  Uiso   1.00
H263   H     0.03516   0.82749   0.18822   0.00000  Uiso   1.00
H264   H     0.30972   0.83275   0.21622   0.00000  Uiso   1.00
H265   H     0.30733   0.82936   0.15140   0.00000  Uiso   1.00
H266   H     0.02170   0.66505   0.28224   0.00000  Uiso   1.00
H267   H     0.29527   0.67154   0.30832   0.00000  Uiso   1.00
H268   H     0.13574   0.97026   0.17567   0.00000  Uiso   1.00
H269   H     0.02167   0.66739   0.34688   0.00000  Uiso   1.00
H270   H     0.28090   0.51307   0.22576   0.00000  Uiso   1.00
H271   H     0.28192   0.56263   0.18832   0.00000  Uiso   1.00
H272   H     0.28510   0.50869   0.16198   0.00000  Uiso   1.00
H273   H     0.27721   0.98889   0.30953   0.00000  Uiso   1.00
H274   H     0.27631   0.93893   0.34638   0.00000  Uiso   1.00
H275   H     0.27681   0.99262   0.37396   0.00000  Uiso   1.00
H276   H     0.12979   0.61036   0.31430   0.00000  Uiso   1.00
H277   H     0.13517   0.88956   0.17484   0.00000  Uiso   1.00
H278   H     0.20537   0.61206   0.18534   0.00000  Uiso   1.00
H279   H     0.20027   0.88839   0.32599   0.00000  Uiso   1.00
H280   H     0.20538   0.81339   0.04105   0.00000  Uiso   1.00
H281   H     0.09859   0.70917   0.45535   0.00000  Uiso   1.00
H282   H     0.20612   0.81122   0.12934   0.00000  Uiso   1.00
N283   N     0.16667   0.75001   0.12935   0.00000  Uiso   1.00
N284   N     0.16667   0.74999   0.37066   0.00000  Uiso   1.00
O285   O     0.16667   0.68572   0.29072   0.00000  Uiso   1.00
O286   O     0.01008   0.72717   0.31202   0.00000  Uiso   1.00
O287   O     0.21405   0.52576   0.17855   0.00000  Uiso   1.00
O288   O     0.20798   0.97466   0.33541   0.00000  Uiso   1.00
O289   O     0.16666   0.81428   0.20929   0.00000  Uiso   1.00
O290   O     0.16667   0.68573   0.20928   0.00000  Uiso   1.00
O291   O     0.16666   0.81427   0.29072   0.00000  Uiso   1.00
O292   O     0.09161   0.75000   0.28132   0.00000  Uiso   1.00
O293   O     0.24172   0.75000   0.21868   0.00000  Uiso   1.00
O294   O     0.09161   0.75000   0.19989   0.00000  Uiso   1.00
O295   O     0.24172   0.75000   0.30012   0.00000  Uiso   1.00
O296   O     0.32293   0.77059   0.18715   0.00000  Uiso   1.00
C297   C     0.50010   0.66496   0.24995   0.00000  Uiso   1.00
C298   C     0.53778   0.77297   0.45071   0.00000  Uiso   1.00
C299   C     0.50017   0.74996   0.02735   0.00000  Uiso   1.00
C300   C     0.50014   0.74996   0.47264   0.00000  Uiso   1.00
C301   C     0.40146   0.75056   0.23782   0.00000  Uiso   1.00
C302   C     0.59851   0.74918   0.26213   0.00000  Uiso   1.00
C303   C     0.34670   0.75529   0.23160   0.00000  Uiso   1.00
C304   C     0.65319   0.74382   0.26814   0.00000  Uiso   1.00
C305   C     0.48122   0.54731   0.28609   0.00000  Uiso   1.00
C306   C     0.48425   0.95268   0.20837   0.00000  Uiso   1.00
C307   C     0.48058   0.59324   0.28631   0.00000  Uiso   1.00
C308   C     0.50017   0.83507   0.25008   0.00000  Uiso   1.00
C309   C     0.48363   0.90675   0.20798   0.00000  Uiso   1.00
C310   C     0.50109   0.61677   0.24994   0.00000  Uiso   1.00
C311   C     0.50119   0.88332   0.25035   0.00000  Uiso   1.00
C312   C     0.52289   0.59406   0.21369   0.00000  Uiso   1.00
C313   C     0.52005   0.90622   0.29298   0.00000  Uiso   1.00
C314   C     0.52561   0.54791   0.21438   0.00000  Uiso   1.00
C315   C     0.52266   0.95239   0.29314   0.00000  Uiso   1.00
C316   C     0.50366   0.52435   0.25034   0.00000  Uiso   1.00
C317   C     0.50369   0.97580   0.25072   0.00000  Uiso   1.00
C318   C     0.66106   0.81706   0.18630   0.00000  Uiso   1.00
C319   C     0.52208   0.78500   0.05681   0.00000  Uiso   1.00
C320   C     0.33651   0.68083   0.31177   0.00000  Uiso   1.00
C321   C     0.60110   0.52800   0.18967   0.00000  Uiso   1.00
C322   C     0.59523   0.97336   0.34101   0.00000  Uiso   1.00
C323   C     0.46252   0.72689   0.44130   0.00000  Uiso   1.00
C324   C     0.52199   0.78418   0.10752   0.00000  Uiso   1.00
C325   C     0.46350   0.72698   0.39071   0.00000  Uiso   1.00
C326   C     0.47818   0.71578   0.10187   0.00000  Uiso   1.00
C327   C     0.53675   0.77285   0.39985   0.00000  Uiso   1.00
C328   C     0.47825   0.71491   0.05116   0.00000  Uiso   1.00
Cu329  Cu    0.50000   0.74999   0.29822   0.00000  Uiso   1.00
Cu330  Cu    0.50000   0.75000   0.20179   0.00000  Uiso   1.00
H331   H     0.46374   0.52961   0.31363   0.00000  Uiso   1.00
H332   H     0.43486   0.70857   0.36743   0.00000  Uiso   1.00
H333   H     0.46072   0.68872   0.11920   0.00000  Uiso   1.00
H334   H     0.56574   0.79097   0.38377   0.00000  Uiso   1.00
H335   H     0.46172   0.68649   0.03112   0.00000  Uiso   1.00
H336   H     0.56846   0.79059   0.47246   0.00000  Uiso   1.00
H337   H     0.36850   0.82749   0.18822   0.00000  Uiso   1.00
H338   H     0.64305   0.83275   0.21622   0.00000  Uiso   1.00
H339   H     0.64067   0.82936   0.15140   0.00000  Uiso   1.00
H340   H     0.35504   0.66505   0.28224   0.00000  Uiso   1.00
H341   H     0.62861   0.67154   0.30832   0.00000  Uiso   1.00
H342   H     0.46907   0.97026   0.17567   0.00000  Uiso   1.00
H343   H     0.35500   0.66739   0.34688   0.00000  Uiso   1.00
H344   H     0.61424   0.51307   0.22576   0.00000  Uiso   1.00
H345   H     0.61526   0.56263   0.18832   0.00000  Uiso   1.00
H346   H     0.61843   0.50869   0.16198   0.00000  Uiso   1.00
H347   H     0.61054   0.98889   0.30953   0.00000  Uiso   1.00
H348   H     0.60965   0.93893   0.34638   0.00000  Uiso   1.00
H349   H     0.61014   0.99262   0.37396   0.00000  Uiso   1.00
H350   H     0.46312   0.61036   0.31430   0.00000  Uiso   1.00
H351   H     0.46850   0.88956   0.17484   0.00000  Uiso   1.00
H352   H     0.53870   0.61206   0.18534   0.00000  Uiso   1.00
H353   H     0.53361   0.88839   0.32599   0.00000  Uiso   1.00
H354   H     0.53871   0.81339   0.04105   0.00000  Uiso   1.00
H355   H     0.43192   0.70917   0.45535   0.00000  Uiso   1.00
H356   H     0.53946   0.81122   0.12934   0.00000  Uiso   1.00
N357   N     0.50000   0.75001   0.12935   0.00000  Uiso   1.00
N358   N     0.50000   0.74999   0.37066   0.00000  Uiso   1.00
O359   O     0.50000   0.68572   0.29072   0.00000  Uiso   1.00
O360   O     0.34342   0.72717   0.31202   0.00000  Uiso   1.00
O361   O     0.54739   0.52576   0.17855   0.00000  Uiso   1.00
O362   O     0.54131   0.97466   0.33541   0.00000  Uiso   1.00
O363   O     0.50000   0.81428   0.20929   0.00000  Uiso   1.00
O364   O     0.50000   0.68573   0.20928   0.00000  Uiso   1.00
O365   O     0.50000   0.81427   0.29072   0.00000  Uiso   1.00
O366   O     0.42495   0.75000   0.28132   0.00000  Uiso   1.00
O367   O     0.57505   0.75000   0.21868   0.00000  Uiso   1.00
O368   O     0.42495   0.75000   0.19989   0.00000  Uiso   1.00
O369   O     0.57505   0.75000   0.30012   0.00000  Uiso   1.00
O370   O     0.65626   0.77059   0.18715   0.00000  Uiso   1.00
C371   C     0.83343   0.66496   0.24995   0.00000  Uiso   1.00
C372   C     0.87112   0.77297   0.45071   0.00000  Uiso   1.00
C373   C     0.83350   0.74996   0.02735   0.00000  Uiso   1.00
C374   C     0.83348   0.74996   0.47264   0.00000  Uiso   1.00
C375   C     0.73479   0.75056   0.23782   0.00000  Uiso   1.00
C376   C     0.93184   0.74918   0.26213   0.00000  Uiso   1.00
C377   C     0.68003   0.75529   0.23160   0.00000  Uiso   1.00
C378   C     0.98652   0.74382   0.26814   0.00000  Uiso   1.00
C379   C     0.81455   0.54731   0.28609   0.00000  Uiso   1.00
C380   C     0.81758   0.95268   0.20837   0.00000  Uiso   1.00
C381   C     0.81391   0.59324   0.28631   0.00000  Uiso   1.00
C382   C     0.83351   0.83507   0.25008   0.00000  Uiso   1.00
C383   C     0.81696   0.90675   0.20798   0.00000  Uiso   1.00
C384   C     0.83442   0.61677   0.24994   0.00000  Uiso   1.00
C385   C     0.83453   0.88332   0.25035   0.00000  Uiso   1.00
C386   C     0.85622   0.59406   0.21369   0.00000  Uiso   1.00
C387   C     0.85338   0.90622   0.29298   0.00000  Uiso   1.00
C388   C     0.85895   0.54791   0.21438   0.00000  Uiso   1.00
C389   C     0.85599   0.95239   0.29314   0.00000  Uiso   1.00
C390   C     0.83700   0.52435   0.25034   0.00000  Uiso   1.00
C391   C     0.83702   0.97580   0.25072   0.00000  Uiso   1.00
C392   C     0.99439   0.81706   0.18630   0.00000  Uiso   1.00
C393   C     0.85541   0.78500   0.05681   0.00000  Uiso   1.00
C394   C     0.66984   0.68083   0.31177   0.00000  Uiso   1.00
C395   C     0.93443   0.52800   0.18967   0.00000  Uiso   1.00
C396   C     0.92857   0.97336   0.34101   0.00000  Uiso   1.00
C397   C     0.79585   0.72689   0.44130   0.00000  Uiso   1.00
C398   C     0.85532   0.78418   0.10752   0.00000  Uiso   1.00
C399   C     0.79683   0.72698   0.39071   0.00000  Uiso   1.00
C400   C     0.81151   0.71578   0.10187   0.00000  Uiso   1.00
C401   C     0.87008   0.77285   0.39985   0.00000  Uiso   1.00
C402   C     0.81158   0.71491   0.05116   0.00000  Uiso   1.00
Cu403  Cu    0.83333   0.74999   0.29822   0.00000  Uiso   1.00
Cu404  Cu    0.83333   0.75000   0.20179   0.00000  Uiso   1.00
H405   H     0.79708   0.52961   0.31363   0.00000  Uiso   1.00
H406   H     0.76819   0.70857   0.36743   0.00000  Uiso   1.00
H407   H     0.79405   0.68872   0.11920   0.00000  Uiso   1.00
H408   H     0.89907   0.79097   0.38377   0.00000  Uiso   1.00
H409   H     0.79505   0.68649   0.03112   0.00000  Uiso   1.00
H410   H     0.90180   0.79059   0.47246   0.00000  Uiso   1.00
H411   H     0.70183   0.82749   0.18822   0.00000  Uiso   1.00
H412   H     0.97639   0.83275   0.21622   0.00000  Uiso   1.00
H413   H     0.97400   0.82936   0.15140   0.00000  Uiso   1.00
H414   H     0.68837   0.66505   0.28224   0.00000  Uiso   1.00
H415   H     0.96194   0.67154   0.30832   0.00000  Uiso   1.00
H416   H     0.80240   0.97026   0.17567   0.00000  Uiso   1.00
H417   H     0.68834   0.66739   0.34688   0.00000  Uiso   1.00
H418   H     0.94757   0.51307   0.22576   0.00000  Uiso   1.00
H419   H     0.94859   0.56263   0.18832   0.00000  Uiso   1.00
H420   H     0.95176   0.50869   0.16198   0.00000  Uiso   1.00
H421   H     0.94387   0.98889   0.30953   0.00000  Uiso   1.00
H422   H     0.94298   0.93893   0.34638   0.00000  Uiso   1.00
H423   H     0.94347   0.99262   0.37396   0.00000  Uiso   1.00
H424   H     0.79645   0.61036   0.31430   0.00000  Uiso   1.00
H425   H     0.80183   0.88956   0.17484   0.00000  Uiso   1.00
H426   H     0.87204   0.61206   0.18534   0.00000  Uiso   1.00
H427   H     0.86694   0.88839   0.32599   0.00000  Uiso   1.00
H428   H     0.87204   0.81339   0.04105   0.00000  Uiso   1.00
H429   H     0.76526   0.70917   0.45535   0.00000  Uiso   1.00
H430   H     0.87279   0.81122   0.12934   0.00000  Uiso   1.00
N431   N     0.83333   0.75001   0.12935   0.00000  Uiso   1.00
N432   N     0.83333   0.74999   0.37066   0.00000  Uiso   1.00
O433   O     0.83334   0.68572   0.29072   0.00000  Uiso   1.00
O434   O     0.67675   0.72717   0.31202   0.00000  Uiso   1.00
O435   O     0.88072   0.52576   0.17855   0.00000  Uiso   1.00
O436   O     0.87464   0.97466   0.33541   0.00000  Uiso   1.00
O437   O     0.83333   0.81428   0.20929   0.00000  Uiso   1.00
O438   O     0.83334   0.68573   0.20928   0.00000  Uiso   1.00
O439   O     0.83333   0.81427   0.29072   0.00000  Uiso   1.00
O440   O     0.75828   0.75000   0.28132   0.00000  Uiso   1.00
O441   O     0.90839   0.75000   0.21868   0.00000  Uiso   1.00
O442   O     0.75828   0.75000   0.19989   0.00000  Uiso   1.00
O443   O     0.90839   0.75000   0.30012   0.00000  Uiso   1.00
O444   O     0.98960   0.77059   0.18715   0.00000  Uiso   1.00
C445   C     0.16677   0.16496   0.74995   0.00000  Uiso   1.00
C446   C     0.20445   0.27297   0.95071   0.00000  Uiso   1.00
C447   C     0.16683   0.24996   0.52735   0.00000  Uiso   1.00
C448   C     0.16681   0.24996   0.97264   0.00000  Uiso   1.00
C449   C     0.06813   0.25056   0.73782   0.00000  Uiso   1.00
C450   C     0.26518   0.24918   0.76213   0.00000  Uiso   1.00
C451   C     0.01336   0.25529   0.73160   0.00000  Uiso   1.00
C452   C     0.31986   0.24382   0.76814   0.00000  Uiso   1.00
C453   C     0.14788   0.04731   0.78609   0.00000  Uiso   1.00
C454   C     0.15092   0.45268   0.70837   0.00000  Uiso   1.00
C455   C     0.14725   0.09324   0.78631   0.00000  Uiso   1.00
C456   C     0.16684   0.33507   0.75008   0.00000  Uiso   1.00
C457   C     0.15029   0.40675   0.70798   0.00000  Uiso   1.00
C458   C     0.16775   0.11677   0.74994   0.00000  Uiso   1.00
C459   C     0.16786   0.38332   0.75035   0.00000  Uiso   1.00
C460   C     0.18955   0.09406   0.71369   0.00000  Uiso   1.00
C461   C     0.18672   0.40622   0.79298   0.00000  Uiso   1.00
C462   C     0.19228   0.04791   0.71438   0.00000  Uiso   1.00
C463   C     0.18932   0.45239   0.79314   0.00000  Uiso   1.00
C464   C     0.17033   0.02435   0.75034   0.00000  Uiso   1.00
C465   C     0.17035   0.47580   0.75072   0.00000  Uiso   1.00
C466   C     0.32773   0.31706   0.68630   0.00000  Uiso   1.00
C467   C     0.18875   0.28500   0.55681   0.00000  Uiso   1.00
C468   C     0.00318   0.18083   0.81177   0.00000  Uiso   1.00
C469   C     0.26776   0.02800   0.68967   0.00000  Uiso   1.00
C470   C     0.26190   0.47336   0.84101   0.00000  Uiso   1.00
C471   C     0.12918   0.22689   0.94130   0.00000  Uiso   1.00
C472   C     0.18865   0.28418   0.60752   0.00000  Uiso   1.00
C473   C     0.13016   0.22698   0.89071   0.00000  Uiso   1.00
C474   C     0.14485   0.21578   0.60187   0.00000  Uiso   1.00
C475   C     0.20342   0.27285   0.89985   0.00000  Uiso   1.00
C476   C     0.14492   0.21491   0.55116   0.00000  Uiso   1.00
Cu477  Cu    0.16667   0.24999   0.79822   0.00000  Uiso   1.00
Cu478  Cu    0.16667   0.25000   0.70179   0.00000  Uiso   1.00
H479   H     0.13041   0.02961   0.81363   0.00000  Uiso   1.00
H480   H     0.10153   0.20857   0.86743   0.00000  Uiso   1.00
H481   H     0.12738   0.18872   0.61920   0.00000  Uiso   1.00
H482   H     0.23241   0.29097   0.88377   0.00000  Uiso   1.00
H483   H     0.12838   0.18649   0.53112   0.00000  Uiso   1.00
H484   H     0.23513   0.29059   0.97246   0.00000  Uiso   1.00
H485   H     0.03516   0.32749   0.68822   0.00000  Uiso   1.00
H486   H     0.30972   0.33275   0.71622   0.00000  Uiso   1.00
H487   H     0.30733   0.32936   0.65140   0.00000  Uiso   1.00
H488   H     0.02170   0.16505   0.78224   0.00000  Uiso   1.00
H489   H     0.29527   0.17154   0.80832   0.00000  Uiso   1.00
H490   H     0.13574   0.47026   0.67567   0.00000  Uiso   1.00
H491   H     0.02167   0.16739   0.84688   0.00000  Uiso   1.00
H492   H     0.28090   0.01307   0.72576   0.00000  Uiso   1.00
H493   H     0.28192   0.06263   0.68832   0.00000  Uiso   1.00
H494   H     0.28510   0.00869   0.66198   0.00000  Uiso   1.00
H495   H     0.27721   0.48889   0.80953   0.00000  Uiso   1.00
H496   H     0.27631   0.43893   0.84638   0.00000  Uiso   1.00
H497   H     0.27681   0.49262   0.87396   0.00000  Uiso   1.00
H498   H     0.12979   0.11036   0.81430   0.00000  Uiso   1.00
H499   H     0.13517   0.38956   0.67484   0.00000  Uiso   1.00
H500   H     0.20537   0.11206   0.68534   0.00000  Uiso   1.00
H501   H     0.20027   0.38839   0.82599   0.00000  Uiso   1.00
H502   H     0.20538   0.31339   0.54105   0.00000  Uiso   1.00
H503   H     0.09859   0.20917   0.95535   0.00000  Uiso   1.00
H504   H     0.20612   0.31122   0.62934   0.00000  Uiso   1.00
N505   N     0.16667   0.25001   0.62935   0.00000  Uiso   1.00
N506   N     0.16667   0.24999   0.87066   0.00000  Uiso   1.00
O507   O     0.16667   0.18572   0.79072   0.00000  Uiso   1.00
O508   O     0.01008   0.22717   0.81202   0.00000  Uiso   1.00
O509   O     0.21405   0.02576   0.67855   0.00000  Uiso   1.00
O510   O     0.20798   0.47466   0.83541   0.00000  Uiso   1.00
O511   O     0.16666   0.31428   0.70929   0.00000  Uiso   1.00
O512   O     0.16667   0.18573   0.70928   0.00000  Uiso   1.00
O513   O     0.16666   0.31427   0.79072   0.00000  Uiso   1.00
O514   O     0.09161   0.25000   0.78132   0.00000  Uiso   1.00
O515   O     0.24172   0.25000   0.71868   0.00000  Uiso   1.00
O516   O     0.09161   0.25000   0.69989   0.00000  Uiso   1.00
O517   O     0.24172   0.25000   0.80012   0.00000  Uiso   1.00
O518   O     0.32293   0.27059   0.68715   0.00000  Uiso   1.00
C519   C     0.50010   0.16496   0.74995   0.00000  Uiso   1.00
C520   C     0.53778   0.27297   0.95071   0.00000  Uiso   1.00
C521   C     0.50017   0.24996   0.52735   0.00000  Uiso   1.00
C522   C     0.50014   0.24996   0.97264   0.00000  Uiso   1.00
C523   C     0.40146   0.25056   0.73782   0.00000  Uiso   1.00
C524   C     0.59851   0.24918   0.76213   0.00000  Uiso   1.00
C525   C     0.34670   0.25529   0.73160   0.00000  Uiso   1.00
C526   C     0.65319   0.24382   0.76814   0.00000  Uiso   1.00
C527   C     0.48122   0.04731   0.78609   0.00000  Uiso   1.00
C528   C     0.48425   0.45268   0.70837   0.00000  Uiso   1.00
C529   C     0.48058   0.09324   0.78631   0.00000  Uiso   1.00
C530   C     0.50017   0.33507   0.75008   0.00000  Uiso   1.00
C531   C     0.48363   0.40675   0.70798   0.00000  Uiso   1.00
C532   C     0.50109   0.11677   0.74994   0.00000  Uiso   1.00
C533   C     0.50119   0.38332   0.75035   0.00000  Uiso   1.00
C534   C     0.52289   0.09406   0.71369   0.00000  Uiso   1.00
C535   C     0.52005   0.40622   0.79298   0.00000  Uiso   1.00
C536   C     0.52561   0.04791   0.71438   0.00000  Uiso   1.00
C537   C     0.52266   0.45239   0.79314   0.00000  Uiso   1.00
C538   C     0.50366   0.02435   0.75034   0.00000  Uiso   1.00
C539   C     0.50369   0.47580   0.75072   0.00000  Uiso   1.00
C540   C     0.66106   0.31706   0.68630   0.00000  Uiso   1.00
C541   C     0.52208   0.28500   0.55681   0.00000  Uiso   1.00
C542   C     0.33651   0.18083   0.81177   0.00000  Uiso   1.00
C543   C     0.60110   0.02800   0.68967   0.00000  Uiso   1.00
C544   C     0.59523   0.47336   0.84101   0.00000  Uiso   1.00
C545   C     0.46252   0.22689   0.94130   0.00000  Uiso   1.00
C546   C     0.52199   0.28418   0.60752   0.00000  Uiso   1.00
C547   C     0.46350   0.22698   0.89071   0.00000  Uiso   1.00
C548   C     0.47818   0.21578   0.60187   0.00000  Uiso   1.00
C549   C     0.53675   0.27285   0.89985   0.00000  Uiso   1.00
C550   C     0.47825   0.21491   0.55116   0.00000  Uiso   1.00
Cu551  Cu    0.50000   0.24999   0.79822   0.00000  Uiso   1.00
Cu552  Cu    0.50000   0.25000   0.70179   0.00000  Uiso   1.00
H553   H     0.46374   0.02961   0.81363   0.00000  Uiso   1.00
H554   H     0.43486   0.20857   0.86743   0.00000  Uiso   1.00
H555   H     0.46072   0.18872   0.61920   0.00000  Uiso   1.00
H556   H     0.56574   0.29097   0.88377   0.00000  Uiso   1.00
H557   H     0.46172   0.18649   0.53112   0.00000  Uiso   1.00
H558   H     0.56846   0.29059   0.97246   0.00000  Uiso   1.00
H559   H     0.36850   0.32749   0.68822   0.00000  Uiso   1.00
H560   H     0.64305   0.33275   0.71622   0.00000  Uiso   1.00
H561   H     0.64067   0.32936   0.65140   0.00000  Uiso   1.00
H562   H     0.35504   0.16505   0.78224   0.00000  Uiso   1.00
H563   H     0.62861   0.17154   0.80832   0.00000  Uiso   1.00
H564   H     0.46907   0.47026   0.67567   0.00000  Uiso   1.00
H565   H     0.35500   0.16739   0.84688   0.00000  Uiso   1.00
H566   H     0.61424   0.01307   0.72576   0.00000  Uiso   1.00
H567   H     0.61526   0.06263   0.68832   0.00000  Uiso   1.00
H568   H     0.61843   0.00869   0.66198   0.00000  Uiso   1.00
H569   H     0.61054   0.48889   0.80953   0.00000  Uiso   1.00
H570   H     0.60965   0.43893   0.84638   0.00000  Uiso   1.00
H571   H     0.61014   0.49262   0.87396   0.00000  Uiso   1.00
H572   H     0.46312   0.11036   0.81430   0.00000  Uiso   1.00
H573   H     0.46850   0.38956   0.67484   0.00000  Uiso   1.00
H574   H     0.53870   0.11206   0.68534   0.00000  Uiso   1.00
H575   H     0.53361   0.38839   0.82599   0.00000  Uiso   1.00
H576   H     0.53871   0.31339   0.54105   0.00000  Uiso   1.00
H577   H     0.43192   0.20917   0.95535   0.00000  Uiso   1.00
H578   H     0.53946   0.31122   0.62934   0.00000  Uiso   1.00
N579   N     0.50000   0.25001   0.62935   0.00000  Uiso   1.00
N580   N     0.50000   0.24999   0.87066   0.00000  Uiso   1.00
O581   O     0.50000   0.18572   0.79072   0.00000  Uiso   1.00
O582   O     0.34342   0.22717   0.81202   0.00000  Uiso   1.00
O583   O     0.54739   0.02576   0.67855   0.00000  Uiso   1.00
O584   O     0.54131   0.47466   0.83541   0.00000  Uiso   1.00
O585   O     0.50000   0.31428   0.70929   0.00000  Uiso   1.00
O586   O     0.50000   0.18573   0.70928   0.00000  Uiso   1.00
O587   O     0.50000   0.31427   0.79072   0.00000  Uiso   1.00
O588   O     0.42495   0.25000   0.78132   0.00000  Uiso   1.00
O589   O     0.57505   0.25000   0.71868   0.00000  Uiso   1.00
O590   O     0.42495   0.25000   0.69989   0.00000  Uiso   1.00
O591   O     0.57505   0.25000   0.80012   0.00000  Uiso   1.00
O592   O     0.65626   0.27059   0.68715   0.00000  Uiso   1.00
C593   C     0.83343   0.16496   0.74995   0.00000  Uiso   1.00
C594   C     0.87112   0.27297   0.95071   0.00000  Uiso   1.00
C595   C     0.83350   0.24996   0.52735   0.00000  Uiso   1.00
C596   C     0.83348   0.24996   0.97264   0.00000  Uiso   1.00
C597   C     0.73479   0.25056   0.73782   0.00000  Uiso   1.00
C598   C     0.93184   0.24918   0.76213   0.00000  Uiso   1.00
C599   C     0.68003   0.25529   0.73160   0.00000  Uiso   1.00
C600   C     0.98652   0.24382   0.76814   0.00000  Uiso   1.00
C601   C     0.81455   0.04731   0.78609   0.00000  Uiso   1.00
C602   C     0.81758   0.45268   0.70837   0.00000  Uiso   1.00
C603   C     0.81391   0.09324   0.78631   0.00000  Uiso   1.00
C604   C     0.83351   0.33507   0.75008   0.00000  Uiso   1.00
C605   C     0.81696   0.40675   0.70798   0.00000  Uiso   1.00
C606   C     0.83442   0.11677   0.74994   0.00000  Uiso   1.00
C607   C     0.83453   0.38332   0.75035   0.00000  Uiso   1.00
C608   C     0.85622   0.09406   0.71369   0.00000  Uiso   1.00
C609   C     0.85338   0.40622   0.79298   0.00000  Uiso   1.00
C610   C     0.85895   0.04791   0.71438   0.00000  Uiso   1.00
C611   C     0.85599   0.45239   0.79314   0.00000  Uiso   1.00
C612   C     0.83700   0.02435   0.75034   0.00000  Uiso   1.00
C613   C     0.83702   0.47580   0.75072   0.00000  Uiso   1.00
C614   C     0.99439   0.31706   0.68630   0.00000  Uiso   1.00
C615   C     0.85541   0.28500   0.55681   0.00000  Uiso   1.00
C616   C     0.66984   0.18083   0.81177   0.00000  Uiso   1.00
C617   C     0.93443   0.02800   0.68967   0.00000  Uiso   1.00
C618   C     0.92857   0.47336   0.84101   0.00000  Uiso   1.00
C619   C     0.79585   0.22689   0.94130   0.00000  Uiso   1.00
C620   C     0.85532   0.28418   0.60752   0.00000  Uiso   1.00
C621   C     0.79683   0.22698   0.89071   0.00000  Uiso   1.00
C622   C     0.81151   0.21578   0.60187   0.00000  Uiso   1.00
C623   C     0.87008   0.27285   0.89985   0.00000  Uiso   1.00
C624   C     0.81158   0.21491   0.55116   0.00000  Uiso   1.00
Cu625  Cu    0.83333   0.24999   0.79822   0.00000  Uiso   1.00
Cu626  Cu    0.83333   0.25000   0.70179   0.00000  Uiso   1.00
H627   H     0.79708   0.02961   0.81363   0.00000  Uiso   1.00
H628   H     0.76819   0.20857   0.86743   0.00000  Uiso   1.00
H629   H     0.79405   0.18872   0.61920   0.00000  Uiso   1.00
H630   H     0.89907   0.29097   0.88377   0.00000  Uiso   1.00
H631   H     0.79505   0.18649   0.53112   0.00000  Uiso   1.00
H632   H     0.90180   0.29059   0.97246   0.00000  Uiso   1.00
H633   H     0.70183   0.32749   0.68822   0.00000  Uiso   1.00
H634   H     0.97639   0.33275   0.71622   0.00000  Uiso   1.00
H635   H     0.97400   0.32936   0.65140   0.00000  Uiso   1.00
H636   H     0.68837   0.16505   0.78224   0.00000  Uiso   1.00
H637   H     0.96194   0.17154   0.80832   0.00000  Uiso   1.00
H638   H     0.80240   0.47026   0.67567   0.00000  Uiso   1.00
H639   H     0.68834   0.16739   0.84688   0.00000  Uiso   1.00
H640   H     0.94757   0.01307   0.72576   0.00000  Uiso   1.00
H641   H     0.94859   0.06263   0.68832   0.00000  Uiso   1.00
H642   H     0.95176   0.00869   0.66198   0.00000  Uiso   1.00
H643   H     0.94387   0.48889   0.80953   0.00000  Uiso   1.00
H644   H     0.94298   0.43893   0.84638   0.00000  Uiso   1.00
H645   H     0.94347   0.49262   0.87396   0.00000  Uiso   1.00
H646   H     0.79645   0.11036   0.81430   0.00000  Uiso   1.00
H647   H     0.80183   0.38956   0.67484   0.00000  Uiso   1.00
H648   H     0.87204   0.11206   0.68534   0.00000  Uiso   1.00
H649   H     0.86694   0.38839   0.82599   0.00000  Uiso   1.00
H650   H     0.87204   0.31339   0.54105   0.00000  Uiso   1.00
H651   H     0.76526   0.20917   0.95535   0.00000  Uiso   1.00
H652   H     0.87279   0.31122   0.62934   0.00000  Uiso   1.00
N653   N     0.83333   0.25001   0.62935   0.00000  Uiso   1.00
N654   N     0.83333   0.24999   0.87066   0.00000  Uiso   1.00
O655   O     0.83334   0.18572   0.79072   0.00000  Uiso   1.00
O656   O     0.67675   0.22717   0.81202   0.00000  Uiso   1.00
O657   O     0.88072   0.02576   0.67855   0.00000  Uiso   1.00
O658   O     0.87464   0.47466   0.83541   0.00000  Uiso   1.00
O659   O     0.83333   0.31428   0.70929   0.00000  Uiso   1.00
O660   O     0.83334   0.18573   0.70928   0.00000  Uiso   1.00
O661   O     0.83333   0.31427   0.79072   0.00000  Uiso   1.00
O662   O     0.75828   0.25000   0.78132   0.00000  Uiso   1.00
O663   O     0.90839   0.25000   0.71868   0.00000  Uiso   1.00
O664   O     0.75828   0.25000   0.69989   0.00000  Uiso   1.00
O665   O     0.90839   0.25000   0.80012   0.00000  Uiso   1.00
O666   O     0.98960   0.27059   0.68715   0.00000  Uiso   1.00
C667   C     0.16677   0.66496   0.74995   0.00000  Uiso   1.00
C668   C     0.20445   0.77297   0.95071   0.00000  Uiso   1.00
C669   C     0.16683   0.74996   0.52735   0.00000  Uiso   1.00
C670   C     0.16681   0.74996   0.97264   0.00000  Uiso   1.00
C671   C     0.06813   0.75056   0.73782   0.00000  Uiso   1.00
C672   C     0.26518   0.74918   0.76213   0.00000  Uiso   1.00
C673   C     0.01336   0.75529   0.73160   0.00000  Uiso   1.00
C674   C     0.31986   0.74382   0.76814   0.00000  Uiso   1.00
C675   C     0.14788   0.54731   0.78609   0.00000  Uiso   1.00
C676   C     0.15092   0.95268   0.70837   0.00000  Uiso   1.00
C677   C     0.14725   0.59324   0.78631   0.00000  Uiso   1.00
C678   C     0.16684   0.83507   0.75008   0.00000  Uiso   1.00
C679   C     0.15029   0.90675   0.70798   0.00000  Uiso   1.00
C680   C     0.16775   0.61677   0.74994   0.00000  Uiso   1.00
C681   C     0.16786   0.88332   0.75035   0.00000  Uiso   1.00
C682   C     0.18955   0.59406   0.71369   0.00000  Uiso   1.00
C683   C     0.18672   0.90622   0.79298   0.00000  Uiso   1.00
C684   C     0.19228   0.54791   0.71438   0.00000  Uiso   1.00
C685   C     0.18932   0.95239   0.79314   0.00000  Uiso   1.00
C686   C     0.17033   0.52435   0.75034   0.00000  Uiso   1.00
C687   C     0.17035   0.97580   0.75072   0.00000  Uiso   1.00
C688   C     0.32773   0.81706   0.68630   0.00000  Uiso   1.00
C689   C     0.18875   0.78500   0.55681   0.00000  Uiso   1.00
C690   C     0.00318   0.68083   0.81177   0.00000  Uiso   1.00
C691   C     0.26776   0.52800   0.68967   0.00000  Uiso   1.00
C692   C     0.26190   0.97336   0.84101   0.00000  Uiso   1.00
C693   C     0.12918   0.72689   0.94130   0.00000  Uiso   1.00
C694   C     0.18865   0.78418   0.60752   0.00000  Uiso   1.00
C695   C     0.13016   0.72698   0.89071   0.00000  Uiso   1.00
C696   C     0.14485   0.71578   0.60187   0.00000  Uiso   1.00
C697   C     0.20342   0.77285   0.89985   0.00000  Uiso   1.00
C698   C     0.14492   0.71491   0.55116   0.00000  Uiso   1.00
Cu699  Cu    0.16667   0.74999   0.79822   0.00000  Uiso   1.00
Cu700  Cu    0.16667   0.75000   0.70179   0.00000  Uiso   1.00
H701   H     0.13041   0.52961   0.81363   0.00000  Uiso   1.00
H702   H     0.10153   0.70857   0.86743   0.00000  Uiso   1.00
H703   H     0.12738   0.68872   0.61920   0.00000  Uiso   1.00
H704   H     0.23241   0.79097   0.88377   0.00000  Uiso   1.00
H705   H     0.12838   0.68649   0.53112   0.00000  Uiso   1.00
H706   H     0.23513   0.79059   0.97246   0.00000  Uiso   1.00
H707   H     0.03516   0.82749   0.68822   0.00000  Uiso   1.00
H708   H     0.30972   0.83275   0.71622   0.00000  Uiso   1.00
H709   H     0.30733   0.82936   0.65140   0.00000  Uiso   1.00
H710   H     0.02170   0.66505   0.78224   0.00000  Uiso   1.00
H711   H     0.29527   0.67154   0.80832   0.00000  Uiso   1.00
H712   H     0.13574   0.97026   0.67567   0.00000  Uiso   1.00
H713   H     0.02167   0.66739   0.84688   0.00000  Uiso   1.00
H714   H     0.28090   0.51307   0.72576   0.00000  Uiso   1.00
H715   H     0.28192   0.56263   0.68832   0.00000  Uiso   1.00
H716   H     0.28510   0.50869   0.66198   0.00000  Uiso   1.00
H717   H     0.27721   0.98889   0.80953   0.00000  Uiso   1.00
H718   H     0.27631   0.93893   0.84638   0.00000  Uiso   1.00
H719   H     0.27681   0.99262   0.87396   0.00000  Uiso   1.00
H720   H     0.12979   0.61036   0.81430   0.00000  Uiso   1.00
H721   H     0.13517   0.88956   0.67484   0.00000  Uiso   1.00
H722   H     0.20537   0.61206   0.68534   0.00000  Uiso   1.00
H723   H     0.20027   0.88839   0.82599   0.00000  Uiso   1.00
H724   H     0.20538   0.81339   0.54105   0.00000  Uiso   1.00
H725   H     0.09859   0.70917   0.95535   0.00000  Uiso   1.00
H726   H     0.20612   0.81122   0.62934   0.00000  Uiso   1.00
N727   N     0.16667   0.75001   0.62935   0.00000  Uiso   1.00
N728   N     0.16667   0.74999   0.87066   0.00000  Uiso   1.00
O729   O     0.16667   0.68572   0.79072   0.00000  Uiso   1.00
O730   O     0.01008   0.72717   0.81202   0.00000  Uiso   1.00
O731   O     0.21405   0.52576   0.67855   0.00000  Uiso   1.00
O732   O     0.20798   0.97466   0.83541   0.00000  Uiso   1.00
O733   O     0.16666   0.81428   0.70929   0.00000  Uiso   1.00
O734   O     0.16667   0.68573   0.70928   0.00000  Uiso   1.00
O735   O     0.16666   0.81427   0.79072   0.00000  Uiso   1.00
O736   O     0.09161   0.75000   0.78132   0.00000  Uiso   1.00
O737   O     0.24172   0.75000   0.71868   0.00000  Uiso   1.00
O738   O     0.09161   0.75000   0.69989   0.00000  Uiso   1.00
O739   O     0.24172   0.75000   0.80012   0.00000  Uiso   1.00
O740   O     0.32293   0.77059   0.68715   0.00000  Uiso   1.00
C741   C     0.50010   0.66496   0.74995   0.00000  Uiso   1.00
C742   C     0.53778   0.77297   0.95071   0.00000  Uiso   1.00
C743   C     0.50017   0.74996   0.52735   0.00000  Uiso   1.00
C744   C     0.50014   0.74996   0.97264   0.00000  Uiso   1.00
C745   C     0.40146   0.75056   0.73782   0.00000  Uiso   1.00
C746   C     0.59851   0.74918   0.76213   0.00000  Uiso   1.00
C747   C     0.34670   0.75529   0.73160   0.00000  Uiso   1.00
C748   C     0.65319   0.74382   0.76814   0.00000  Uiso   1.00
C749   C     0.48122   0.54731   0.78609   0.00000  Uiso   1.00
C750   C     0.48425   0.95268   0.70837   0.00000  Uiso   1.00
C751   C     0.48058   0.59324   0.78631   0.00000  Uiso   1.00
C752   C     0.50017   0.83507   0.75008   0.00000  Uiso   1.00
C753   C     0.48363   0.90675   0.70798   0.00000  Uiso   1.00
C754   C     0.50109   0.61677   0.74994   0.00000  Uiso   1.00
C755   C     0.50119   0.88332   0.75035   0.00000  Uiso   1.00
C756   C     0.52289   0.59406   0.71369   0.00000  Uiso   1.00
C757   C     0.52005   0.90622   0.79298   0.00000  Uiso   1.00
C758   C     0.52561   0.54791   0.71438   0.00000  Uiso   1.00
C759   C     0.52266   0.95239   0.79314   0.00000  Uiso   1.00
C760   C     0.50366   0.52435   0.75034   0.00000  Uiso   1.00
C761   C     0.50369   0.97580   0.75072   0.00000  Uiso   1.00
C762   C     0.66106   0.81706   0.68630   0.00000  Uiso   1.00
C763   C     0.52208   0.78500   0.55681   0.00000  Uiso   1.00
C764   C     0.33651   0.68083   0.81177   0.00000  Uiso   1.00
C765   C     0.60110   0.52800   0.68967   0.00000  Uiso   1.00
C766   C     0.59523   0.97336   0.84101   0.00000  Uiso   1.00
C767   C     0.46252   0.72689   0.94130   0.00000  Uiso   1.00
C768   C     0.52199   0.78418   0.60752   0.00000  Uiso   1.00
C769   C     0.46350   0.72698   0.89071   0.00000  Uiso   1.00
C770   C     0.47818   0.71578   0.60187   0.00000  Uiso   1.00
C771   C     0.53675   0.77285   0.89985   0.00000  Uiso   1.00
C772   C     0.47825   0.71491   0.55116   0.00000  Uiso   1.00
Cu773  Cu    0.50000   0.74999   0.79822   0.00000  Uiso   1.00
Cu774  Cu    0.50000   0.75000   0.70179   0.00000  Uiso   1.00
H775   H     0.46374   0.52961   0.81363   0.00000  Uiso   1.00
H776   H     0.43486   0.70857   0.86743   0.00000  Uiso   1.00
H777   H     0.46072   0.68872   0.61920   0.00000  Uiso   1.00
H778   H     0.56574   0.79097   0.88377   0.00000  Uiso   1.00
H779   H     0.46172   0.68649   0.53112   0.00000  Uiso   1.00
H780   H     0.56846   0.79059   0.97246   0.00000  Uiso   1.00
H781   H     0.36850   0.82749   0.68822   0.00000  Uiso   1.00
H782   H     0.64305   0.83275   0.71622   0.00000  Uiso   1.00
H783   H     0.64067   0.82936   0.65140   0.00000  Uiso   1.00
H784   H     0.35504   0.66505   0.78224   0.00000  Uiso   1.00
H785   H     0.62861   0.67154   0.80832   0.00000  Uiso   1.00
H786   H     0.46907   0.97026   0.67567   0.00000  Uiso   1.00
H787   H     0.35500   0.66739   0.84688   0.00000  Uiso   1.00
H788   H     0.61424   0.51307   0.72576   0.00000  Uiso   1.00
H789   H     0.61526   0.56263   0.68832   0.00000  Uiso   1.00
H790   H     0.61843   0.50869   0.66198   0.00000  Uiso   1.00
H791   H     0.61054   0.98889   0.80953   0.00000  Uiso   1.00
H792   H     0.60965   0.93893   0.84638   0.00000  Uiso   1.00
H793   H     0.61014   0.99262   0.87396   0.00000  Uiso   1.00
H794   H     0.46312   0.61036   0.81430   0.00000  Uiso   1.00
H795   H     0.46850   0.88956   0.67484   0.00000  Uiso   1.00
H796   H     0.53870   0.61206   0.68534   0.00000  Uiso   1.00
H797   H     0.53361   0.88839   0.82599   0.00000  Uiso   1.00
H798   H     0.53871   0.81339   0.54105   0.00000  Uiso   1.00
H799   H     0.43192   0.70917   0.95535   0.00000  Uiso   1.00
H800   H     0.53946   0.81122   0.62934   0.00000  Uiso   1.00
N801   N     0.50000   0.75001   0.62935   0.00000  Uiso   1.00
N802   N     0.50000   0.74999   0.87066   0.00000  Uiso   1.00
O803   O     0.50000   0.68572   0.79072   0.00000  Uiso   1.00
O804   O     0.34342   0.72717   0.81202   0.00000  Uiso   1.00
O805   O     0.54739   0.52576   0.67855   0.00000  Uiso   1.00
O806   O     0.54131   0.97466   0.83541   0.00000  Uiso   1.00
O807   O     0.50000   0.81428   0.70929   0.00000  Uiso   1.00
O808   O     0.50000   0.68573   0.70928   0.00000  Uiso   1.00
O809   O     0.50000   0.81427   0.79072   0.00000  Uiso   1.00
O810   O     0.42495   0.75000   0.78132   0.00000  Uiso   1.00
O811   O     0.57505   0.75000   0.71868   0.00000  Uiso   1.00
O812   O     0.42495   0.75000   0.69989   0.00000  Uiso   1.00
O813   O     0.57505   0.75000   0.80012   0.00000  Uiso   1.00
O814   O     0.65626   0.77059   0.68715   0.00000  Uiso   1.00
C815   C     0.83343   0.66496   0.74995   0.00000  Uiso   1.00
C816   C     0.87112   0.77297   0.95071   0.00000  Uiso   1.00
C817   C     0.83350   0.74996   0.52735   0.00000  Uiso   1.00
C818   C     0.83348   0.74996   0.97264   0.00000  Uiso   1.00
C819   C     0.73479   0.75056   0.73782   0.00000  Uiso   1.00
C820   C     0.93184   0.74918   0.76213   0.00000  Uiso   1.00
C821   C     0.68003   0.75529   0.73160   0.00000  Uiso   1.00
C822   C     0.98652   0.74382   0.76814   0.00000  Uiso   1.00
C823   C     0.81455   0.54731   0.78609   0.00000  Uiso   1.00
C824   C     0.81758   0.95268   0.70837   0.00000  Uiso   1.00
C825   C     0.81391   0.59324   0.78631   0.00000  Uiso   1.00
C826   C     0.83351   0.83507   0.75008   0.00000  Uiso   1.00
C827   C     0.81696   0.90675   0.70798   0.00000  Uiso   1.00
C828   C     0.83442   0.61677   0.74994   0.00000  Uiso   1.00
C829   C     0.83453   0.88332   0.75035   0.00000  Uiso   1.00
C830   C     0.85622   0.59406   0.71369   0.00000  Uiso   1.00
C831   C     0.85338   0.90622   0.79298   0.00000  Uiso   1.00
C832   C     0.85895   0.54791   0.71438   0.00000  Uiso   1.00
C833   C     0.85599   0.95239   0.79314   0.00000  Uiso   1.00
C834   C     0.83700   0.52435   0.75034   0.00000  Uiso   1.00
C835   C     0.83702   0.97580   0.75072   0.00000  Uiso   1.00
C836   C     0.99439   0.81706   0.68630   0.00000  Uiso   1.00
C837   C     0.85541   0.78500   0.55681   0.00000  Uiso   1.00
C838   C     0.66984   0.68083   0.81177   0.00000  Uiso   1.00
C839   C     0.93443   0.52800   0.68967   0.00000  Uiso   1.00
C840   C     0.92857   0.97336   0.84101   0.00000  Uiso   1.00
C841   C     0.79585   0.72689   0.94130   0.00000  Uiso   1.00
C842   C     0.85532   0.78418   0.60752   0.00000  Uiso   1.00
C843   C     0.79683   0.72698   0.89071   0.00000  Uiso   1.00
C844   C     0.81151   0.71578   0.60187   0.00000  Uiso   1.00
C845   C     0.87008   0.77285   0.89985   0.00000  Uiso   1.00
C846   C     0.81158   0.71491   0.55116   0.00000  Uiso   1.00
Cu847  Cu    0.83333   0.74999   0.79822   0.00000  Uiso   1.00
Cu848  Cu    0.83333   0.75000   0.70179   0.00000  Uiso   1.00
H849   H     0.79708   0.52961   0.81363   0.00000  Uiso   1.00
H850   H     0.76819   0.70857   0.86743   0.00000  Uiso   1.00
H851   H     0.79405   0.68872   0.61920   0.00000  Uiso   1.00
H852   H     0.89907   0.79097   0.88377   0.00000  Uiso   1.00
H853   H     0.79505   0.68649   0.53112   0.00000  Uiso   1.00
H854   H     0.90180   0.79059   0.97246   0.00000  Uiso   1.00
H855   H     0.70183   0.82749   0.68822   0.00000  Uiso   1.00
H856   H     0.97639   0.83275   0.71622   0.00000  Uiso   1.00
H857   H     0.97400   0.82936   0.65140   0.00000  Uiso   1.00
H858   H     0.68837   0.66505   0.78224   0.00000  Uiso   1.00
H859   H     0.96194   0.67154   0.80832   0.00000  Uiso   1.00
H860   H     0.80240   0.97026   0.67567   0.00000  Uiso   1.00
H861   H     0.68834   0.66739   0.84688   0.00000  Uiso   1.00
H862   H     0.94757   0.51307   0.72576   0.00000  Uiso   1.00
H863   H     0.94859   0.56263   0.68832   0.00000  Uiso   1.00
H864   H     0.95176   0.50869   0.66198   0.00000  Uiso   1.00
H865   H     0.94387   0.98889   0.80953   0.00000  Uiso   1.00
H866   H     0.94298   0.93893   0.84638   0.00000  Uiso   1.00
H867   H     0.94347   0.99262   0.87396   0.00000  Uiso   1.00
H868   H     0.79645   0.61036   0.81430   0.00000  Uiso   1.00
H869   H     0.80183   0.88956   0.67484   0.00000  Uiso   1.00
H870   H     0.87204   0.61206   0.68534   0.00000  Uiso   1.00
H871   H     0.86694   0.88839   0.82599   0.00000  Uiso   1.00
H872   H     0.87204   0.81339   0.54105   0.00000  Uiso   1.00
H873   H     0.76526   0.70917   0.95535   0.00000  Uiso   1.00
H874   H     0.87279   0.81122   0.62934   0.00000  Uiso   1.00
N875   N     0.83333   0.75001   0.62935   0.00000  Uiso   1.00
N876   N     0.83333   0.74999   0.87066   0.00000  Uiso   1.00
O877   O     0.83334   0.68572   0.79072   0.00000  Uiso   1.00
O878   O     0.67675   0.72717   0.81202   0.00000  Uiso   1.00
O879   O     0.88072   0.52576   0.67855   0.00000  Uiso   1.00
O880   O     0.87464   0.97466   0.83541   0.00000  Uiso   1.00
O881   O     0.83333   0.81428   0.70929   0.00000  Uiso   1.00
O882   O     0.83334   0.68573   0.70928   0.00000  Uiso   1.00
O883   O     0.83333   0.81427   0.79072   0.00000  Uiso   1.00
O884   O     0.75828   0.75000   0.78132   0.00000  Uiso   1.00
O885   O     0.90839   0.75000   0.71868   0.00000  Uiso   1.00
O886   O     0.75828   0.75000   0.69989   0.00000  Uiso   1.00
O887   O     0.90839   0.75000   0.80012   0.00000  Uiso   1.00
O888   O     0.98960   0.77059   0.68715   0.00000  Uiso   1.00
loop_
_geom_bond_atom_site_label_1
_geom_bond_atom_site_label_2
_geom_bond_distance
_geom_bond_site_symmetry_2
_ccdc_geom_bond_type
C1     O63     1.292   .     A
C1     O68     1.292   .     A
C1     C14     1.457   .     S
C2     C4      1.412   .     A
C2     H40     1.081   .     S
C2     C31     1.407   .     A
C3     C23     1.411   .     A
C3     C32     1.411   .     A
C3     C448    1.517   1_554 S
C4     C27     1.412   .     A
C4     C447    1.517   .     S
C5     O70     1.282   .     A
C5     C7      1.438   .     S
C5     O72     1.288   .     A
C6     O73     1.289   .     A
C6     C8      1.438   .     S
C6     O71     1.281   .     A
C7     C156    1.354   1_455 S
C7     O222    1.389   1_455 S
C8     C81     1.354   .     S
C8     O138    1.388   .     S
C9     C20     1.402   .     A
C9     C11     1.389   .     A
C9     H35     1.083   .     S
C10    H46     1.083   .     S
C10    C21     1.402   .     A
C10    C13     1.389   .     A
C11    H54     1.084   .     S
C11    C14     1.399   .     A
C12    O69     1.292   .     A
C12    O67     1.292   .     A
C12    C15     1.459   .     S
C13    C15     1.400   .     A
C13    H55     1.083   .     S
C14    C16     1.401   .     A
C15    C17     1.401   .     A
C16    H56     1.084   .     S
C16    C18     1.397   .     A
C17    C19     1.397   .     A
C17    H57     1.084   .     S
C18    O65     1.383   .     S
C18    C20     1.410   .     A
C19    C21     1.410   .     A
C19    O66     1.383   .     S
C20    C243    1.468   1_545 S
C21    C242    1.468   .     S
C22    H43     1.109   .     S
C22    H42     1.114   .     S
C22    O74     1.411   .     S
C22    H115    1.113   .     S
C23    H58     1.081   .     S
C23    C28     1.407   .     A
C24    O64     1.412   .     S
C24    H44     1.114   .     S
C24    H47     1.109   .     S
C24    H193    1.113   1_455 S
C25    H50     1.109   .     S
C25    H48     1.113   .     S
C25    H49     1.113   .     S
C25    O65     1.410   .     S
C26    H52     1.113   .     S
C26    H51     1.113   .     S
C26    O66     1.410   .     S
C26    H53     1.109   .     S
C27    C29     1.406   .     A
C27    H59     1.081   .     S
C28    N61     1.364   .     A
C28    H60     1.081   .     S
C29    H36     1.079   .     S
C29    N62     1.362   .     A
C30    C32     1.407   .     A
C30    N61     1.364   .     A
C30    H37     1.081   .     S
C31    H38     1.082   .     S
C31    N62     1.363   .     A
C32    H39     1.081   .     S
Cu33   O69     1.955   .     S
Cu33   O63     1.954   .     S
Cu33   Cu34    2.674   .     S
Cu33   O70     1.972   .     S
Cu33   O73     1.971   .     S
Cu33   N62     2.009   .     S
Cu34   O67     1.954   .     S
Cu34   O72     1.971   .     S
Cu34   O68     1.955   .     S
Cu34   O71     1.972   .     S
Cu34   N61     2.009   .     S
H41    C170    1.113   1_455 S
H45    C98     1.113   .     S
O64    C156    1.388   1_455 S
O74    C81     1.389   .     S
C75    O137    1.292   .     A
C75    O142    1.292   .     A
C75    C88     1.457   .     S
C76    C78     1.412   .     A
C76    H114    1.081   .     S
C76    C105    1.407   .     A
C77    C97     1.411   .     A
C77    C106    1.411   .     A
C77    C522    1.517   1_554 S
C78    C101    1.412   .     A
C78    C521    1.517   .     S
C79    O144    1.282   .     A
C79    C81     1.438   .     S
C79    O146    1.288   .     A
C80    O147    1.289   .     A
C80    C82     1.438   .     S
C80    O145    1.281   .     A
C82    C155    1.354   .     S
C82    O212    1.388   .     S
C83    C94     1.402   .     A
C83    C85     1.389   .     A
C83    H109    1.083   .     S
C84    H120    1.083   .     S
C84    C95     1.402   .     A
C84    C87     1.389   .     A
C85    H128    1.084   .     S
C85    C88     1.399   .     A
C86    O143    1.292   .     A
C86    O141    1.292   .     A
C86    C89     1.459   .     S
C87    C89     1.400   .     A
C87    H129    1.083   .     S
C88    C90     1.401   .     A
C89    C91     1.401   .     A
C90    H130    1.084   .     S
C90    C92     1.397   .     A
C91    C93     1.397   .     A
C91    H131    1.084   .     S
C92    O139    1.383   .     S
C92    C94     1.410   .     A
C93    C95     1.410   .     A
C93    O140    1.383   .     S
C94    C317    1.468   1_545 S
C95    C316    1.468   .     S
C96    H117    1.109   .     S
C96    H116    1.114   .     S
C96    O148    1.411   .     S
C96    H189    1.113   .     S
C97    H132    1.081   .     S
C97    C102    1.407   .     A
C98    O138    1.412   .     S
C98    H118    1.114   .     S
C98    H121    1.109   .     S
C99    H124    1.109   .     S
C99    H122    1.113   .     S
C99    H123    1.113   .     S
C99    O139    1.410   .     S
C100   H126    1.113   .     S
C100   H125    1.113   .     S
C100   O140    1.410   .     S
C100   H127    1.109   .     S
C101   C103    1.406   .     A
C101   H133    1.081   .     S
C102   N135    1.364   .     A
C102   H134    1.081   .     S
C103   H110    1.079   .     S
C103   N136    1.362   .     A
C104   C106    1.407   .     A
C104   N135    1.364   .     A
C104   H111    1.081   .     S
C105   H112    1.082   .     S
C105   N136    1.363   .     A
C106   H113    1.081   .     S
Cu107  O143    1.955   .     S
Cu107  O137    1.954   .     S
Cu107  Cu108   2.674   .     S
Cu107  O144    1.972   .     S
Cu107  O147    1.971   .     S
Cu107  N136    2.009   .     S
Cu108  O141    1.954   .     S
Cu108  O146    1.971   .     S
Cu108  O142    1.955   .     S
Cu108  O145    1.972   .     S
Cu108  N135    2.009   .     S
H119   C172    1.113   .     S
O148   C155    1.389   .     S
C149   O211    1.292   .     A
C149   O216    1.292   .     A
C149   C162    1.457   .     S
C150   C152    1.412   .     A
C150   H188    1.081   .     S
C150   C179    1.407   .     A
C151   C171    1.411   .     A
C151   C180    1.411   .     A
C151   C596    1.517   1_554 S
C152   C175    1.412   .     A
C152   C595    1.517   .     S
C153   O218    1.282   .     A
C153   C155    1.438   .     S
C153   O220    1.288   .     A
C154   O221    1.289   .     A
C154   C156    1.438   .     S
C154   O219    1.281   .     A
C156   C7      1.354   1_655 S
C156   O64     1.388   1_655 S
C157   C168    1.402   .     A
C157   C159    1.389   .     A
C157   H183    1.083   .     S
C158   H194    1.083   .     S
C158   C169    1.402   .     A
C158   C161    1.389   .     A
C159   H202    1.084   .     S
C159   C162    1.399   .     A
C160   O217    1.292   .     A
C160   O215    1.292   .     A
C160   C163    1.459   .     S
C161   C163    1.400   .     A
C161   H203    1.083   .     S
C162   C164    1.401   .     A
C163   C165    1.401   .     A
C164   H204    1.084   .     S
C164   C166    1.397   .     A
C165   C167    1.397   .     A
C165   H205    1.084   .     S
C166   O213    1.383   .     S
C166   C168    1.410   .     A
C167   C169    1.410   .     A
C167   O214    1.383   .     S
C168   C391    1.468   1_545 S
C169   C390    1.468   .     S
C170   H191    1.109   .     S
C170   H190    1.114   .     S
C170   O222    1.411   .     S
C170   H41     1.113   1_655 S
C171   H206    1.081   .     S
C171   C176    1.407   .     A
C172   O212    1.412   .     S
C172   H192    1.114   .     S
C172   H195    1.109   .     S
C173   H198    1.109   .     S
C173   H196    1.113   .     S
C173   H197    1.113   .     S
C173   O213    1.410   .     S
C174   H200    1.113   .     S
C174   H199    1.113   .     S
C174   O214    1.410   .     S
C174   H201    1.109   .     S
C175   C177    1.406   .     A
C175   H207    1.081   .     S
C176   N209    1.364   .     A
C176   H208    1.081   .     S
C177   H184    1.079   .     S
C177   N210    1.362   .     A
C178   C180    1.407   .     A
C178   N209    1.364   .     A
C178   H185    1.081   .     S
C179   H186    1.082   .     S
C179   N210    1.363   .     A
C180   H187    1.081   .     S
Cu181  O217    1.955   .     S
Cu181  O211    1.954   .     S
Cu181  Cu182   2.674   .     S
Cu181  O218    1.972   .     S
Cu181  O221    1.971   .     S
Cu181  N210    2.009   .     S
Cu182  O215    1.954   .     S
Cu182  O220    1.971   .     S
Cu182  O216    1.955   .     S
Cu182  O219    1.972   .     S
Cu182  N209    2.009   .     S
H193   C24     1.113   1_655 S
O222   C7      1.389   1_655 S
C223   O285    1.292   .     A
C223   O290    1.292   .     A
C223   C236    1.457   .     S
C224   C226    1.412   .     A
C224   H262    1.081   .     S
C224   C253    1.407   .     A
C225   C245    1.411   .     A
C225   C254    1.411   .     A
C225   C670    1.517   1_554 S
C226   C249    1.412   .     A
C226   C669    1.517   .     S
C227   O292    1.282   .     A
C227   C229    1.438   .     S
C227   O294    1.288   .     A
C228   O295    1.289   .     A
C228   C230    1.438   .     S
C228   O293    1.281   .     A
C229   C378    1.354   1_455 S
C229   O444    1.389   1_455 S
C230   C303    1.354   .     S
C230   O360    1.388   .     S
C231   C242    1.402   .     A
C231   C233    1.389   .     A
C231   H257    1.083   .     S
C232   H268    1.083   .     S
C232   C243    1.402   .     A
C232   C235    1.389   .     A
C233   H276    1.084   .     S
C233   C236    1.399   .     A
C234   O291    1.292   .     A
C234   O289    1.292   .     A
C234   C237    1.459   .     S
C235   C237    1.400   .     A
C235   H277    1.083   .     S
C236   C238    1.401   .     A
C237   C239    1.401   .     A
C238   H278    1.084   .     S
C238   C240    1.397   .     A
C239   C241    1.397   .     A
C239   H279    1.084   .     S
C240   O287    1.383   .     S
C240   C242    1.410   .     A
C241   C243    1.410   .     A
C241   O288    1.383   .     S
C243   C20     1.468   1_565 S
C244   H265    1.109   .     S
C244   H264    1.114   .     S
C244   O296    1.411   .     S
C244   H337    1.113   .     S
C245   H280    1.081   .     S
C245   C250    1.407   .     A
C246   O286    1.412   .     S
C246   H266    1.114   .     S
C246   H269    1.109   .     S
C246   H415    1.113   1_455 S
C247   H272    1.109   .     S
C247   H270    1.113   .     S
C247   H271    1.113   .     S
C247   O287    1.410   .     S
C248   H274    1.113   .     S
C248   H273    1.113   .     S
C248   O288    1.410   .     S
C248   H275    1.109   .     S
C249   C251    1.406   .     A
C249   H281    1.081   .     S
C250   N283    1.364   .     A
C250   H282    1.081   .     S
C251   H258    1.079   .     S
C251   N284    1.362   .     A
C252   C254    1.407   .     A
C252   N283    1.364   .     A
C252   H259    1.081   .     S
C253   H260    1.082   .     S
C253   N284    1.363   .     A
C254   H261    1.081   .     S
Cu255  O291    1.955   .     S
Cu255  O285    1.954   .     S
Cu255  Cu256   2.674   .     S
Cu255  O292    1.972   .     S
Cu255  O295    1.971   .     S
Cu255  N284    2.009   .     S
Cu256  O289    1.954   .     S
Cu256  O294    1.971   .     S
Cu256  O290    1.955   .     S
Cu256  O293    1.972   .     S
Cu256  N283    2.009   .     S
H263   C392    1.113   1_455 S
H267   C320    1.113   .     S
O286   C378    1.388   1_455 S
O296   C303    1.389   .     S
C297   O359    1.292   .     A
C297   O364    1.292   .     A
C297   C310    1.457   .     S
C298   C300    1.412   .     A
C298   H336    1.081   .     S
C298   C327    1.407   .     A
C299   C319    1.411   .     A
C299   C328    1.411   .     A
C299   C744    1.517   1_554 S
C300   C323    1.412   .     A
C300   C743    1.517   .     S
C301   O366    1.282   .     A
C301   C303    1.438   .     S
C301   O368    1.288   .     A
C302   O369    1.289   .     A
C302   C304    1.438   .     S
C302   O367    1.281   .     A
C304   C377    1.354   .     S
C304   O434    1.388   .     S
C305   C316    1.402   .     A
C305   C307    1.389   .     A
C305   H331    1.083   .     S
C306   H342    1.083   .     S
C306   C317    1.402   .     A
C306   C309    1.389   .     A
C307   H350    1.084   .     S
C307   C310    1.399   .     A
C308   O365    1.292   .     A
C308   O363    1.292   .     A
C308   C311    1.459   .     S
C309   C311    1.400   .     A
C309   H351    1.083   .     S
C310   C312    1.401   .     A
C311   C313    1.401   .     A
C312   H352    1.084   .     S
C312   C314    1.397   .     A
C313   C315    1.397   .     A
C313   H353    1.084   .     S
C314   O361    1.383   .     S
C314   C316    1.410   .     A
C315   C317    1.410   .     A
C315   O362    1.383   .     S
C317   C94     1.468   1_565 S
C318   H339    1.109   .     S
C318   H338    1.114   .     S
C318   O370    1.411   .     S
C318   H411    1.113   .     S
C319   H354    1.081   .     S
C319   C324    1.407   .     A
C320   O360    1.412   .     S
C320   H340    1.114   .     S
C320   H343    1.109   .     S
C321   H346    1.109   .     S
C321   H344    1.113   .     S
C321   H345    1.113   .     S
C321   O361    1.410   .     S
C322   H348    1.113   .     S
C322   H347    1.113   .     S
C322   O362    1.410   .     S
C322   H349    1.109   .     S
C323   C325    1.406   .     A
C323   H355    1.081   .     S
C324   N357    1.364   .     A
C324   H356    1.081   .     S
C325   H332    1.079   .     S
C325   N358    1.362   .     A
C326   C328    1.407   .     A
C326   N357    1.364   .     A
C326   H333    1.081   .     S
C327   H334    1.082   .     S
C327   N358    1.363   .     A
C328   H335    1.081   .     S
Cu329  O365    1.955   .     S
Cu329  O359    1.954   .     S
Cu329  Cu330   2.674   .     S
Cu329  O366    1.972   .     S
Cu329  O369    1.971   .     S
Cu329  N358    2.009   .     S
Cu330  O363    1.954   .     S
Cu330  O368    1.971   .     S
Cu330  O364    1.955   .     S
Cu330  O367    1.972   .     S
Cu330  N357    2.009   .     S
H341   C394    1.113   .     S
O370   C377    1.389   .     S
C371   O433    1.292   .     A
C371   O438    1.292   .     A
C371   C384    1.457   .     S
C372   C374    1.412   .     A
C372   H410    1.081   .     S
C372   C401    1.407   .     A
C373   C393    1.411   .     A
C373   C402    1.411   .     A
C373   C818    1.517   1_554 S
C374   C397    1.412   .     A
C374   C817    1.517   .     S
C375   O440    1.282   .     A
C375   C377    1.438   .     S
C375   O442    1.288   .     A
C376   O443    1.289   .     A
C376   C378    1.438   .     S
C376   O441    1.281   .     A
C378   C229    1.354   1_655 S
C378   O286    1.388   1_655 S
C379   C390    1.402   .     A
C379   C381    1.389   .     A
C379   H405    1.083   .     S
C380   H416    1.083   .     S
C380   C391    1.402   .     A
C380   C383    1.389   .     A
C381   H424    1.084   .     S
C381   C384    1.399   .     A
C382   O439    1.292   .     A
C382   O437    1.292   .     A
C382   C385    1.459   .     S
C383   C385    1.400   .     A
C383   H425    1.083   .     S
C384   C386    1.401   .     A
C385   C387    1.401   .     A
C386   H426    1.084   .     S
C386   C388    1.397   .     A
C387   C389    1.397   .     A
C387   H427    1.084   .     S
C388   O435    1.383   .     S
C388   C390    1.410   .     A
C389   C391    1.410   .     A
C389   O436    1.383   .     S
C391   C168    1.468   1_565 S
C392   H413    1.109   .     S
C392   H412    1.114   .     S
C392   O444    1.411   .     S
C392   H263    1.113   1_655 S
C393   H428    1.081   .     S
C393   C398    1.407   .     A
C394   O434    1.412   .     S
C394   H414    1.114   .     S
C394   H417    1.109   .     S
C395   H420    1.109   .     S
C395   H418    1.113   .     S
C395   H419    1.113   .     S
C395   O435    1.410   .     S
C396   H422    1.113   .     S
C396   H421    1.113   .     S
C396   O436    1.410   .     S
C396   H423    1.109   .     S
C397   C399    1.406   .     A
C397   H429    1.081   .     S
C398   N431    1.364   .     A
C398   H430    1.081   .     S
C399   H406    1.079   .     S
C399   N432    1.362   .     A
C400   C402    1.407   .     A
C400   N431    1.364   .     A
C400   H407    1.081   .     S
C401   H408    1.082   .     S
C401   N432    1.363   .     A
C402   H409    1.081   .     S
Cu403  O439    1.955   .     S
Cu403  O433    1.954   .     S
Cu403  Cu404   2.674   .     S
Cu403  O440    1.972   .     S
Cu403  O443    1.971   .     S
Cu403  N432    2.009   .     S
Cu404  O437    1.954   .     S
Cu404  O442    1.971   .     S
Cu404  O438    1.955   .     S
Cu404  O441    1.972   .     S
Cu404  N431    2.009   .     S
H415   C246    1.113   1_655 S
O444   C229    1.389   1_655 S
C445   O507    1.292   .     A
C445   O512    1.292   .     A
C445   C458    1.457   .     S
C446   C448    1.412   .     A
C446   H484    1.081   .     S
C446   C475    1.407   .     A
C447   C467    1.411   .     A
C447   C476    1.411   .     A
C448   C471    1.412   .     A
C448   C3      1.517   1_556 S
C449   O514    1.282   .     A
C449   C451    1.438   .     S
C449   O516    1.288   .     A
C450   O517    1.289   .     A
C450   C452    1.438   .     S
C450   O515    1.281   .     A
C451   C600    1.354   1_455 S
C451   O666    1.389   1_455 S
C452   C525    1.354   .     S
C452   O582    1.388   .     S
C453   C464    1.402   .     A
C453   C455    1.389   .     A
C453   H479    1.083   .     S
C454   H490    1.083   .     S
C454   C465    1.402   .     A
C454   C457    1.389   .     A
C455   H498    1.084   .     S
C455   C458    1.399   .     A
C456   O513    1.292   .     A
C456   O511    1.292   .     A
C456   C459    1.459   .     S
C457   C459    1.400   .     A
C457   H499    1.083   .     S
C458   C460    1.401   .     A
C459   C461    1.401   .     A
C460   H500    1.084   .     S
C460   C462    1.397   .     A
C461   C463    1.397   .     A
C461   H501    1.084   .     S
C462   O509    1.383   .     S
C462   C464    1.410   .     A
C463   C465    1.410   .     A
C463   O510    1.383   .     S
C464   C687    1.468   1_545 S
C465   C686    1.468   .     S
C466   H487    1.109   .     S
C466   H486    1.114   .     S
C466   O518    1.411   .     S
C466   H559    1.113   .     S
C467   H502    1.081   .     S
C467   C472    1.407   .     A
C468   O508    1.412   .     S
C468   H488    1.114   .     S
C468   H491    1.109   .     S
C468   H637    1.113   1_455 S
C469   H494    1.109   .     S
C469   H492    1.113   .     S
C469   H493    1.113   .     S
C469   O509    1.410   .     S
C470   H496    1.113   .     S
C470   H495    1.113   .     S
C470   O510    1.410   .     S
C470   H497    1.109   .     S
C471   C473    1.406   .     A
C471   H503    1.081   .     S
C472   N505    1.364   .     A
C472   H504    1.081   .     S
C473   H480    1.079   .     S
C473   N506    1.362   .     A
C474   C476    1.407   .     A
C474   N505    1.364   .     A
C474   H481    1.081   .     S
C475   H482    1.082   .     S
C475   N506    1.363   .     A
C476   H483    1.081   .     S
Cu477  O513    1.955   .     S
Cu477  O507    1.954   .     S
Cu477  Cu478   2.674   .     S
Cu477  O514    1.972   .     S
Cu477  O517    1.971   .     S
Cu477  N506    2.009   .     S
Cu478  O511    1.954   .     S
Cu478  O516    1.971   .     S
Cu478  O512    1.955   .     S
Cu478  O515    1.972   .     S
Cu478  N505    2.009   .     S
H485   C614    1.113   1_455 S
H489   C542    1.113   .     S
O508   C600    1.388   1_455 S
O518   C525    1.389   .     S
C519   O581    1.292   .     A
C519   O586    1.292   .     A
C519   C532    1.457   .     S
C520   C522    1.412   .     A
C520   H558    1.081   .     S
C520   C549    1.407   .     A
C521   C541    1.411   .     A
C521   C550    1.411   .     A
C522   C545    1.412   .     A
C522   C77     1.517   1_556 S
C523   O588    1.282   .     A
C523   C525    1.438   .     S
C523   O590    1.288   .     A
C524   O591    1.289   .     A
C524   C526    1.438   .     S
C524   O589    1.281   .     A
C526   C599    1.354   .     S
C526   O656    1.388   .     S
C527   C538    1.402   .     A
C527   C529    1.389   .     A
C527   H553    1.083   .     S
C528   H564    1.083   .     S
C528   C539    1.402   .     A
C528   C531    1.389   .     A
C529   H572    1.084   .     S
C529   C532    1.399   .     A
C530   O587    1.292   .     A
C530   O585    1.292   .     A
C530   C533    1.459   .     S
C531   C533    1.400   .     A
C531   H573    1.083   .     S
C532   C534    1.401   .     A
C533   C535    1.401   .     A
C534   H574    1.084   .     S
C534   C536    1.397   .     A
C535   C537    1.397   .     A
C535   H575    1.084   .     S
C536   O583    1.383   .     S
C536   C538    1.410   .     A
C537   C539    1.410   .     A
C537   O584    1.383   .     S
C538   C761    1.468   1_545 S
C539   C760    1.468   .     S
C540   H561    1.109   .     S
C540   H560    1.114   .     S
C540   O592    1.411   .     S
C540   H633    1.113   .     S
C541   H576    1.081   .     S
C541   C546    1.407   .     A
C542   O582    1.412   .     S
C542   H562    1.114   .     S
C542   H565    1.109   .     S
C543   H568    1.109   .     S
C543   H566    1.113   .     S
C543   H567    1.113   .     S
C543   O583    1.410   .     S
C544   H570    1.113   .     S
C544   H569    1.113   .     S
C544   O584    1.410   .     S
C544   H571    1.109   .     S
C545   C547    1.406   .     A
C545   H577    1.081   .     S
C546   N579    1.364   .     A
C546   H578    1.081   .     S
C547   H554    1.079   .     S
C547   N580    1.362   .     A
C548   C550    1.407   .     A
C548   N579    1.364   .     A
C548   H555    1.081   .     S
C549   H556    1.082   .     S
C549   N580    1.363   .     A
C550   H557    1.081   .     S
Cu551  O587    1.955   .     S
Cu551  O581    1.954   .     S
Cu551  Cu552   2.674   .     S
Cu551  O588    1.972   .     S
Cu551  O591    1.971   .     S
Cu551  N580    2.009   .     S
Cu552  O585    1.954   .     S
Cu552  O590    1.971   .     S
Cu552  O586    1.955   .     S
Cu552  O589    1.972   .     S
Cu552  N579    2.009   .     S
H563   C616    1.113   .     S
O592   C599    1.389   .     S
C593   O655    1.292   .     A
C593   O660    1.292   .     A
C593   C606    1.457   .     S
C594   C596    1.412   .     A
C594   H632    1.081   .     S
C594   C623    1.407   .     A
C595   C615    1.411   .     A
C595   C624    1.411   .     A
C596   C619    1.412   .     A
C596   C151    1.517   1_556 S
C597   O662    1.282   .     A
C597   C599    1.438   .     S
C597   O664    1.288   .     A
C598   O665    1.289   .     A
C598   C600    1.438   .     S
C598   O663    1.281   .     A
C600   C451    1.354   1_655 S
C600   O508    1.388   1_655 S
C601   C612    1.402   .     A
C601   C603    1.389   .     A
C601   H627    1.083   .     S
C602   H638    1.083   .     S
C602   C613    1.402   .     A
C602   C605    1.389   .     A
C603   H646    1.084   .     S
C603   C606    1.399   .     A
C604   O661    1.292   .     A
C604   O659    1.292   .     A
C604   C607    1.459   .     S
C605   C607    1.400   .     A
C605   H647    1.083   .     S
C606   C608    1.401   .     A
C607   C609    1.401   .     A
C608   H648    1.084   .     S
C608   C610    1.397   .     A
C609   C611    1.397   .     A
C609   H649    1.084   .     S
C610   O657    1.383   .     S
C610   C612    1.410   .     A
C611   C613    1.410   .     A
C611   O658    1.383   .     S
C612   C835    1.468   1_545 S
C613   C834    1.468   .     S
C614   H635    1.109   .     S
C614   H634    1.114   .     S
C614   O666    1.411   .     S
C614   H485    1.113   1_655 S
C615   H650    1.081   .     S
C615   C620    1.407   .     A
C616   O656    1.412   .     S
C616   H636    1.114   .     S
C616   H639    1.109   .     S
C617   H642    1.109   .     S
C617   H640    1.113   .     S
C617   H641    1.113   .     S
C617   O657    1.410   .     S
C618   H644    1.113   .     S
C618   H643    1.113   .     S
C618   O658    1.410   .     S
C618   H645    1.109   .     S
C619   C621    1.406   .     A
C619   H651    1.081   .     S
C620   N653    1.364   .     A
C620   H652    1.081   .     S
C621   H628    1.079   .     S
C621   N654    1.362   .     A
C622   C624    1.407   .     A
C622   N653    1.364   .     A
C622   H629    1.081   .     S
C623   H630    1.082   .     S
C623   N654    1.363   .     A
C624   H631    1.081   .     S
Cu625  O661    1.955   .     S
Cu625  O655    1.954   .     S
Cu625  Cu626   2.674   .     S
Cu625  O662    1.972   .     S
Cu625  O665    1.971   .     S
Cu625  N654    2.009   .     S
Cu626  O659    1.954   .     S
Cu626  O664    1.971   .     S
Cu626  O660    1.955   .     S
Cu626  O663    1.972   .     S
Cu626  N653    2.009   .     S
H637   C468    1.113   1_655 S
O666   C451    1.389   1_655 S
C667   O729    1.292   .     A
C667   O734    1.292   .     A
C667   C680    1.457   .     S
C668   C670    1.412   .     A
C668   H706    1.081   .     S
C668   C697    1.407   .     A
C669   C689    1.411   .     A
C669   C698    1.411   .     A
C670   C693    1.412   .     A
C670   C225    1.517   1_556 S
C671   O736    1.282   .     A
C671   C673    1.438   .     S
C671   O738    1.288   .     A
C672   O739    1.289   .     A
C672   C674    1.438   .     S
C672   O737    1.281   .     A
C673   C822    1.354   1_455 S
C673   O888    1.389   1_455 S
C674   C747    1.354   .     S
C674   O804    1.388   .     S
C675   C686    1.402   .     A
C675   C677    1.389   .     A
C675   H701    1.083   .     S
C676   H712    1.083   .     S
C676   C687    1.402   .     A
C676   C679    1.389   .     A
C677   H720    1.084   .     S
C677   C680    1.399   .     A
C678   O735    1.292   .     A
C678   O733    1.292   .     A
C678   C681    1.459   .     S
C679   C681    1.400   .     A
C679   H721    1.083   .     S
C680   C682    1.401   .     A
C681   C683    1.401   .     A
C682   H722    1.084   .     S
C682   C684    1.397   .     A
C683   C685    1.397   .     A
C683   H723    1.084   .     S
C684   O731    1.383   .     S
C684   C686    1.410   .     A
C685   C687    1.410   .     A
C685   O732    1.383   .     S
C687   C464    1.468   1_565 S
C688   H709    1.109   .     S
C688   H708    1.114   .     S
C688   O740    1.411   .     S
C688   H781    1.113   .     S
C689   H724    1.081   .     S
C689   C694    1.407   .     A
C690   O730    1.412   .     S
C690   H710    1.114   .     S
C690   H713    1.109   .     S
C690   H859    1.113   1_455 S
C691   H716    1.109   .     S
C691   H714    1.113   .     S
C691   H715    1.113   .     S
C691   O731    1.410   .     S
C692   H718    1.113   .     S
C692   H717    1.113   .     S
C692   O732    1.410   .     S
C692   H719    1.109   .     S
C693   C695    1.406   .     A
C693   H725    1.081   .     S
C694   N727    1.364   .     A
C694   H726    1.081   .     S
C695   H702    1.079   .     S
C695   N728    1.362   .     A
C696   C698    1.407   .     A
C696   N727    1.364   .     A
C696   H703    1.081   .     S
C697   H704    1.082   .     S
C697   N728    1.363   .     A
C698   H705    1.081   .     S
Cu699  O735    1.955   .     S
Cu699  O729    1.954   .     S
Cu699  Cu700   2.674   .     S
Cu699  O736    1.972   .     S
Cu699  O739    1.971   .     S
Cu699  N728    2.009   .     S
Cu700  O733    1.954   .     S
Cu700  O738    1.971   .     S
Cu700  O734    1.955   .     S
Cu700  O737    1.972   .     S
Cu700  N727    2.009   .     S
H707   C836    1.113   1_455 S
H711   C764    1.113   .     S
O730   C822    1.388   1_455 S
O740   C747    1.389   .     S
C741   O803    1.292   .     A
C741   O808    1.292   .     A
C741   C754    1.457   .     S
C742   C744    1.412   .     A
C742   H780    1.081   .     S
C742   C771    1.407   .     A
C743   C763    1.411   .     A
C743   C772    1.411   .     A
C744   C767    1.412   .     A
C744   C299    1.517   1_556 S
C745   O810    1.282   .     A
C745   C747    1.438   .     S
C745   O812    1.288   .     A
C746   O813    1.289   .     A
C746   C748    1.438   .     S
C746   O811    1.281   .     A
C748   C821    1.354   .     S
C748   O878    1.388   .     S
C749   C760    1.402   .     A
C749   C751    1.389   .     A
C749   H775    1.083   .     S
C750   H786    1.083   .     S
C750   C761    1.402   .     A
C750   C753    1.389   .     A
C751   H794    1.084   .     S
C751   C754    1.399   .     A
C752   O809    1.292   .     A
C752   O807    1.292   .     A
C752   C755    1.459   .     S
C753   C755    1.400   .     A
C753   H795    1.083   .     S
C754   C756    1.401   .     A
C755   C757    1.401   .     A
C756   H796    1.084   .     S
C756   C758    1.397   .     A
C757   C759    1.397   .     A
C757   H797    1.084   .     S
C758   O805    1.383   .     S
C758   C760    1.410   .     A
C759   C761    1.410   .     A
C759   O806    1.383   .     S
C761   C538    1.468   1_565 S
C762   H783    1.109   .     S
C762   H782    1.114   .     S
C762   O814    1.411   .     S
C762   H855    1.113   .     S
C763   H798    1.081   .     S
C763   C768    1.407   .     A
C764   O804    1.412   .     S
C764   H784    1.114   .     S
C764   H787    1.109   .     S
C765   H790    1.109   .     S
C765   H788    1.113   .     S
C765   H789    1.113   .     S
C765   O805    1.410   .     S
C766   H792    1.113   .     S
C766   H791    1.113   .     S
C766   O806    1.410   .     S
C766   H793    1.109   .     S
C767   C769    1.406   .     A
C767   H799    1.081   .     S
C768   N801    1.364   .     A
C768   H800    1.081   .     S
C769   H776    1.079   .     S
C769   N802    1.362   .     A
C770   C772    1.407   .     A
C770   N801    1.364   .     A
C770   H777    1.081   .     S
C771   H778    1.082   .     S
C771   N802    1.363   .     A
C772   H779    1.081   .     S
Cu773  O809    1.955   .     S
Cu773  O803    1.954   .     S
Cu773  Cu774   2.674   .     S
Cu773  O810    1.972   .     S
Cu773  O813    1.971   .     S
Cu773  N802    2.009   .     S
Cu774  O807    1.954   .     S
Cu774  O812    1.971   .     S
Cu774  O808    1.955   .     S
Cu774  O811    1.972   .     S
Cu774  N801    2.009   .     S
H785   C838    1.113   .     S
O814   C821    1.389   .     S
C815   O877    1.292   .     A
C815   O882    1.292   .     A
C815   C828    1.457   .     S
C816   C818    1.412   .     A
C816   H854    1.081   .     S
C816   C845    1.407   .     A
C817   C837    1.411   .     A
C817   C846    1.411   .     A
C818   C841    1.412   .     A
C818   C373    1.517   1_556 S
C819   O884    1.282   .     A
C819   C821    1.438   .     S
C819   O886    1.288   .     A
C820   O887    1.289   .     A
C820   C822    1.438   .     S
C820   O885    1.281   .     A
C822   C673    1.354   1_655 S
C822   O730    1.388   1_655 S
C823   C834    1.402   .     A
C823   C825    1.389   .     A
C823   H849    1.083   .     S
C824   H860    1.083   .     S
C824   C835    1.402   .     A
C824   C827    1.389   .     A
C825   H868    1.084   .     S
C825   C828    1.399   .     A
C826   O883    1.292   .     A
C826   O881    1.292   .     A
C826   C829    1.459   .     S
C827   C829    1.400   .     A
C827   H869    1.083   .     S
C828   C830    1.401   .     A
C829   C831    1.401   .     A
C830   H870    1.084   .     S
C830   C832    1.397   .     A
C831   C833    1.397   .     A
C831   H871    1.084   .     S
C832   O879    1.383   .     S
C832   C834    1.410   .     A
C833   C835    1.410   .     A
C833   O880    1.383   .     S
C835   C612    1.468   1_565 S
C836   H857    1.109   .     S
C836   H856    1.114   .     S
C836   O888    1.411   .     S
C836   H707    1.113   1_655 S
C837   H872    1.081   .     S
C837   C842    1.407   .     A
C838   O878    1.412   .     S
C838   H858    1.114   .     S
C838   H861    1.109   .     S
C839   H864    1.109   .     S
C839   H862    1.113   .     S
C839   H863    1.113   .     S
C839   O879    1.410   .     S
C840   H866    1.113   .     S
C840   H865    1.113   .     S
C840   O880    1.410   .     S
C840   H867    1.109   .     S
C841   C843    1.406   .     A
C841   H873    1.081   .     S
C842   N875    1.364   .     A
C842   H874    1.081   .     S
C843   H850    1.079   .     S
C843   N876    1.362   .     A
C844   C846    1.407   .     A
C844   N875    1.364   .     A
C844   H851    1.081   .     S
C845   H852    1.082   .     S
C845   N876    1.363   .     A
C846   H853    1.081   .     S
Cu847  O883    1.955   .     S
Cu847  O877    1.954   .     S
Cu847  Cu848   2.674   .     S
Cu847  O884    1.972   .     S
Cu847  O887    1.971   .     S
Cu847  N876    2.009   .     S
Cu848  O881    1.954   .     S
Cu848  O886    1.971   .     S
Cu848  O882    1.955   .     S
Cu848  O885    1.972   .     S
Cu848  N875    2.009   .     S
H859   C690    1.113   1_655 S
O888   C673    1.389   1_655 S
