data_str_m2_o2_o10_pcu_sym.138
_audit_creation_date              2020-01-03
_audit_creation_method            'Materials Studio'
_symmetry_space_group_name_H-M    'P1'
_symmetry_Int_Tables_number       1
_symmetry_cell_setting            triclinic
loop_
_symmetry_equiv_pos_as_xyz
  x,y,z
_cell_length_a                    26.1902
_cell_length_b                    30.1926
_cell_length_c                    27.7912
_cell_angle_alpha                 90.5378
_cell_angle_beta                  98.5010
_cell_angle_gamma                 91.1478
loop_
_atom_site_label
_atom_site_type_symbol
_atom_site_fract_x
_atom_site_fract_y
_atom_site_fract_z
_atom_site_U_iso_or_equiv
_atom_site_adp_type
_atom_site_occupancy
C1     C     0.17093   0.16487   0.25037   0.00000  Uiso   1.00
C2     C     0.16240   0.33513   0.24963   0.00000  Uiso   1.00
C3     C     0.19239   0.28499   0.05885   0.00000  Uiso   1.00
C4     C     0.14094   0.21501   0.44115   0.00000  Uiso   1.00
C5     C     0.19551   0.28101   0.10967   0.00000  Uiso   1.00
C6     C     0.13782   0.21899   0.39033   0.00000  Uiso   1.00
C7     C     0.13093   0.22488   0.09915   0.00000  Uiso   1.00
C8     C     0.20240   0.27512   0.40085   0.00000  Uiso   1.00
C9     C     0.12557   0.22955   0.04826   0.00000  Uiso   1.00
C10    C     0.20776   0.27045   0.45174   0.00000  Uiso   1.00
C11    C     0.16388   0.25285   0.02712   0.00000  Uiso   1.00
C12    C     0.16945   0.24715   0.47288   0.00000  Uiso   1.00
C13    C     0.06786   0.24994   0.23745   0.00000  Uiso   1.00
C14    C     0.26548   0.25006   0.26255   0.00000  Uiso   1.00
C15    C     0.01245   0.24996   0.23062   0.00000  Uiso   1.00
C16    C     0.32088   0.25004   0.26938   0.00000  Uiso   1.00
C17    C     0.19204   0.04680   0.29528   0.00000  Uiso   1.00
C18    C     0.14130   0.45320   0.20472   0.00000  Uiso   1.00
C19    C     0.19008   0.09319   0.29588   0.00000  Uiso   1.00
C20    C     0.14325   0.40681   0.20412   0.00000  Uiso   1.00
C21    C     0.18051   0.11629   0.25119   0.00000  Uiso   1.00
C22    C     0.15282   0.38371   0.24881   0.00000  Uiso   1.00
C23    C     0.18660   0.09237   0.20810   0.00000  Uiso   1.00
C24    C     0.14673   0.40763   0.29190   0.00000  Uiso   1.00
C25    C     0.18842   0.04585   0.20923   0.00000  Uiso   1.00
C26    C     0.14492   0.45415   0.29077   0.00000  Uiso   1.00
C27    C     0.17729   0.02355   0.25099   0.00000  Uiso   1.00
C28    C     0.15604   0.47645   0.24901   0.00000  Uiso   1.00
Cu29   Cu    0.16667   0.24999   0.29821   0.00000  Uiso   1.00
Cu30   Cu    0.16667   0.25000   0.20178   0.00000  Uiso   1.00
H31    H     0.32543   0.24991   0.19357   0.00000  Uiso   1.00
H32    H     0.00790   0.25009   0.30643   0.00000  Uiso   1.00
H33    H     0.21794   0.30513   0.13344   0.00000  Uiso   1.00
H34    H     0.11540   0.19487   0.36656   0.00000  Uiso   1.00
N35    N     0.16667   0.25001   0.12934   0.00000  Uiso   1.00
N36    N     0.16667   0.24999   0.37065   0.00000  Uiso   1.00
O37    O     0.16667   0.18573   0.29071   0.00000  Uiso   1.00
O38    O     0.16666   0.31427   0.20928   0.00000  Uiso   1.00
O39    O     0.16667   0.18573   0.20928   0.00000  Uiso   1.00
O40    O     0.16666   0.31427   0.29072   0.00000  Uiso   1.00
O41    O     0.09161   0.24999   0.28132   0.00000  Uiso   1.00
O42    O     0.24172   0.25001   0.21868   0.00000  Uiso   1.00
O43    O     0.09161   0.25000   0.19988   0.00000  Uiso   1.00
O44    O     0.24172   0.25000   0.30011   0.00000  Uiso   1.00
Cl45   Cl    0.22693   0.01988   0.34606   0.00000  Uiso   1.00
Cl46   Cl    0.10640   0.48012   0.15394   0.00000  Uiso   1.00
C47    C     0.20230   0.11605   0.34235   0.00000  Uiso   1.00
N48    N     0.21237   0.13409   0.37958   0.00000  Uiso   1.00
C49    C     0.13103   0.38395   0.15765   0.00000  Uiso   1.00
N50    N     0.12097   0.36591   0.12042   0.00000  Uiso   1.00
C51    C     0.19466   0.11449   0.16360   0.00000  Uiso   1.00
N52    N     0.20137   0.13186   0.12804   0.00000  Uiso   1.00
C53    C     0.13867   0.38551   0.33640   0.00000  Uiso   1.00
N54    N     0.13197   0.36814   0.37196   0.00000  Uiso   1.00
C55    C     0.21133   0.02229   0.17222   0.00000  Uiso   1.00
N56    N     0.22985   0.00363   0.14282   0.00000  Uiso   1.00
C57    C     0.12200   0.47771   0.32777   0.00000  Uiso   1.00
N58    N     0.10348   0.49637   0.35718   0.00000  Uiso   1.00
Cl59   Cl    0.20814   0.33813   0.03869   0.00000  Uiso   1.00
Cl60   Cl    0.12519   0.16187   0.46131   0.00000  Uiso   1.00
Cl61   Cl    0.08832   0.18786   0.12275   0.00000  Uiso   1.00
Cl62   Cl    0.24501   0.31214   0.37725   0.00000  Uiso   1.00
Cl63   Cl    0.06236   0.22262   0.01583   0.00000  Uiso   1.00
Cl64   Cl    0.27098   0.27738   0.48417   0.00000  Uiso   1.00
C65    C     0.50427   0.16487   0.25037   0.00000  Uiso   1.00
C66    C     0.49573   0.33513   0.24963   0.00000  Uiso   1.00
C67    C     0.52573   0.28499   0.05885   0.00000  Uiso   1.00
C68    C     0.47427   0.21501   0.44115   0.00000  Uiso   1.00
C69    C     0.52884   0.28101   0.10967   0.00000  Uiso   1.00
C70    C     0.47116   0.21899   0.39033   0.00000  Uiso   1.00
C71    C     0.46426   0.22488   0.09915   0.00000  Uiso   1.00
C72    C     0.53574   0.27512   0.40085   0.00000  Uiso   1.00
C73    C     0.45890   0.22955   0.04826   0.00000  Uiso   1.00
C74    C     0.54109   0.27045   0.45174   0.00000  Uiso   1.00
C75    C     0.49722   0.25285   0.02712   0.00000  Uiso   1.00
C76    C     0.50278   0.24715   0.47288   0.00000  Uiso   1.00
C77    C     0.40119   0.24994   0.23745   0.00000  Uiso   1.00
C78    C     0.59881   0.25006   0.26255   0.00000  Uiso   1.00
C79    C     0.34578   0.24996   0.23062   0.00000  Uiso   1.00
C80    C     0.65422   0.25004   0.26938   0.00000  Uiso   1.00
C81    C     0.52537   0.04680   0.29528   0.00000  Uiso   1.00
C82    C     0.47463   0.45320   0.20472   0.00000  Uiso   1.00
C83    C     0.52341   0.09319   0.29588   0.00000  Uiso   1.00
C84    C     0.47659   0.40681   0.20412   0.00000  Uiso   1.00
C85    C     0.51385   0.11629   0.25119   0.00000  Uiso   1.00
C86    C     0.48615   0.38371   0.24881   0.00000  Uiso   1.00
C87    C     0.51993   0.09237   0.20810   0.00000  Uiso   1.00
C88    C     0.48007   0.40763   0.29190   0.00000  Uiso   1.00
C89    C     0.52175   0.04585   0.20923   0.00000  Uiso   1.00
C90    C     0.47825   0.45415   0.29077   0.00000  Uiso   1.00
C91    C     0.51062   0.02355   0.25099   0.00000  Uiso   1.00
C92    C     0.48938   0.47645   0.24901   0.00000  Uiso   1.00
Cu93   Cu    0.50000   0.24999   0.29821   0.00000  Uiso   1.00
Cu94   Cu    0.50000   0.25000   0.20178   0.00000  Uiso   1.00
H95    H     0.65876   0.24991   0.19357   0.00000  Uiso   1.00
H96    H     0.34124   0.25009   0.30643   0.00000  Uiso   1.00
H97    H     0.55127   0.30513   0.13344   0.00000  Uiso   1.00
H98    H     0.44873   0.19487   0.36656   0.00000  Uiso   1.00
N99    N     0.50000   0.25001   0.12934   0.00000  Uiso   1.00
N100   N     0.50000   0.24999   0.37065   0.00000  Uiso   1.00
O101   O     0.50000   0.18573   0.29071   0.00000  Uiso   1.00
O102   O     0.50000   0.31427   0.20928   0.00000  Uiso   1.00
O103   O     0.50000   0.18573   0.20928   0.00000  Uiso   1.00
O104   O     0.50000   0.31427   0.29072   0.00000  Uiso   1.00
O105   O     0.42495   0.24999   0.28132   0.00000  Uiso   1.00
O106   O     0.57505   0.25001   0.21868   0.00000  Uiso   1.00
O107   O     0.42495   0.25000   0.19988   0.00000  Uiso   1.00
O108   O     0.57505   0.25000   0.30011   0.00000  Uiso   1.00
Cl109  Cl    0.56026   0.01988   0.34606   0.00000  Uiso   1.00
Cl110  Cl    0.43973   0.48012   0.15394   0.00000  Uiso   1.00
C111   C     0.53563   0.11605   0.34235   0.00000  Uiso   1.00
N112   N     0.54570   0.13409   0.37958   0.00000  Uiso   1.00
C113   C     0.46437   0.38395   0.15765   0.00000  Uiso   1.00
N114   N     0.45430   0.36591   0.12042   0.00000  Uiso   1.00
C115   C     0.52799   0.11449   0.16360   0.00000  Uiso   1.00
N116   N     0.53470   0.13186   0.12804   0.00000  Uiso   1.00
C117   C     0.47201   0.38551   0.33640   0.00000  Uiso   1.00
N118   N     0.46530   0.36814   0.37196   0.00000  Uiso   1.00
C119   C     0.54466   0.02229   0.17222   0.00000  Uiso   1.00
N120   N     0.56318   0.00363   0.14282   0.00000  Uiso   1.00
C121   C     0.45533   0.47771   0.32777   0.00000  Uiso   1.00
N122   N     0.43682   0.49637   0.35718   0.00000  Uiso   1.00
Cl123  Cl    0.54147   0.33813   0.03869   0.00000  Uiso   1.00
Cl124  Cl    0.45853   0.16187   0.46131   0.00000  Uiso   1.00
Cl125  Cl    0.42166   0.18786   0.12275   0.00000  Uiso   1.00
Cl126  Cl    0.57834   0.31214   0.37725   0.00000  Uiso   1.00
Cl127  Cl    0.39569   0.22262   0.01583   0.00000  Uiso   1.00
Cl128  Cl    0.60431   0.27738   0.48417   0.00000  Uiso   1.00
C129   C     0.83760   0.16487   0.25037   0.00000  Uiso   1.00
C130   C     0.82907   0.33513   0.24963   0.00000  Uiso   1.00
C131   C     0.85906   0.28499   0.05885   0.00000  Uiso   1.00
C132   C     0.80761   0.21501   0.44115   0.00000  Uiso   1.00
C133   C     0.86218   0.28101   0.10967   0.00000  Uiso   1.00
C134   C     0.80449   0.21899   0.39033   0.00000  Uiso   1.00
C135   C     0.79760   0.22488   0.09915   0.00000  Uiso   1.00
C136   C     0.86907   0.27512   0.40085   0.00000  Uiso   1.00
C137   C     0.79224   0.22955   0.04826   0.00000  Uiso   1.00
C138   C     0.87443   0.27045   0.45174   0.00000  Uiso   1.00
C139   C     0.83055   0.25285   0.02712   0.00000  Uiso   1.00
C140   C     0.83612   0.24715   0.47288   0.00000  Uiso   1.00
C141   C     0.73452   0.24994   0.23745   0.00000  Uiso   1.00
C142   C     0.93214   0.25006   0.26255   0.00000  Uiso   1.00
C143   C     0.67912   0.24996   0.23062   0.00000  Uiso   1.00
C144   C     0.98755   0.25004   0.26938   0.00000  Uiso   1.00
C145   C     0.85870   0.04680   0.29528   0.00000  Uiso   1.00
C146   C     0.80796   0.45320   0.20472   0.00000  Uiso   1.00
C147   C     0.85675   0.09319   0.29588   0.00000  Uiso   1.00
C148   C     0.80992   0.40681   0.20412   0.00000  Uiso   1.00
C149   C     0.84718   0.11629   0.25119   0.00000  Uiso   1.00
C150   C     0.81949   0.38371   0.24881   0.00000  Uiso   1.00
C151   C     0.85327   0.09237   0.20810   0.00000  Uiso   1.00
C152   C     0.81340   0.40763   0.29190   0.00000  Uiso   1.00
C153   C     0.85508   0.04585   0.20923   0.00000  Uiso   1.00
C154   C     0.81158   0.45415   0.29077   0.00000  Uiso   1.00
C155   C     0.84396   0.02355   0.25099   0.00000  Uiso   1.00
C156   C     0.82271   0.47645   0.24901   0.00000  Uiso   1.00
Cu157  Cu    0.83333   0.24999   0.29821   0.00000  Uiso   1.00
Cu158  Cu    0.83333   0.25000   0.20178   0.00000  Uiso   1.00
H159   H     0.99210   0.24991   0.19357   0.00000  Uiso   1.00
H160   H     0.67457   0.25009   0.30643   0.00000  Uiso   1.00
H161   H     0.88460   0.30513   0.13344   0.00000  Uiso   1.00
H162   H     0.78206   0.19487   0.36656   0.00000  Uiso   1.00
N163   N     0.83333   0.25001   0.12934   0.00000  Uiso   1.00
N164   N     0.83333   0.24999   0.37065   0.00000  Uiso   1.00
O165   O     0.83334   0.18573   0.29071   0.00000  Uiso   1.00
O166   O     0.83333   0.31427   0.20928   0.00000  Uiso   1.00
O167   O     0.83334   0.18573   0.20928   0.00000  Uiso   1.00
O168   O     0.83333   0.31427   0.29072   0.00000  Uiso   1.00
O169   O     0.75828   0.24999   0.28132   0.00000  Uiso   1.00
O170   O     0.90839   0.25001   0.21868   0.00000  Uiso   1.00
O171   O     0.75828   0.25000   0.19988   0.00000  Uiso   1.00
O172   O     0.90839   0.25000   0.30011   0.00000  Uiso   1.00
Cl173  Cl    0.89360   0.01988   0.34606   0.00000  Uiso   1.00
Cl174  Cl    0.77307   0.48012   0.15394   0.00000  Uiso   1.00
C175   C     0.86897   0.11605   0.34235   0.00000  Uiso   1.00
N176   N     0.87903   0.13409   0.37958   0.00000  Uiso   1.00
C177   C     0.79770   0.38395   0.15765   0.00000  Uiso   1.00
N178   N     0.78763   0.36591   0.12042   0.00000  Uiso   1.00
C179   C     0.86133   0.11449   0.16360   0.00000  Uiso   1.00
N180   N     0.86803   0.13186   0.12804   0.00000  Uiso   1.00
C181   C     0.80534   0.38551   0.33640   0.00000  Uiso   1.00
N182   N     0.79863   0.36814   0.37196   0.00000  Uiso   1.00
C183   C     0.87800   0.02229   0.17222   0.00000  Uiso   1.00
N184   N     0.89652   0.00363   0.14282   0.00000  Uiso   1.00
C185   C     0.78867   0.47771   0.32777   0.00000  Uiso   1.00
N186   N     0.77015   0.49637   0.35718   0.00000  Uiso   1.00
Cl187  Cl    0.87481   0.33813   0.03869   0.00000  Uiso   1.00
Cl188  Cl    0.79186   0.16187   0.46131   0.00000  Uiso   1.00
Cl189  Cl    0.75499   0.18786   0.12275   0.00000  Uiso   1.00
Cl190  Cl    0.91168   0.31214   0.37725   0.00000  Uiso   1.00
Cl191  Cl    0.72902   0.22262   0.01583   0.00000  Uiso   1.00
Cl192  Cl    0.93764   0.27738   0.48417   0.00000  Uiso   1.00
C193   C     0.17093   0.66487   0.25037   0.00000  Uiso   1.00
C194   C     0.16240   0.83513   0.24963   0.00000  Uiso   1.00
C195   C     0.19239   0.78499   0.05885   0.00000  Uiso   1.00
C196   C     0.14094   0.71501   0.44115   0.00000  Uiso   1.00
C197   C     0.19551   0.78101   0.10967   0.00000  Uiso   1.00
C198   C     0.13782   0.71899   0.39033   0.00000  Uiso   1.00
C199   C     0.13093   0.72488   0.09915   0.00000  Uiso   1.00
C200   C     0.20240   0.77512   0.40085   0.00000  Uiso   1.00
C201   C     0.12557   0.72955   0.04826   0.00000  Uiso   1.00
C202   C     0.20776   0.77045   0.45174   0.00000  Uiso   1.00
C203   C     0.16388   0.75285   0.02712   0.00000  Uiso   1.00
C204   C     0.16945   0.74715   0.47288   0.00000  Uiso   1.00
C205   C     0.06786   0.74994   0.23745   0.00000  Uiso   1.00
C206   C     0.26548   0.75006   0.26255   0.00000  Uiso   1.00
C207   C     0.01245   0.74996   0.23062   0.00000  Uiso   1.00
C208   C     0.32088   0.75004   0.26938   0.00000  Uiso   1.00
C209   C     0.19204   0.54680   0.29528   0.00000  Uiso   1.00
C210   C     0.14130   0.95320   0.20472   0.00000  Uiso   1.00
C211   C     0.19008   0.59319   0.29588   0.00000  Uiso   1.00
C212   C     0.14325   0.90681   0.20412   0.00000  Uiso   1.00
C213   C     0.18051   0.61629   0.25119   0.00000  Uiso   1.00
C214   C     0.15282   0.88371   0.24881   0.00000  Uiso   1.00
C215   C     0.18660   0.59237   0.20810   0.00000  Uiso   1.00
C216   C     0.14673   0.90763   0.29190   0.00000  Uiso   1.00
C217   C     0.18842   0.54585   0.20923   0.00000  Uiso   1.00
C218   C     0.14492   0.95415   0.29077   0.00000  Uiso   1.00
C219   C     0.17729   0.52355   0.25099   0.00000  Uiso   1.00
C220   C     0.15604   0.97645   0.24901   0.00000  Uiso   1.00
Cu221  Cu    0.16667   0.74999   0.29821   0.00000  Uiso   1.00
Cu222  Cu    0.16667   0.75000   0.20178   0.00000  Uiso   1.00
H223   H     0.32543   0.74991   0.19357   0.00000  Uiso   1.00
H224   H     0.00790   0.75009   0.30643   0.00000  Uiso   1.00
H225   H     0.21794   0.80513   0.13344   0.00000  Uiso   1.00
H226   H     0.11540   0.69487   0.36656   0.00000  Uiso   1.00
N227   N     0.16667   0.75001   0.12934   0.00000  Uiso   1.00
N228   N     0.16667   0.74999   0.37065   0.00000  Uiso   1.00
O229   O     0.16667   0.68573   0.29071   0.00000  Uiso   1.00
O230   O     0.16666   0.81427   0.20928   0.00000  Uiso   1.00
O231   O     0.16667   0.68573   0.20928   0.00000  Uiso   1.00
O232   O     0.16666   0.81427   0.29072   0.00000  Uiso   1.00
O233   O     0.09161   0.74999   0.28132   0.00000  Uiso   1.00
O234   O     0.24172   0.75001   0.21868   0.00000  Uiso   1.00
O235   O     0.09161   0.75000   0.19988   0.00000  Uiso   1.00
O236   O     0.24172   0.75000   0.30011   0.00000  Uiso   1.00
Cl237  Cl    0.22693   0.51988   0.34606   0.00000  Uiso   1.00
Cl238  Cl    0.10640   0.98012   0.15394   0.00000  Uiso   1.00
C239   C     0.20230   0.61605   0.34235   0.00000  Uiso   1.00
N240   N     0.21237   0.63409   0.37958   0.00000  Uiso   1.00
C241   C     0.13103   0.88395   0.15765   0.00000  Uiso   1.00
N242   N     0.12097   0.86591   0.12042   0.00000  Uiso   1.00
C243   C     0.19466   0.61449   0.16360   0.00000  Uiso   1.00
N244   N     0.20137   0.63186   0.12804   0.00000  Uiso   1.00
C245   C     0.13867   0.88551   0.33640   0.00000  Uiso   1.00
N246   N     0.13197   0.86814   0.37196   0.00000  Uiso   1.00
C247   C     0.21133   0.52229   0.17222   0.00000  Uiso   1.00
N248   N     0.22985   0.50363   0.14282   0.00000  Uiso   1.00
C249   C     0.12200   0.97771   0.32777   0.00000  Uiso   1.00
N250   N     0.10348   0.99637   0.35718   0.00000  Uiso   1.00
Cl251  Cl    0.20814   0.83813   0.03869   0.00000  Uiso   1.00
Cl252  Cl    0.12519   0.66187   0.46131   0.00000  Uiso   1.00
Cl253  Cl    0.08832   0.68786   0.12275   0.00000  Uiso   1.00
Cl254  Cl    0.24501   0.81214   0.37725   0.00000  Uiso   1.00
Cl255  Cl    0.06236   0.72262   0.01583   0.00000  Uiso   1.00
Cl256  Cl    0.27098   0.77738   0.48417   0.00000  Uiso   1.00
C257   C     0.50427   0.66487   0.25037   0.00000  Uiso   1.00
C258   C     0.49573   0.83513   0.24963   0.00000  Uiso   1.00
C259   C     0.52573   0.78499   0.05885   0.00000  Uiso   1.00
C260   C     0.47427   0.71501   0.44115   0.00000  Uiso   1.00
C261   C     0.52884   0.78101   0.10967   0.00000  Uiso   1.00
C262   C     0.47116   0.71899   0.39033   0.00000  Uiso   1.00
C263   C     0.46426   0.72488   0.09915   0.00000  Uiso   1.00
C264   C     0.53574   0.77512   0.40085   0.00000  Uiso   1.00
C265   C     0.45890   0.72955   0.04826   0.00000  Uiso   1.00
C266   C     0.54109   0.77045   0.45174   0.00000  Uiso   1.00
C267   C     0.49722   0.75285   0.02712   0.00000  Uiso   1.00
C268   C     0.50278   0.74715   0.47288   0.00000  Uiso   1.00
C269   C     0.40119   0.74994   0.23745   0.00000  Uiso   1.00
C270   C     0.59881   0.75006   0.26255   0.00000  Uiso   1.00
C271   C     0.34578   0.74996   0.23062   0.00000  Uiso   1.00
C272   C     0.65422   0.75004   0.26938   0.00000  Uiso   1.00
C273   C     0.52537   0.54680   0.29528   0.00000  Uiso   1.00
C274   C     0.47463   0.95320   0.20472   0.00000  Uiso   1.00
C275   C     0.52341   0.59319   0.29588   0.00000  Uiso   1.00
C276   C     0.47659   0.90681   0.20412   0.00000  Uiso   1.00
C277   C     0.51385   0.61629   0.25119   0.00000  Uiso   1.00
C278   C     0.48615   0.88371   0.24881   0.00000  Uiso   1.00
C279   C     0.51993   0.59237   0.20810   0.00000  Uiso   1.00
C280   C     0.48007   0.90763   0.29190   0.00000  Uiso   1.00
C281   C     0.52175   0.54585   0.20923   0.00000  Uiso   1.00
C282   C     0.47825   0.95415   0.29077   0.00000  Uiso   1.00
C283   C     0.51062   0.52355   0.25099   0.00000  Uiso   1.00
C284   C     0.48938   0.97645   0.24901   0.00000  Uiso   1.00
Cu285  Cu    0.50000   0.74999   0.29821   0.00000  Uiso   1.00
Cu286  Cu    0.50000   0.75000   0.20178   0.00000  Uiso   1.00
H287   H     0.65876   0.74991   0.19357   0.00000  Uiso   1.00
H288   H     0.34124   0.75009   0.30643   0.00000  Uiso   1.00
H289   H     0.55127   0.80513   0.13344   0.00000  Uiso   1.00
H290   H     0.44873   0.69487   0.36656   0.00000  Uiso   1.00
N291   N     0.50000   0.75001   0.12934   0.00000  Uiso   1.00
N292   N     0.50000   0.74999   0.37065   0.00000  Uiso   1.00
O293   O     0.50000   0.68573   0.29071   0.00000  Uiso   1.00
O294   O     0.50000   0.81427   0.20928   0.00000  Uiso   1.00
O295   O     0.50000   0.68573   0.20928   0.00000  Uiso   1.00
O296   O     0.50000   0.81427   0.29072   0.00000  Uiso   1.00
O297   O     0.42495   0.74999   0.28132   0.00000  Uiso   1.00
O298   O     0.57505   0.75001   0.21868   0.00000  Uiso   1.00
O299   O     0.42495   0.75000   0.19988   0.00000  Uiso   1.00
O300   O     0.57505   0.75000   0.30011   0.00000  Uiso   1.00
Cl301  Cl    0.56026   0.51988   0.34606   0.00000  Uiso   1.00
Cl302  Cl    0.43973   0.98012   0.15394   0.00000  Uiso   1.00
C303   C     0.53563   0.61605   0.34235   0.00000  Uiso   1.00
N304   N     0.54570   0.63409   0.37958   0.00000  Uiso   1.00
C305   C     0.46437   0.88395   0.15765   0.00000  Uiso   1.00
N306   N     0.45430   0.86591   0.12042   0.00000  Uiso   1.00
C307   C     0.52799   0.61449   0.16360   0.00000  Uiso   1.00
N308   N     0.53470   0.63186   0.12804   0.00000  Uiso   1.00
C309   C     0.47201   0.88551   0.33640   0.00000  Uiso   1.00
N310   N     0.46530   0.86814   0.37196   0.00000  Uiso   1.00
C311   C     0.54466   0.52229   0.17222   0.00000  Uiso   1.00
N312   N     0.56318   0.50363   0.14282   0.00000  Uiso   1.00
C313   C     0.45533   0.97771   0.32777   0.00000  Uiso   1.00
N314   N     0.43682   0.99637   0.35718   0.00000  Uiso   1.00
Cl315  Cl    0.54147   0.83813   0.03869   0.00000  Uiso   1.00
Cl316  Cl    0.45853   0.66187   0.46131   0.00000  Uiso   1.00
Cl317  Cl    0.42166   0.68786   0.12275   0.00000  Uiso   1.00
Cl318  Cl    0.57834   0.81214   0.37725   0.00000  Uiso   1.00
Cl319  Cl    0.39569   0.72262   0.01583   0.00000  Uiso   1.00
Cl320  Cl    0.60431   0.77738   0.48417   0.00000  Uiso   1.00
C321   C     0.83760   0.66487   0.25037   0.00000  Uiso   1.00
C322   C     0.82907   0.83513   0.24963   0.00000  Uiso   1.00
C323   C     0.85906   0.78499   0.05885   0.00000  Uiso   1.00
C324   C     0.80761   0.71501   0.44115   0.00000  Uiso   1.00
C325   C     0.86218   0.78101   0.10967   0.00000  Uiso   1.00
C326   C     0.80449   0.71899   0.39033   0.00000  Uiso   1.00
C327   C     0.79760   0.72488   0.09915   0.00000  Uiso   1.00
C328   C     0.86907   0.77512   0.40085   0.00000  Uiso   1.00
C329   C     0.79224   0.72955   0.04826   0.00000  Uiso   1.00
C330   C     0.87443   0.77045   0.45174   0.00000  Uiso   1.00
C331   C     0.83055   0.75285   0.02712   0.00000  Uiso   1.00
C332   C     0.83612   0.74715   0.47288   0.00000  Uiso   1.00
C333   C     0.73452   0.74994   0.23745   0.00000  Uiso   1.00
C334   C     0.93214   0.75006   0.26255   0.00000  Uiso   1.00
C335   C     0.67912   0.74996   0.23062   0.00000  Uiso   1.00
C336   C     0.98755   0.75004   0.26938   0.00000  Uiso   1.00
C337   C     0.85870   0.54680   0.29528   0.00000  Uiso   1.00
C338   C     0.80796   0.95320   0.20472   0.00000  Uiso   1.00
C339   C     0.85675   0.59319   0.29588   0.00000  Uiso   1.00
C340   C     0.80992   0.90681   0.20412   0.00000  Uiso   1.00
C341   C     0.84718   0.61629   0.25119   0.00000  Uiso   1.00
C342   C     0.81949   0.88371   0.24881   0.00000  Uiso   1.00
C343   C     0.85327   0.59237   0.20810   0.00000  Uiso   1.00
C344   C     0.81340   0.90763   0.29190   0.00000  Uiso   1.00
C345   C     0.85508   0.54585   0.20923   0.00000  Uiso   1.00
C346   C     0.81158   0.95415   0.29077   0.00000  Uiso   1.00
C347   C     0.84396   0.52355   0.25099   0.00000  Uiso   1.00
C348   C     0.82271   0.97645   0.24901   0.00000  Uiso   1.00
Cu349  Cu    0.83333   0.74999   0.29821   0.00000  Uiso   1.00
Cu350  Cu    0.83333   0.75000   0.20178   0.00000  Uiso   1.00
H351   H     0.99210   0.74991   0.19357   0.00000  Uiso   1.00
H352   H     0.67457   0.75009   0.30643   0.00000  Uiso   1.00
H353   H     0.88460   0.80513   0.13344   0.00000  Uiso   1.00
H354   H     0.78206   0.69487   0.36656   0.00000  Uiso   1.00
N355   N     0.83333   0.75001   0.12934   0.00000  Uiso   1.00
N356   N     0.83333   0.74999   0.37065   0.00000  Uiso   1.00
O357   O     0.83334   0.68573   0.29071   0.00000  Uiso   1.00
O358   O     0.83333   0.81427   0.20928   0.00000  Uiso   1.00
O359   O     0.83334   0.68573   0.20928   0.00000  Uiso   1.00
O360   O     0.83333   0.81427   0.29072   0.00000  Uiso   1.00
O361   O     0.75828   0.74999   0.28132   0.00000  Uiso   1.00
O362   O     0.90839   0.75001   0.21868   0.00000  Uiso   1.00
O363   O     0.75828   0.75000   0.19988   0.00000  Uiso   1.00
O364   O     0.90839   0.75000   0.30011   0.00000  Uiso   1.00
Cl365  Cl    0.89360   0.51988   0.34606   0.00000  Uiso   1.00
Cl366  Cl    0.77307   0.98012   0.15394   0.00000  Uiso   1.00
C367   C     0.86897   0.61605   0.34235   0.00000  Uiso   1.00
N368   N     0.87903   0.63409   0.37958   0.00000  Uiso   1.00
C369   C     0.79770   0.88395   0.15765   0.00000  Uiso   1.00
N370   N     0.78763   0.86591   0.12042   0.00000  Uiso   1.00
C371   C     0.86133   0.61449   0.16360   0.00000  Uiso   1.00
N372   N     0.86803   0.63186   0.12804   0.00000  Uiso   1.00
C373   C     0.80534   0.88551   0.33640   0.00000  Uiso   1.00
N374   N     0.79863   0.86814   0.37196   0.00000  Uiso   1.00
C375   C     0.87800   0.52229   0.17222   0.00000  Uiso   1.00
N376   N     0.89652   0.50363   0.14282   0.00000  Uiso   1.00
C377   C     0.78867   0.97771   0.32777   0.00000  Uiso   1.00
N378   N     0.77015   0.99637   0.35718   0.00000  Uiso   1.00
Cl379  Cl    0.87481   0.83813   0.03869   0.00000  Uiso   1.00
Cl380  Cl    0.79186   0.66187   0.46131   0.00000  Uiso   1.00
Cl381  Cl    0.75499   0.68786   0.12275   0.00000  Uiso   1.00
Cl382  Cl    0.91168   0.81214   0.37725   0.00000  Uiso   1.00
Cl383  Cl    0.72902   0.72262   0.01583   0.00000  Uiso   1.00
Cl384  Cl    0.93764   0.77738   0.48417   0.00000  Uiso   1.00
C385   C     0.17093   0.16487   0.75037   0.00000  Uiso   1.00
C386   C     0.16240   0.33513   0.74963   0.00000  Uiso   1.00
C387   C     0.19239   0.28499   0.55885   0.00000  Uiso   1.00
C388   C     0.14094   0.21501   0.94115   0.00000  Uiso   1.00
C389   C     0.19551   0.28101   0.60967   0.00000  Uiso   1.00
C390   C     0.13782   0.21899   0.89033   0.00000  Uiso   1.00
C391   C     0.13093   0.22488   0.59915   0.00000  Uiso   1.00
C392   C     0.20240   0.27512   0.90085   0.00000  Uiso   1.00
C393   C     0.12557   0.22955   0.54826   0.00000  Uiso   1.00
C394   C     0.20776   0.27045   0.95174   0.00000  Uiso   1.00
C395   C     0.16388   0.25285   0.52712   0.00000  Uiso   1.00
C396   C     0.16945   0.24715   0.97288   0.00000  Uiso   1.00
C397   C     0.06786   0.24994   0.73745   0.00000  Uiso   1.00
C398   C     0.26548   0.25006   0.76255   0.00000  Uiso   1.00
C399   C     0.01245   0.24996   0.73062   0.00000  Uiso   1.00
C400   C     0.32088   0.25004   0.76938   0.00000  Uiso   1.00
C401   C     0.19204   0.04680   0.79528   0.00000  Uiso   1.00
C402   C     0.14130   0.45320   0.70472   0.00000  Uiso   1.00
C403   C     0.19008   0.09319   0.79588   0.00000  Uiso   1.00
C404   C     0.14325   0.40681   0.70412   0.00000  Uiso   1.00
C405   C     0.18051   0.11629   0.75119   0.00000  Uiso   1.00
C406   C     0.15282   0.38371   0.74881   0.00000  Uiso   1.00
C407   C     0.18660   0.09237   0.70810   0.00000  Uiso   1.00
C408   C     0.14673   0.40763   0.79190   0.00000  Uiso   1.00
C409   C     0.18842   0.04585   0.70923   0.00000  Uiso   1.00
C410   C     0.14492   0.45415   0.79077   0.00000  Uiso   1.00
C411   C     0.17729   0.02355   0.75099   0.00000  Uiso   1.00
C412   C     0.15604   0.47645   0.74901   0.00000  Uiso   1.00
Cu413  Cu    0.16667   0.24999   0.79821   0.00000  Uiso   1.00
Cu414  Cu    0.16667   0.25000   0.70178   0.00000  Uiso   1.00
H415   H     0.32543   0.24991   0.69357   0.00000  Uiso   1.00
H416   H     0.00790   0.25009   0.80643   0.00000  Uiso   1.00
H417   H     0.21794   0.30513   0.63344   0.00000  Uiso   1.00
H418   H     0.11540   0.19487   0.86656   0.00000  Uiso   1.00
N419   N     0.16667   0.25001   0.62934   0.00000  Uiso   1.00
N420   N     0.16667   0.24999   0.87065   0.00000  Uiso   1.00
O421   O     0.16667   0.18573   0.79071   0.00000  Uiso   1.00
O422   O     0.16666   0.31427   0.70928   0.00000  Uiso   1.00
O423   O     0.16667   0.18573   0.70928   0.00000  Uiso   1.00
O424   O     0.16666   0.31427   0.79072   0.00000  Uiso   1.00
O425   O     0.09161   0.24999   0.78132   0.00000  Uiso   1.00
O426   O     0.24172   0.25001   0.71868   0.00000  Uiso   1.00
O427   O     0.09161   0.25000   0.69988   0.00000  Uiso   1.00
O428   O     0.24172   0.25000   0.80011   0.00000  Uiso   1.00
Cl429  Cl    0.22693   0.01988   0.84606   0.00000  Uiso   1.00
Cl430  Cl    0.10640   0.48012   0.65394   0.00000  Uiso   1.00
C431   C     0.20230   0.11605   0.84235   0.00000  Uiso   1.00
N432   N     0.21237   0.13409   0.87958   0.00000  Uiso   1.00
C433   C     0.13103   0.38395   0.65765   0.00000  Uiso   1.00
N434   N     0.12097   0.36591   0.62042   0.00000  Uiso   1.00
C435   C     0.19466   0.11449   0.66360   0.00000  Uiso   1.00
N436   N     0.20137   0.13186   0.62804   0.00000  Uiso   1.00
C437   C     0.13867   0.38551   0.83640   0.00000  Uiso   1.00
N438   N     0.13197   0.36814   0.87196   0.00000  Uiso   1.00
C439   C     0.21133   0.02229   0.67222   0.00000  Uiso   1.00
N440   N     0.22985   0.00363   0.64282   0.00000  Uiso   1.00
C441   C     0.12200   0.47771   0.82777   0.00000  Uiso   1.00
N442   N     0.10348   0.49637   0.85718   0.00000  Uiso   1.00
Cl443  Cl    0.20814   0.33813   0.53869   0.00000  Uiso   1.00
Cl444  Cl    0.12519   0.16187   0.96131   0.00000  Uiso   1.00
Cl445  Cl    0.08832   0.18786   0.62275   0.00000  Uiso   1.00
Cl446  Cl    0.24501   0.31214   0.87725   0.00000  Uiso   1.00
Cl447  Cl    0.06236   0.22262   0.51583   0.00000  Uiso   1.00
Cl448  Cl    0.27098   0.27738   0.98417   0.00000  Uiso   1.00
C449   C     0.50427   0.16487   0.75037   0.00000  Uiso   1.00
C450   C     0.49573   0.33513   0.74963   0.00000  Uiso   1.00
C451   C     0.52573   0.28499   0.55885   0.00000  Uiso   1.00
C452   C     0.47427   0.21501   0.94115   0.00000  Uiso   1.00
C453   C     0.52884   0.28101   0.60967   0.00000  Uiso   1.00
C454   C     0.47116   0.21899   0.89033   0.00000  Uiso   1.00
C455   C     0.46426   0.22488   0.59915   0.00000  Uiso   1.00
C456   C     0.53574   0.27512   0.90085   0.00000  Uiso   1.00
C457   C     0.45890   0.22955   0.54826   0.00000  Uiso   1.00
C458   C     0.54109   0.27045   0.95174   0.00000  Uiso   1.00
C459   C     0.49722   0.25285   0.52712   0.00000  Uiso   1.00
C460   C     0.50278   0.24715   0.97288   0.00000  Uiso   1.00
C461   C     0.40119   0.24994   0.73745   0.00000  Uiso   1.00
C462   C     0.59881   0.25006   0.76255   0.00000  Uiso   1.00
C463   C     0.34578   0.24996   0.73062   0.00000  Uiso   1.00
C464   C     0.65422   0.25004   0.76938   0.00000  Uiso   1.00
C465   C     0.52537   0.04680   0.79528   0.00000  Uiso   1.00
C466   C     0.47463   0.45320   0.70472   0.00000  Uiso   1.00
C467   C     0.52341   0.09319   0.79588   0.00000  Uiso   1.00
C468   C     0.47659   0.40681   0.70412   0.00000  Uiso   1.00
C469   C     0.51385   0.11629   0.75119   0.00000  Uiso   1.00
C470   C     0.48615   0.38371   0.74881   0.00000  Uiso   1.00
C471   C     0.51993   0.09237   0.70810   0.00000  Uiso   1.00
C472   C     0.48007   0.40763   0.79190   0.00000  Uiso   1.00
C473   C     0.52175   0.04585   0.70923   0.00000  Uiso   1.00
C474   C     0.47825   0.45415   0.79077   0.00000  Uiso   1.00
C475   C     0.51062   0.02355   0.75099   0.00000  Uiso   1.00
C476   C     0.48938   0.47645   0.74901   0.00000  Uiso   1.00
Cu477  Cu    0.50000   0.24999   0.79821   0.00000  Uiso   1.00
Cu478  Cu    0.50000   0.25000   0.70178   0.00000  Uiso   1.00
H479   H     0.65876   0.24991   0.69357   0.00000  Uiso   1.00
H480   H     0.34124   0.25009   0.80643   0.00000  Uiso   1.00
H481   H     0.55127   0.30513   0.63344   0.00000  Uiso   1.00
H482   H     0.44873   0.19487   0.86656   0.00000  Uiso   1.00
N483   N     0.50000   0.25001   0.62934   0.00000  Uiso   1.00
N484   N     0.50000   0.24999   0.87065   0.00000  Uiso   1.00
O485   O     0.50000   0.18573   0.79071   0.00000  Uiso   1.00
O486   O     0.50000   0.31427   0.70928   0.00000  Uiso   1.00
O487   O     0.50000   0.18573   0.70928   0.00000  Uiso   1.00
O488   O     0.50000   0.31427   0.79072   0.00000  Uiso   1.00
O489   O     0.42495   0.24999   0.78132   0.00000  Uiso   1.00
O490   O     0.57505   0.25001   0.71868   0.00000  Uiso   1.00
O491   O     0.42495   0.25000   0.69988   0.00000  Uiso   1.00
O492   O     0.57505   0.25000   0.80011   0.00000  Uiso   1.00
Cl493  Cl    0.56026   0.01988   0.84606   0.00000  Uiso   1.00
Cl494  Cl    0.43973   0.48012   0.65394   0.00000  Uiso   1.00
C495   C     0.53563   0.11605   0.84235   0.00000  Uiso   1.00
N496   N     0.54570   0.13409   0.87958   0.00000  Uiso   1.00
C497   C     0.46437   0.38395   0.65765   0.00000  Uiso   1.00
N498   N     0.45430   0.36591   0.62042   0.00000  Uiso   1.00
C499   C     0.52799   0.11449   0.66360   0.00000  Uiso   1.00
N500   N     0.53470   0.13186   0.62804   0.00000  Uiso   1.00
C501   C     0.47201   0.38551   0.83640   0.00000  Uiso   1.00
N502   N     0.46530   0.36814   0.87196   0.00000  Uiso   1.00
C503   C     0.54466   0.02229   0.67222   0.00000  Uiso   1.00
N504   N     0.56318   0.00363   0.64282   0.00000  Uiso   1.00
C505   C     0.45533   0.47771   0.82777   0.00000  Uiso   1.00
N506   N     0.43682   0.49637   0.85718   0.00000  Uiso   1.00
Cl507  Cl    0.54147   0.33813   0.53869   0.00000  Uiso   1.00
Cl508  Cl    0.45853   0.16187   0.96131   0.00000  Uiso   1.00
Cl509  Cl    0.42166   0.18786   0.62275   0.00000  Uiso   1.00
Cl510  Cl    0.57834   0.31214   0.87725   0.00000  Uiso   1.00
Cl511  Cl    0.39569   0.22262   0.51583   0.00000  Uiso   1.00
Cl512  Cl    0.60431   0.27738   0.98417   0.00000  Uiso   1.00
C513   C     0.83760   0.16487   0.75037   0.00000  Uiso   1.00
C514   C     0.82907   0.33513   0.74963   0.00000  Uiso   1.00
C515   C     0.85906   0.28499   0.55885   0.00000  Uiso   1.00
C516   C     0.80761   0.21501   0.94115   0.00000  Uiso   1.00
C517   C     0.86218   0.28101   0.60967   0.00000  Uiso   1.00
C518   C     0.80449   0.21899   0.89033   0.00000  Uiso   1.00
C519   C     0.79760   0.22488   0.59915   0.00000  Uiso   1.00
C520   C     0.86907   0.27512   0.90085   0.00000  Uiso   1.00
C521   C     0.79224   0.22955   0.54826   0.00000  Uiso   1.00
C522   C     0.87443   0.27045   0.95174   0.00000  Uiso   1.00
C523   C     0.83055   0.25285   0.52712   0.00000  Uiso   1.00
C524   C     0.83612   0.24715   0.97288   0.00000  Uiso   1.00
C525   C     0.73452   0.24994   0.73745   0.00000  Uiso   1.00
C526   C     0.93214   0.25006   0.76255   0.00000  Uiso   1.00
C527   C     0.67912   0.24996   0.73062   0.00000  Uiso   1.00
C528   C     0.98755   0.25004   0.76938   0.00000  Uiso   1.00
C529   C     0.85870   0.04680   0.79528   0.00000  Uiso   1.00
C530   C     0.80796   0.45320   0.70472   0.00000  Uiso   1.00
C531   C     0.85675   0.09319   0.79588   0.00000  Uiso   1.00
C532   C     0.80992   0.40681   0.70412   0.00000  Uiso   1.00
C533   C     0.84718   0.11629   0.75119   0.00000  Uiso   1.00
C534   C     0.81949   0.38371   0.74881   0.00000  Uiso   1.00
C535   C     0.85327   0.09237   0.70810   0.00000  Uiso   1.00
C536   C     0.81340   0.40763   0.79190   0.00000  Uiso   1.00
C537   C     0.85508   0.04585   0.70923   0.00000  Uiso   1.00
C538   C     0.81158   0.45415   0.79077   0.00000  Uiso   1.00
C539   C     0.84396   0.02355   0.75099   0.00000  Uiso   1.00
C540   C     0.82271   0.47645   0.74901   0.00000  Uiso   1.00
Cu541  Cu    0.83333   0.24999   0.79821   0.00000  Uiso   1.00
Cu542  Cu    0.83333   0.25000   0.70178   0.00000  Uiso   1.00
H543   H     0.99210   0.24991   0.69357   0.00000  Uiso   1.00
H544   H     0.67457   0.25009   0.80643   0.00000  Uiso   1.00
H545   H     0.88460   0.30513   0.63344   0.00000  Uiso   1.00
H546   H     0.78206   0.19487   0.86656   0.00000  Uiso   1.00
N547   N     0.83333   0.25001   0.62934   0.00000  Uiso   1.00
N548   N     0.83333   0.24999   0.87065   0.00000  Uiso   1.00
O549   O     0.83334   0.18573   0.79071   0.00000  Uiso   1.00
O550   O     0.83333   0.31427   0.70928   0.00000  Uiso   1.00
O551   O     0.83334   0.18573   0.70928   0.00000  Uiso   1.00
O552   O     0.83333   0.31427   0.79072   0.00000  Uiso   1.00
O553   O     0.75828   0.24999   0.78132   0.00000  Uiso   1.00
O554   O     0.90839   0.25001   0.71868   0.00000  Uiso   1.00
O555   O     0.75828   0.25000   0.69988   0.00000  Uiso   1.00
O556   O     0.90839   0.25000   0.80011   0.00000  Uiso   1.00
Cl557  Cl    0.89360   0.01988   0.84606   0.00000  Uiso   1.00
Cl558  Cl    0.77307   0.48012   0.65394   0.00000  Uiso   1.00
C559   C     0.86897   0.11605   0.84235   0.00000  Uiso   1.00
N560   N     0.87903   0.13409   0.87958   0.00000  Uiso   1.00
C561   C     0.79770   0.38395   0.65765   0.00000  Uiso   1.00
N562   N     0.78763   0.36591   0.62042   0.00000  Uiso   1.00
C563   C     0.86133   0.11449   0.66360   0.00000  Uiso   1.00
N564   N     0.86803   0.13186   0.62804   0.00000  Uiso   1.00
C565   C     0.80534   0.38551   0.83640   0.00000  Uiso   1.00
N566   N     0.79863   0.36814   0.87196   0.00000  Uiso   1.00
C567   C     0.87800   0.02229   0.67222   0.00000  Uiso   1.00
N568   N     0.89652   0.00363   0.64282   0.00000  Uiso   1.00
C569   C     0.78867   0.47771   0.82777   0.00000  Uiso   1.00
N570   N     0.77015   0.49637   0.85718   0.00000  Uiso   1.00
Cl571  Cl    0.87481   0.33813   0.53869   0.00000  Uiso   1.00
Cl572  Cl    0.79186   0.16187   0.96131   0.00000  Uiso   1.00
Cl573  Cl    0.75499   0.18786   0.62275   0.00000  Uiso   1.00
Cl574  Cl    0.91168   0.31214   0.87725   0.00000  Uiso   1.00
Cl575  Cl    0.72902   0.22262   0.51583   0.00000  Uiso   1.00
Cl576  Cl    0.93764   0.27738   0.98417   0.00000  Uiso   1.00
C577   C     0.17093   0.66487   0.75037   0.00000  Uiso   1.00
C578   C     0.16240   0.83513   0.74963   0.00000  Uiso   1.00
C579   C     0.19239   0.78499   0.55885   0.00000  Uiso   1.00
C580   C     0.14094   0.71501   0.94115   0.00000  Uiso   1.00
C581   C     0.19551   0.78101   0.60967   0.00000  Uiso   1.00
C582   C     0.13782   0.71899   0.89033   0.00000  Uiso   1.00
C583   C     0.13093   0.72488   0.59915   0.00000  Uiso   1.00
C584   C     0.20240   0.77512   0.90085   0.00000  Uiso   1.00
C585   C     0.12557   0.72955   0.54826   0.00000  Uiso   1.00
C586   C     0.20776   0.77045   0.95174   0.00000  Uiso   1.00
C587   C     0.16388   0.75285   0.52712   0.00000  Uiso   1.00
C588   C     0.16945   0.74715   0.97288   0.00000  Uiso   1.00
C589   C     0.06786   0.74994   0.73745   0.00000  Uiso   1.00
C590   C     0.26548   0.75006   0.76255   0.00000  Uiso   1.00
C591   C     0.01245   0.74996   0.73062   0.00000  Uiso   1.00
C592   C     0.32088   0.75004   0.76938   0.00000  Uiso   1.00
C593   C     0.19204   0.54680   0.79528   0.00000  Uiso   1.00
C594   C     0.14130   0.95320   0.70472   0.00000  Uiso   1.00
C595   C     0.19008   0.59319   0.79588   0.00000  Uiso   1.00
C596   C     0.14325   0.90681   0.70412   0.00000  Uiso   1.00
C597   C     0.18051   0.61629   0.75119   0.00000  Uiso   1.00
C598   C     0.15282   0.88371   0.74881   0.00000  Uiso   1.00
C599   C     0.18660   0.59237   0.70810   0.00000  Uiso   1.00
C600   C     0.14673   0.90763   0.79190   0.00000  Uiso   1.00
C601   C     0.18842   0.54585   0.70923   0.00000  Uiso   1.00
C602   C     0.14492   0.95415   0.79077   0.00000  Uiso   1.00
C603   C     0.17729   0.52355   0.75099   0.00000  Uiso   1.00
C604   C     0.15604   0.97645   0.74901   0.00000  Uiso   1.00
Cu605  Cu    0.16667   0.74999   0.79821   0.00000  Uiso   1.00
Cu606  Cu    0.16667   0.75000   0.70178   0.00000  Uiso   1.00
H607   H     0.32543   0.74991   0.69357   0.00000  Uiso   1.00
H608   H     0.00790   0.75009   0.80643   0.00000  Uiso   1.00
H609   H     0.21794   0.80513   0.63344   0.00000  Uiso   1.00
H610   H     0.11540   0.69487   0.86656   0.00000  Uiso   1.00
N611   N     0.16667   0.75001   0.62934   0.00000  Uiso   1.00
N612   N     0.16667   0.74999   0.87065   0.00000  Uiso   1.00
O613   O     0.16667   0.68573   0.79071   0.00000  Uiso   1.00
O614   O     0.16666   0.81427   0.70928   0.00000  Uiso   1.00
O615   O     0.16667   0.68573   0.70928   0.00000  Uiso   1.00
O616   O     0.16666   0.81427   0.79072   0.00000  Uiso   1.00
O617   O     0.09161   0.74999   0.78132   0.00000  Uiso   1.00
O618   O     0.24172   0.75001   0.71868   0.00000  Uiso   1.00
O619   O     0.09161   0.75000   0.69988   0.00000  Uiso   1.00
O620   O     0.24172   0.75000   0.80011   0.00000  Uiso   1.00
Cl621  Cl    0.22693   0.51988   0.84606   0.00000  Uiso   1.00
Cl622  Cl    0.10640   0.98012   0.65394   0.00000  Uiso   1.00
C623   C     0.20230   0.61605   0.84235   0.00000  Uiso   1.00
N624   N     0.21237   0.63409   0.87958   0.00000  Uiso   1.00
C625   C     0.13103   0.88395   0.65765   0.00000  Uiso   1.00
N626   N     0.12097   0.86591   0.62042   0.00000  Uiso   1.00
C627   C     0.19466   0.61449   0.66360   0.00000  Uiso   1.00
N628   N     0.20137   0.63186   0.62804   0.00000  Uiso   1.00
C629   C     0.13867   0.88551   0.83640   0.00000  Uiso   1.00
N630   N     0.13197   0.86814   0.87196   0.00000  Uiso   1.00
C631   C     0.21133   0.52229   0.67222   0.00000  Uiso   1.00
N632   N     0.22985   0.50363   0.64282   0.00000  Uiso   1.00
C633   C     0.12200   0.97771   0.82777   0.00000  Uiso   1.00
N634   N     0.10348   0.99637   0.85718   0.00000  Uiso   1.00
Cl635  Cl    0.20814   0.83813   0.53869   0.00000  Uiso   1.00
Cl636  Cl    0.12519   0.66187   0.96131   0.00000  Uiso   1.00
Cl637  Cl    0.08832   0.68786   0.62275   0.00000  Uiso   1.00
Cl638  Cl    0.24501   0.81214   0.87725   0.00000  Uiso   1.00
Cl639  Cl    0.06236   0.72262   0.51583   0.00000  Uiso   1.00
Cl640  Cl    0.27098   0.77738   0.98417   0.00000  Uiso   1.00
C641   C     0.50427   0.66487   0.75037   0.00000  Uiso   1.00
C642   C     0.49573   0.83513   0.74963   0.00000  Uiso   1.00
C643   C     0.52573   0.78499   0.55885   0.00000  Uiso   1.00
C644   C     0.47427   0.71501   0.94115   0.00000  Uiso   1.00
C645   C     0.52884   0.78101   0.60967   0.00000  Uiso   1.00
C646   C     0.47116   0.71899   0.89033   0.00000  Uiso   1.00
C647   C     0.46426   0.72488   0.59915   0.00000  Uiso   1.00
C648   C     0.53574   0.77512   0.90085   0.00000  Uiso   1.00
C649   C     0.45890   0.72955   0.54826   0.00000  Uiso   1.00
C650   C     0.54109   0.77045   0.95174   0.00000  Uiso   1.00
C651   C     0.49722   0.75285   0.52712   0.00000  Uiso   1.00
C652   C     0.50278   0.74715   0.97288   0.00000  Uiso   1.00
C653   C     0.40119   0.74994   0.73745   0.00000  Uiso   1.00
C654   C     0.59881   0.75006   0.76255   0.00000  Uiso   1.00
C655   C     0.34578   0.74996   0.73062   0.00000  Uiso   1.00
C656   C     0.65422   0.75004   0.76938   0.00000  Uiso   1.00
C657   C     0.52537   0.54680   0.79528   0.00000  Uiso   1.00
C658   C     0.47463   0.95320   0.70472   0.00000  Uiso   1.00
C659   C     0.52341   0.59319   0.79588   0.00000  Uiso   1.00
C660   C     0.47659   0.90681   0.70412   0.00000  Uiso   1.00
C661   C     0.51385   0.61629   0.75119   0.00000  Uiso   1.00
C662   C     0.48615   0.88371   0.74881   0.00000  Uiso   1.00
C663   C     0.51993   0.59237   0.70810   0.00000  Uiso   1.00
C664   C     0.48007   0.90763   0.79190   0.00000  Uiso   1.00
C665   C     0.52175   0.54585   0.70923   0.00000  Uiso   1.00
C666   C     0.47825   0.95415   0.79077   0.00000  Uiso   1.00
C667   C     0.51062   0.52355   0.75099   0.00000  Uiso   1.00
C668   C     0.48938   0.97645   0.74901   0.00000  Uiso   1.00
Cu669  Cu    0.50000   0.74999   0.79821   0.00000  Uiso   1.00
Cu670  Cu    0.50000   0.75000   0.70178   0.00000  Uiso   1.00
H671   H     0.65876   0.74991   0.69357   0.00000  Uiso   1.00
H672   H     0.34124   0.75009   0.80643   0.00000  Uiso   1.00
H673   H     0.55127   0.80513   0.63344   0.00000  Uiso   1.00
H674   H     0.44873   0.69487   0.86656   0.00000  Uiso   1.00
N675   N     0.50000   0.75001   0.62934   0.00000  Uiso   1.00
N676   N     0.50000   0.74999   0.87065   0.00000  Uiso   1.00
O677   O     0.50000   0.68573   0.79071   0.00000  Uiso   1.00
O678   O     0.50000   0.81427   0.70928   0.00000  Uiso   1.00
O679   O     0.50000   0.68573   0.70928   0.00000  Uiso   1.00
O680   O     0.50000   0.81427   0.79072   0.00000  Uiso   1.00
O681   O     0.42495   0.74999   0.78132   0.00000  Uiso   1.00
O682   O     0.57505   0.75001   0.71868   0.00000  Uiso   1.00
O683   O     0.42495   0.75000   0.69988   0.00000  Uiso   1.00
O684   O     0.57505   0.75000   0.80011   0.00000  Uiso   1.00
Cl685  Cl    0.56026   0.51988   0.84606   0.00000  Uiso   1.00
Cl686  Cl    0.43973   0.98012   0.65394   0.00000  Uiso   1.00
C687   C     0.53563   0.61605   0.84235   0.00000  Uiso   1.00
N688   N     0.54570   0.63409   0.87958   0.00000  Uiso   1.00
C689   C     0.46437   0.88395   0.65765   0.00000  Uiso   1.00
N690   N     0.45430   0.86591   0.62042   0.00000  Uiso   1.00
C691   C     0.52799   0.61449   0.66360   0.00000  Uiso   1.00
N692   N     0.53470   0.63186   0.62804   0.00000  Uiso   1.00
C693   C     0.47201   0.88551   0.83640   0.00000  Uiso   1.00
N694   N     0.46530   0.86814   0.87196   0.00000  Uiso   1.00
C695   C     0.54466   0.52229   0.67222   0.00000  Uiso   1.00
N696   N     0.56318   0.50363   0.64282   0.00000  Uiso   1.00
C697   C     0.45533   0.97771   0.82777   0.00000  Uiso   1.00
N698   N     0.43682   0.99637   0.85718   0.00000  Uiso   1.00
Cl699  Cl    0.54147   0.83813   0.53869   0.00000  Uiso   1.00
Cl700  Cl    0.45853   0.66187   0.96131   0.00000  Uiso   1.00
Cl701  Cl    0.42166   0.68786   0.62275   0.00000  Uiso   1.00
Cl702  Cl    0.57834   0.81214   0.87725   0.00000  Uiso   1.00
Cl703  Cl    0.39569   0.72262   0.51583   0.00000  Uiso   1.00
Cl704  Cl    0.60431   0.77738   0.98417   0.00000  Uiso   1.00
C705   C     0.83760   0.66487   0.75037   0.00000  Uiso   1.00
C706   C     0.82907   0.83513   0.74963   0.00000  Uiso   1.00
C707   C     0.85906   0.78499   0.55885   0.00000  Uiso   1.00
C708   C     0.80761   0.71501   0.94115   0.00000  Uiso   1.00
C709   C     0.86218   0.78101   0.60967   0.00000  Uiso   1.00
C710   C     0.80449   0.71899   0.89033   0.00000  Uiso   1.00
C711   C     0.79760   0.72488   0.59915   0.00000  Uiso   1.00
C712   C     0.86907   0.77512   0.90085   0.00000  Uiso   1.00
C713   C     0.79224   0.72955   0.54826   0.00000  Uiso   1.00
C714   C     0.87443   0.77045   0.95174   0.00000  Uiso   1.00
C715   C     0.83055   0.75285   0.52712   0.00000  Uiso   1.00
C716   C     0.83612   0.74715   0.97288   0.00000  Uiso   1.00
C717   C     0.73452   0.74994   0.73745   0.00000  Uiso   1.00
C718   C     0.93214   0.75006   0.76255   0.00000  Uiso   1.00
C719   C     0.67912   0.74996   0.73062   0.00000  Uiso   1.00
C720   C     0.98755   0.75004   0.76938   0.00000  Uiso   1.00
C721   C     0.85870   0.54680   0.79528   0.00000  Uiso   1.00
C722   C     0.80796   0.95320   0.70472   0.00000  Uiso   1.00
C723   C     0.85675   0.59319   0.79588   0.00000  Uiso   1.00
C724   C     0.80992   0.90681   0.70412   0.00000  Uiso   1.00
C725   C     0.84718   0.61629   0.75119   0.00000  Uiso   1.00
C726   C     0.81949   0.88371   0.74881   0.00000  Uiso   1.00
C727   C     0.85327   0.59237   0.70810   0.00000  Uiso   1.00
C728   C     0.81340   0.90763   0.79190   0.00000  Uiso   1.00
C729   C     0.85508   0.54585   0.70923   0.00000  Uiso   1.00
C730   C     0.81158   0.95415   0.79077   0.00000  Uiso   1.00
C731   C     0.84396   0.52355   0.75099   0.00000  Uiso   1.00
C732   C     0.82271   0.97645   0.74901   0.00000  Uiso   1.00
Cu733  Cu    0.83333   0.74999   0.79821   0.00000  Uiso   1.00
Cu734  Cu    0.83333   0.75000   0.70178   0.00000  Uiso   1.00
H735   H     0.99210   0.74991   0.69357   0.00000  Uiso   1.00
H736   H     0.67457   0.75009   0.80643   0.00000  Uiso   1.00
H737   H     0.88460   0.80513   0.63344   0.00000  Uiso   1.00
H738   H     0.78206   0.69487   0.86656   0.00000  Uiso   1.00
N739   N     0.83333   0.75001   0.62934   0.00000  Uiso   1.00
N740   N     0.83333   0.74999   0.87065   0.00000  Uiso   1.00
O741   O     0.83334   0.68573   0.79071   0.00000  Uiso   1.00
O742   O     0.83333   0.81427   0.70928   0.00000  Uiso   1.00
O743   O     0.83334   0.68573   0.70928   0.00000  Uiso   1.00
O744   O     0.83333   0.81427   0.79072   0.00000  Uiso   1.00
O745   O     0.75828   0.74999   0.78132   0.00000  Uiso   1.00
O746   O     0.90839   0.75001   0.71868   0.00000  Uiso   1.00
O747   O     0.75828   0.75000   0.69988   0.00000  Uiso   1.00
O748   O     0.90839   0.75000   0.80011   0.00000  Uiso   1.00
Cl749  Cl    0.89360   0.51988   0.84606   0.00000  Uiso   1.00
Cl750  Cl    0.77307   0.98012   0.65394   0.00000  Uiso   1.00
C751   C     0.86897   0.61605   0.84235   0.00000  Uiso   1.00
N752   N     0.87903   0.63409   0.87958   0.00000  Uiso   1.00
C753   C     0.79770   0.88395   0.65765   0.00000  Uiso   1.00
N754   N     0.78763   0.86591   0.62042   0.00000  Uiso   1.00
C755   C     0.86133   0.61449   0.66360   0.00000  Uiso   1.00
N756   N     0.86803   0.63186   0.62804   0.00000  Uiso   1.00
C757   C     0.80534   0.88551   0.83640   0.00000  Uiso   1.00
N758   N     0.79863   0.86814   0.87196   0.00000  Uiso   1.00
C759   C     0.87800   0.52229   0.67222   0.00000  Uiso   1.00
N760   N     0.89652   0.50363   0.64282   0.00000  Uiso   1.00
C761   C     0.78867   0.97771   0.82777   0.00000  Uiso   1.00
N762   N     0.77015   0.99637   0.85718   0.00000  Uiso   1.00
Cl763  Cl    0.87481   0.83813   0.53869   0.00000  Uiso   1.00
Cl764  Cl    0.79186   0.66187   0.96131   0.00000  Uiso   1.00
Cl765  Cl    0.75499   0.68786   0.62275   0.00000  Uiso   1.00
Cl766  Cl    0.91168   0.81214   0.87725   0.00000  Uiso   1.00
Cl767  Cl    0.72902   0.72262   0.51583   0.00000  Uiso   1.00
Cl768  Cl    0.93764   0.77738   0.98417   0.00000  Uiso   1.00
loop_
_geom_bond_atom_site_label_1
_geom_bond_atom_site_label_2
_geom_bond_distance
_geom_bond_site_symmetry_2
_ccdc_geom_bond_type
C1     O37     1.301   .     A
C1     C21     1.493   .     S
C1     O39     1.301   .     A
C2     C22     1.493   .     S
C2     O38     1.301   .     A
C2     O40     1.301   .     A
C3     C11     1.427   .     A
C3     C5      1.409   .     A
C3     Cl59    1.766   .     S
C4     Cl60    1.766   .     S
C4     C12     1.427   .     A
C4     C6      1.409   .     A
C5     N35     1.360   .     A
C5     H33     1.082   .     S
C6     H34     1.082   .     S
C6     N36     1.360   .     A
C7     Cl61    1.762   .     S
C7     C9      1.409   .     A
C7     N35     1.372   .     A
C8     N36     1.372   .     A
C8     C10     1.409   .     A
C8     Cl62    1.762   .     S
C9     C11     1.415   .     A
C9     Cl63    1.772   .     S
C10    C12     1.415   .     A
C10    Cl64    1.772   .     S
C11    C396    1.544   1_554 S
C12    C395    1.544   .     S
C13    O41     1.284   .     A
C13    C15     1.435   .     S
C13    O43     1.292   .     A
C14    O42     1.284   .     A
C14    O44     1.292   .     A
C14    C16     1.435   .     S
C15    C144    1.339   1_455 S
C15    H159    1.087   1_455 S
C16    C79     1.339   .     S
C16    H96     1.087   .     S
C17    C19     1.403   .     A
C17    Cl45    1.777   .     S
C17    C27     1.410   .     A
C18    Cl46    1.777   .     S
C18    C28     1.410   .     A
C18    C20     1.403   .     A
C19    C21     1.422   .     A
C19    C47     1.449   .     S
C20    C49     1.449   .     S
C20    C22     1.422   .     A
C21    C23     1.424   .     A
C22    C24     1.424   .     A
C23    C25     1.407   .     A
C23    C51     1.451   .     S
C24    C26     1.407   .     A
C24    C53     1.451   .     S
C25    C55     1.452   .     S
C25    C27     1.411   .     A
C26    C28     1.411   .     A
C26    C57     1.452   .     S
C27    C220    1.514   1_545 S
C28    C219    1.514   .     S
Cu29   N36     2.013   .     S
Cu29   Cu30    2.680   .     S
Cu29   O40     1.954   .     S
Cu29   O44     1.959   .     S
Cu29   O37     1.950   .     S
Cu29   O41     1.952   .     S
Cu30   N35     2.013   .     S
Cu30   O39     1.954   .     S
Cu30   O43     1.959   .     S
Cu30   O38     1.950   .     S
Cu30   O42     1.952   .     S
H31    C79     1.087   .     S
H32    C144    1.087   1_455 S
C47    N48     1.157   .     T
C49    N50     1.157   .     T
C51    N52     1.158   .     T
C53    N54     1.158   .     T
C55    N56     1.158   .     T
C57    N58     1.158   .     T
C65    O101    1.301   .     A
C65    C85     1.493   .     S
C65    O103    1.301   .     A
C66    C86     1.493   .     S
C66    O102    1.301   .     A
C66    O104    1.301   .     A
C67    C75     1.427   .     A
C67    C69     1.409   .     A
C67    Cl123   1.766   .     S
C68    Cl124   1.766   .     S
C68    C76     1.427   .     A
C68    C70     1.409   .     A
C69    N99     1.360   .     A
C69    H97     1.082   .     S
C70    H98     1.082   .     S
C70    N100    1.360   .     A
C71    Cl125   1.762   .     S
C71    C73     1.409   .     A
C71    N99     1.372   .     A
C72    N100    1.372   .     A
C72    C74     1.409   .     A
C72    Cl126   1.762   .     S
C73    C75     1.415   .     A
C73    Cl127   1.772   .     S
C74    C76     1.415   .     A
C74    Cl128   1.772   .     S
C75    C460    1.544   1_554 S
C76    C459    1.544   .     S
C77    O105    1.284   .     A
C77    C79     1.435   .     S
C77    O107    1.292   .     A
C78    O106    1.284   .     A
C78    O108    1.292   .     A
C78    C80     1.435   .     S
C80    C143    1.339   .     S
C80    H160    1.087   .     S
C81    C83     1.403   .     A
C81    Cl109   1.777   .     S
C81    C91     1.410   .     A
C82    Cl110   1.777   .     S
C82    C92     1.410   .     A
C82    C84     1.403   .     A
C83    C85     1.422   .     A
C83    C111    1.449   .     S
C84    C113    1.449   .     S
C84    C86     1.422   .     A
C85    C87     1.424   .     A
C86    C88     1.424   .     A
C87    C89     1.407   .     A
C87    C115    1.451   .     S
C88    C90     1.407   .     A
C88    C117    1.451   .     S
C89    C119    1.452   .     S
C89    C91     1.411   .     A
C90    C92     1.411   .     A
C90    C121    1.452   .     S
C91    C284    1.514   1_545 S
C92    C283    1.514   .     S
Cu93   N100    2.013   .     S
Cu93   Cu94    2.680   .     S
Cu93   O104    1.954   .     S
Cu93   O108    1.959   .     S
Cu93   O101    1.950   .     S
Cu93   O105    1.952   .     S
Cu94   N99     2.013   .     S
Cu94   O103    1.954   .     S
Cu94   O107    1.959   .     S
Cu94   O102    1.950   .     S
Cu94   O106    1.952   .     S
H95    C143    1.087   .     S
C111   N112    1.157   .     T
C113   N114    1.157   .     T
C115   N116    1.158   .     T
C117   N118    1.158   .     T
C119   N120    1.158   .     T
C121   N122    1.158   .     T
C129   O165    1.301   .     A
C129   C149    1.493   .     S
C129   O167    1.301   .     A
C130   C150    1.493   .     S
C130   O166    1.301   .     A
C130   O168    1.301   .     A
C131   C139    1.427   .     A
C131   C133    1.409   .     A
C131   Cl187   1.766   .     S
C132   Cl188   1.766   .     S
C132   C140    1.427   .     A
C132   C134    1.409   .     A
C133   N163    1.360   .     A
C133   H161    1.082   .     S
C134   H162    1.082   .     S
C134   N164    1.360   .     A
C135   Cl189   1.762   .     S
C135   C137    1.409   .     A
C135   N163    1.372   .     A
C136   N164    1.372   .     A
C136   C138    1.409   .     A
C136   Cl190   1.762   .     S
C137   C139    1.415   .     A
C137   Cl191   1.772   .     S
C138   C140    1.415   .     A
C138   Cl192   1.772   .     S
C139   C524    1.544   1_554 S
C140   C523    1.544   .     S
C141   O169    1.284   .     A
C141   C143    1.435   .     S
C141   O171    1.292   .     A
C142   O170    1.284   .     A
C142   O172    1.292   .     A
C142   C144    1.435   .     S
C144   C15     1.339   1_655 S
C144   H32     1.087   1_655 S
C145   C147    1.403   .     A
C145   Cl173   1.777   .     S
C145   C155    1.410   .     A
C146   Cl174   1.777   .     S
C146   C156    1.410   .     A
C146   C148    1.403   .     A
C147   C149    1.422   .     A
C147   C175    1.449   .     S
C148   C177    1.449   .     S
C148   C150    1.422   .     A
C149   C151    1.424   .     A
C150   C152    1.424   .     A
C151   C153    1.407   .     A
C151   C179    1.451   .     S
C152   C154    1.407   .     A
C152   C181    1.451   .     S
C153   C183    1.452   .     S
C153   C155    1.411   .     A
C154   C156    1.411   .     A
C154   C185    1.452   .     S
C155   C348    1.514   1_545 S
C156   C347    1.514   .     S
Cu157  N164    2.013   .     S
Cu157  Cu158   2.680   .     S
Cu157  O168    1.954   .     S
Cu157  O172    1.959   .     S
Cu157  O165    1.950   .     S
Cu157  O169    1.952   .     S
Cu158  N163    2.013   .     S
Cu158  O167    1.954   .     S
Cu158  O171    1.959   .     S
Cu158  O166    1.950   .     S
Cu158  O170    1.952   .     S
H159   C15     1.087   1_655 S
C175   N176    1.157   .     T
C177   N178    1.157   .     T
C179   N180    1.158   .     T
C181   N182    1.158   .     T
C183   N184    1.158   .     T
C185   N186    1.158   .     T
C193   O229    1.301   .     A
C193   C213    1.493   .     S
C193   O231    1.301   .     A
C194   C214    1.493   .     S
C194   O230    1.301   .     A
C194   O232    1.301   .     A
C195   C203    1.427   .     A
C195   C197    1.409   .     A
C195   Cl251   1.766   .     S
C196   Cl252   1.766   .     S
C196   C204    1.427   .     A
C196   C198    1.409   .     A
C197   N227    1.360   .     A
C197   H225    1.082   .     S
C198   H226    1.082   .     S
C198   N228    1.360   .     A
C199   Cl253   1.762   .     S
C199   C201    1.409   .     A
C199   N227    1.372   .     A
C200   N228    1.372   .     A
C200   C202    1.409   .     A
C200   Cl254   1.762   .     S
C201   C203    1.415   .     A
C201   Cl255   1.772   .     S
C202   C204    1.415   .     A
C202   Cl256   1.772   .     S
C203   C588    1.544   1_554 S
C204   C587    1.544   .     S
C205   O233    1.284   .     A
C205   C207    1.435   .     S
C205   O235    1.292   .     A
C206   O234    1.284   .     A
C206   O236    1.292   .     A
C206   C208    1.435   .     S
C207   C336    1.339   1_455 S
C207   H351    1.087   1_455 S
C208   C271    1.339   .     S
C208   H288    1.087   .     S
C209   C211    1.403   .     A
C209   Cl237   1.777   .     S
C209   C219    1.410   .     A
C210   Cl238   1.777   .     S
C210   C220    1.410   .     A
C210   C212    1.403   .     A
C211   C213    1.422   .     A
C211   C239    1.449   .     S
C212   C241    1.449   .     S
C212   C214    1.422   .     A
C213   C215    1.424   .     A
C214   C216    1.424   .     A
C215   C217    1.407   .     A
C215   C243    1.451   .     S
C216   C218    1.407   .     A
C216   C245    1.451   .     S
C217   C247    1.452   .     S
C217   C219    1.411   .     A
C218   C220    1.411   .     A
C218   C249    1.452   .     S
C220   C27     1.514   1_565 S
Cu221  N228    2.013   .     S
Cu221  Cu222   2.680   .     S
Cu221  O232    1.954   .     S
Cu221  O236    1.959   .     S
Cu221  O229    1.950   .     S
Cu221  O233    1.952   .     S
Cu222  N227    2.013   .     S
Cu222  O231    1.954   .     S
Cu222  O235    1.959   .     S
Cu222  O230    1.950   .     S
Cu222  O234    1.952   .     S
H223   C271    1.087   .     S
H224   C336    1.087   1_455 S
C239   N240    1.157   .     T
C241   N242    1.157   .     T
C243   N244    1.158   .     T
C245   N246    1.158   .     T
C247   N248    1.158   .     T
C249   N250    1.158   .     T
C257   O293    1.301   .     A
C257   C277    1.493   .     S
C257   O295    1.301   .     A
C258   C278    1.493   .     S
C258   O294    1.301   .     A
C258   O296    1.301   .     A
C259   C267    1.427   .     A
C259   C261    1.409   .     A
C259   Cl315   1.766   .     S
C260   Cl316   1.766   .     S
C260   C268    1.427   .     A
C260   C262    1.409   .     A
C261   N291    1.360   .     A
C261   H289    1.082   .     S
C262   H290    1.082   .     S
C262   N292    1.360   .     A
C263   Cl317   1.762   .     S
C263   C265    1.409   .     A
C263   N291    1.372   .     A
C264   N292    1.372   .     A
C264   C266    1.409   .     A
C264   Cl318   1.762   .     S
C265   C267    1.415   .     A
C265   Cl319   1.772   .     S
C266   C268    1.415   .     A
C266   Cl320   1.772   .     S
C267   C652    1.544   1_554 S
C268   C651    1.544   .     S
C269   O297    1.284   .     A
C269   C271    1.435   .     S
C269   O299    1.292   .     A
C270   O298    1.284   .     A
C270   O300    1.292   .     A
C270   C272    1.435   .     S
C272   C335    1.339   .     S
C272   H352    1.087   .     S
C273   C275    1.403   .     A
C273   Cl301   1.777   .     S
C273   C283    1.410   .     A
C274   Cl302   1.777   .     S
C274   C284    1.410   .     A
C274   C276    1.403   .     A
C275   C277    1.422   .     A
C275   C303    1.449   .     S
C276   C305    1.449   .     S
C276   C278    1.422   .     A
C277   C279    1.424   .     A
C278   C280    1.424   .     A
C279   C281    1.407   .     A
C279   C307    1.451   .     S
C280   C282    1.407   .     A
C280   C309    1.451   .     S
C281   C311    1.452   .     S
C281   C283    1.411   .     A
C282   C284    1.411   .     A
C282   C313    1.452   .     S
C284   C91     1.514   1_565 S
Cu285  N292    2.013   .     S
Cu285  Cu286   2.680   .     S
Cu285  O296    1.954   .     S
Cu285  O300    1.959   .     S
Cu285  O293    1.950   .     S
Cu285  O297    1.952   .     S
Cu286  N291    2.013   .     S
Cu286  O295    1.954   .     S
Cu286  O299    1.959   .     S
Cu286  O294    1.950   .     S
Cu286  O298    1.952   .     S
H287   C335    1.087   .     S
C303   N304    1.157   .     T
C305   N306    1.157   .     T
C307   N308    1.158   .     T
C309   N310    1.158   .     T
C311   N312    1.158   .     T
C313   N314    1.158   .     T
C321   O357    1.301   .     A
C321   C341    1.493   .     S
C321   O359    1.301   .     A
C322   C342    1.493   .     S
C322   O358    1.301   .     A
C322   O360    1.301   .     A
C323   C331    1.427   .     A
C323   C325    1.409   .     A
C323   Cl379   1.766   .     S
C324   Cl380   1.766   .     S
C324   C332    1.427   .     A
C324   C326    1.409   .     A
C325   N355    1.360   .     A
C325   H353    1.082   .     S
C326   H354    1.082   .     S
C326   N356    1.360   .     A
C327   Cl381   1.762   .     S
C327   C329    1.409   .     A
C327   N355    1.372   .     A
C328   N356    1.372   .     A
C328   C330    1.409   .     A
C328   Cl382   1.762   .     S
C329   C331    1.415   .     A
C329   Cl383   1.772   .     S
C330   C332    1.415   .     A
C330   Cl384   1.772   .     S
C331   C716    1.544   1_554 S
C332   C715    1.544   .     S
C333   O361    1.284   .     A
C333   C335    1.435   .     S
C333   O363    1.292   .     A
C334   O362    1.284   .     A
C334   O364    1.292   .     A
C334   C336    1.435   .     S
C336   C207    1.339   1_655 S
C336   H224    1.087   1_655 S
C337   C339    1.403   .     A
C337   Cl365   1.777   .     S
C337   C347    1.410   .     A
C338   Cl366   1.777   .     S
C338   C348    1.410   .     A
C338   C340    1.403   .     A
C339   C341    1.422   .     A
C339   C367    1.449   .     S
C340   C369    1.449   .     S
C340   C342    1.422   .     A
C341   C343    1.424   .     A
C342   C344    1.424   .     A
C343   C345    1.407   .     A
C343   C371    1.451   .     S
C344   C346    1.407   .     A
C344   C373    1.451   .     S
C345   C375    1.452   .     S
C345   C347    1.411   .     A
C346   C348    1.411   .     A
C346   C377    1.452   .     S
C348   C155    1.514   1_565 S
Cu349  N356    2.013   .     S
Cu349  Cu350   2.680   .     S
Cu349  O360    1.954   .     S
Cu349  O364    1.959   .     S
Cu349  O357    1.950   .     S
Cu349  O361    1.952   .     S
Cu350  N355    2.013   .     S
Cu350  O359    1.954   .     S
Cu350  O363    1.959   .     S
Cu350  O358    1.950   .     S
Cu350  O362    1.952   .     S
H351   C207    1.087   1_655 S
C367   N368    1.157   .     T
C369   N370    1.157   .     T
C371   N372    1.158   .     T
C373   N374    1.158   .     T
C375   N376    1.158   .     T
C377   N378    1.158   .     T
C385   O421    1.301   .     A
C385   C405    1.493   .     S
C385   O423    1.301   .     A
C386   C406    1.493   .     S
C386   O422    1.301   .     A
C386   O424    1.301   .     A
C387   C395    1.427   .     A
C387   C389    1.409   .     A
C387   Cl443   1.766   .     S
C388   Cl444   1.766   .     S
C388   C396    1.427   .     A
C388   C390    1.409   .     A
C389   N419    1.360   .     A
C389   H417    1.082   .     S
C390   H418    1.082   .     S
C390   N420    1.360   .     A
C391   Cl445   1.762   .     S
C391   C393    1.409   .     A
C391   N419    1.372   .     A
C392   N420    1.372   .     A
C392   C394    1.409   .     A
C392   Cl446   1.762   .     S
C393   C395    1.415   .     A
C393   Cl447   1.772   .     S
C394   C396    1.415   .     A
C394   Cl448   1.772   .     S
C396   C11     1.544   1_556 S
C397   O425    1.284   .     A
C397   C399    1.435   .     S
C397   O427    1.292   .     A
C398   O426    1.284   .     A
C398   O428    1.292   .     A
C398   C400    1.435   .     S
C399   C528    1.339   1_455 S
C399   H543    1.087   1_455 S
C400   C463    1.339   .     S
C400   H480    1.087   .     S
C401   C403    1.403   .     A
C401   Cl429   1.777   .     S
C401   C411    1.410   .     A
C402   Cl430   1.777   .     S
C402   C412    1.410   .     A
C402   C404    1.403   .     A
C403   C405    1.422   .     A
C403   C431    1.449   .     S
C404   C433    1.449   .     S
C404   C406    1.422   .     A
C405   C407    1.424   .     A
C406   C408    1.424   .     A
C407   C409    1.407   .     A
C407   C435    1.451   .     S
C408   C410    1.407   .     A
C408   C437    1.451   .     S
C409   C439    1.452   .     S
C409   C411    1.411   .     A
C410   C412    1.411   .     A
C410   C441    1.452   .     S
C411   C604    1.514   1_545 S
C412   C603    1.514   .     S
Cu413  N420    2.013   .     S
Cu413  Cu414   2.680   .     S
Cu413  O424    1.954   .     S
Cu413  O428    1.959   .     S
Cu413  O421    1.950   .     S
Cu413  O425    1.952   .     S
Cu414  N419    2.013   .     S
Cu414  O423    1.954   .     S
Cu414  O427    1.959   .     S
Cu414  O422    1.950   .     S
Cu414  O426    1.952   .     S
H415   C463    1.087   .     S
H416   C528    1.087   1_455 S
C431   N432    1.157   .     T
C433   N434    1.157   .     T
C435   N436    1.158   .     T
C437   N438    1.158   .     T
C439   N440    1.158   .     T
C441   N442    1.158   .     T
C449   O485    1.301   .     A
C449   C469    1.493   .     S
C449   O487    1.301   .     A
C450   C470    1.493   .     S
C450   O486    1.301   .     A
C450   O488    1.301   .     A
C451   C459    1.427   .     A
C451   C453    1.409   .     A
C451   Cl507   1.766   .     S
C452   Cl508   1.766   .     S
C452   C460    1.427   .     A
C452   C454    1.409   .     A
C453   N483    1.360   .     A
C453   H481    1.082   .     S
C454   H482    1.082   .     S
C454   N484    1.360   .     A
C455   Cl509   1.762   .     S
C455   C457    1.409   .     A
C455   N483    1.372   .     A
C456   N484    1.372   .     A
C456   C458    1.409   .     A
C456   Cl510   1.762   .     S
C457   C459    1.415   .     A
C457   Cl511   1.772   .     S
C458   C460    1.415   .     A
C458   Cl512   1.772   .     S
C460   C75     1.544   1_556 S
C461   O489    1.284   .     A
C461   C463    1.435   .     S
C461   O491    1.292   .     A
C462   O490    1.284   .     A
C462   O492    1.292   .     A
C462   C464    1.435   .     S
C464   C527    1.339   .     S
C464   H544    1.087   .     S
C465   C467    1.403   .     A
C465   Cl493   1.777   .     S
C465   C475    1.410   .     A
C466   Cl494   1.777   .     S
C466   C476    1.410   .     A
C466   C468    1.403   .     A
C467   C469    1.422   .     A
C467   C495    1.449   .     S
C468   C497    1.449   .     S
C468   C470    1.422   .     A
C469   C471    1.424   .     A
C470   C472    1.424   .     A
C471   C473    1.407   .     A
C471   C499    1.451   .     S
C472   C474    1.407   .     A
C472   C501    1.451   .     S
C473   C503    1.452   .     S
C473   C475    1.411   .     A
C474   C476    1.411   .     A
C474   C505    1.452   .     S
C475   C668    1.514   1_545 S
C476   C667    1.514   .     S
Cu477  N484    2.013   .     S
Cu477  Cu478   2.680   .     S
Cu477  O488    1.954   .     S
Cu477  O492    1.959   .     S
Cu477  O485    1.950   .     S
Cu477  O489    1.952   .     S
Cu478  N483    2.013   .     S
Cu478  O487    1.954   .     S
Cu478  O491    1.959   .     S
Cu478  O486    1.950   .     S
Cu478  O490    1.952   .     S
H479   C527    1.087   .     S
C495   N496    1.157   .     T
C497   N498    1.157   .     T
C499   N500    1.158   .     T
C501   N502    1.158   .     T
C503   N504    1.158   .     T
C505   N506    1.158   .     T
C513   O549    1.301   .     A
C513   C533    1.493   .     S
C513   O551    1.301   .     A
C514   C534    1.493   .     S
C514   O550    1.301   .     A
C514   O552    1.301   .     A
C515   C523    1.427   .     A
C515   C517    1.409   .     A
C515   Cl571   1.766   .     S
C516   Cl572   1.766   .     S
C516   C524    1.427   .     A
C516   C518    1.409   .     A
C517   N547    1.360   .     A
C517   H545    1.082   .     S
C518   H546    1.082   .     S
C518   N548    1.360   .     A
C519   Cl573   1.762   .     S
C519   C521    1.409   .     A
C519   N547    1.372   .     A
C520   N548    1.372   .     A
C520   C522    1.409   .     A
C520   Cl574   1.762   .     S
C521   C523    1.415   .     A
C521   Cl575   1.772   .     S
C522   C524    1.415   .     A
C522   Cl576   1.772   .     S
C524   C139    1.544   1_556 S
C525   O553    1.284   .     A
C525   C527    1.435   .     S
C525   O555    1.292   .     A
C526   O554    1.284   .     A
C526   O556    1.292   .     A
C526   C528    1.435   .     S
C528   C399    1.339   1_655 S
C528   H416    1.087   1_655 S
C529   C531    1.403   .     A
C529   Cl557   1.777   .     S
C529   C539    1.410   .     A
C530   Cl558   1.777   .     S
C530   C540    1.410   .     A
C530   C532    1.403   .     A
C531   C533    1.422   .     A
C531   C559    1.449   .     S
C532   C561    1.449   .     S
C532   C534    1.422   .     A
C533   C535    1.424   .     A
C534   C536    1.424   .     A
C535   C537    1.407   .     A
C535   C563    1.451   .     S
C536   C538    1.407   .     A
C536   C565    1.451   .     S
C537   C567    1.452   .     S
C537   C539    1.411   .     A
C538   C540    1.411   .     A
C538   C569    1.452   .     S
C539   C732    1.514   1_545 S
C540   C731    1.514   .     S
Cu541  N548    2.013   .     S
Cu541  Cu542   2.680   .     S
Cu541  O552    1.954   .     S
Cu541  O556    1.959   .     S
Cu541  O549    1.950   .     S
Cu541  O553    1.952   .     S
Cu542  N547    2.013   .     S
Cu542  O551    1.954   .     S
Cu542  O555    1.959   .     S
Cu542  O550    1.950   .     S
Cu542  O554    1.952   .     S
H543   C399    1.087   1_655 S
C559   N560    1.157   .     T
C561   N562    1.157   .     T
C563   N564    1.158   .     T
C565   N566    1.158   .     T
C567   N568    1.158   .     T
C569   N570    1.158   .     T
C577   O613    1.301   .     A
C577   C597    1.493   .     S
C577   O615    1.301   .     A
C578   C598    1.493   .     S
C578   O614    1.301   .     A
C578   O616    1.301   .     A
C579   C587    1.427   .     A
C579   C581    1.409   .     A
C579   Cl635   1.766   .     S
C580   Cl636   1.766   .     S
C580   C588    1.427   .     A
C580   C582    1.409   .     A
C581   N611    1.360   .     A
C581   H609    1.082   .     S
C582   H610    1.082   .     S
C582   N612    1.360   .     A
C583   Cl637   1.762   .     S
C583   C585    1.409   .     A
C583   N611    1.372   .     A
C584   N612    1.372   .     A
C584   C586    1.409   .     A
C584   Cl638   1.762   .     S
C585   C587    1.415   .     A
C585   Cl639   1.772   .     S
C586   C588    1.415   .     A
C586   Cl640   1.772   .     S
C588   C203    1.544   1_556 S
C589   O617    1.284   .     A
C589   C591    1.435   .     S
C589   O619    1.292   .     A
C590   O618    1.284   .     A
C590   O620    1.292   .     A
C590   C592    1.435   .     S
C591   C720    1.339   1_455 S
C591   H735    1.087   1_455 S
C592   C655    1.339   .     S
C592   H672    1.087   .     S
C593   C595    1.403   .     A
C593   Cl621   1.777   .     S
C593   C603    1.410   .     A
C594   Cl622   1.777   .     S
C594   C604    1.410   .     A
C594   C596    1.403   .     A
C595   C597    1.422   .     A
C595   C623    1.449   .     S
C596   C625    1.449   .     S
C596   C598    1.422   .     A
C597   C599    1.424   .     A
C598   C600    1.424   .     A
C599   C601    1.407   .     A
C599   C627    1.451   .     S
C600   C602    1.407   .     A
C600   C629    1.451   .     S
C601   C631    1.452   .     S
C601   C603    1.411   .     A
C602   C604    1.411   .     A
C602   C633    1.452   .     S
C604   C411    1.514   1_565 S
Cu605  N612    2.013   .     S
Cu605  Cu606   2.680   .     S
Cu605  O616    1.954   .     S
Cu605  O620    1.959   .     S
Cu605  O613    1.950   .     S
Cu605  O617    1.952   .     S
Cu606  N611    2.013   .     S
Cu606  O615    1.954   .     S
Cu606  O619    1.959   .     S
Cu606  O614    1.950   .     S
Cu606  O618    1.952   .     S
H607   C655    1.087   .     S
H608   C720    1.087   1_455 S
C623   N624    1.157   .     T
C625   N626    1.157   .     T
C627   N628    1.158   .     T
C629   N630    1.158   .     T
C631   N632    1.158   .     T
C633   N634    1.158   .     T
C641   O677    1.301   .     A
C641   C661    1.493   .     S
C641   O679    1.301   .     A
C642   C662    1.493   .     S
C642   O678    1.301   .     A
C642   O680    1.301   .     A
C643   C651    1.427   .     A
C643   C645    1.409   .     A
C643   Cl699   1.766   .     S
C644   Cl700   1.766   .     S
C644   C652    1.427   .     A
C644   C646    1.409   .     A
C645   N675    1.360   .     A
C645   H673    1.082   .     S
C646   H674    1.082   .     S
C646   N676    1.360   .     A
C647   Cl701   1.762   .     S
C647   C649    1.409   .     A
C647   N675    1.372   .     A
C648   N676    1.372   .     A
C648   C650    1.409   .     A
C648   Cl702   1.762   .     S
C649   C651    1.415   .     A
C649   Cl703   1.772   .     S
C650   C652    1.415   .     A
C650   Cl704   1.772   .     S
C652   C267    1.544   1_556 S
C653   O681    1.284   .     A
C653   C655    1.435   .     S
C653   O683    1.292   .     A
C654   O682    1.284   .     A
C654   O684    1.292   .     A
C654   C656    1.435   .     S
C656   C719    1.339   .     S
C656   H736    1.087   .     S
C657   C659    1.403   .     A
C657   Cl685   1.777   .     S
C657   C667    1.410   .     A
C658   Cl686   1.777   .     S
C658   C668    1.410   .     A
C658   C660    1.403   .     A
C659   C661    1.422   .     A
C659   C687    1.449   .     S
C660   C689    1.449   .     S
C660   C662    1.422   .     A
C661   C663    1.424   .     A
C662   C664    1.424   .     A
C663   C665    1.407   .     A
C663   C691    1.451   .     S
C664   C666    1.407   .     A
C664   C693    1.451   .     S
C665   C695    1.452   .     S
C665   C667    1.411   .     A
C666   C668    1.411   .     A
C666   C697    1.452   .     S
C668   C475    1.514   1_565 S
Cu669  N676    2.013   .     S
Cu669  Cu670   2.680   .     S
Cu669  O680    1.954   .     S
Cu669  O684    1.959   .     S
Cu669  O677    1.950   .     S
Cu669  O681    1.952   .     S
Cu670  N675    2.013   .     S
Cu670  O679    1.954   .     S
Cu670  O683    1.959   .     S
Cu670  O678    1.950   .     S
Cu670  O682    1.952   .     S
H671   C719    1.087   .     S
C687   N688    1.157   .     T
C689   N690    1.157   .     T
C691   N692    1.158   .     T
C693   N694    1.158   .     T
C695   N696    1.158   .     T
C697   N698    1.158   .     T
C705   O741    1.301   .     A
C705   C725    1.493   .     S
C705   O743    1.301   .     A
C706   C726    1.493   .     S
C706   O742    1.301   .     A
C706   O744    1.301   .     A
C707   C715    1.427   .     A
C707   C709    1.409   .     A
C707   Cl763   1.766   .     S
C708   Cl764   1.766   .     S
C708   C716    1.427   .     A
C708   C710    1.409   .     A
C709   N739    1.360   .     A
C709   H737    1.082   .     S
C710   H738    1.082   .     S
C710   N740    1.360   .     A
C711   Cl765   1.762   .     S
C711   C713    1.409   .     A
C711   N739    1.372   .     A
C712   N740    1.372   .     A
C712   C714    1.409   .     A
C712   Cl766   1.762   .     S
C713   C715    1.415   .     A
C713   Cl767   1.772   .     S
C714   C716    1.415   .     A
C714   Cl768   1.772   .     S
C716   C331    1.544   1_556 S
C717   O745    1.284   .     A
C717   C719    1.435   .     S
C717   O747    1.292   .     A
C718   O746    1.284   .     A
C718   O748    1.292   .     A
C718   C720    1.435   .     S
C720   C591    1.339   1_655 S
C720   H608    1.087   1_655 S
C721   C723    1.403   .     A
C721   Cl749   1.777   .     S
C721   C731    1.410   .     A
C722   Cl750   1.777   .     S
C722   C732    1.410   .     A
C722   C724    1.403   .     A
C723   C725    1.422   .     A
C723   C751    1.449   .     S
C724   C753    1.449   .     S
C724   C726    1.422   .     A
C725   C727    1.424   .     A
C726   C728    1.424   .     A
C727   C729    1.407   .     A
C727   C755    1.451   .     S
C728   C730    1.407   .     A
C728   C757    1.451   .     S
C729   C759    1.452   .     S
C729   C731    1.411   .     A
C730   C732    1.411   .     A
C730   C761    1.452   .     S
C732   C539    1.514   1_565 S
Cu733  N740    2.013   .     S
Cu733  Cu734   2.680   .     S
Cu733  O744    1.954   .     S
Cu733  O748    1.959   .     S
Cu733  O741    1.950   .     S
Cu733  O745    1.952   .     S
Cu734  N739    2.013   .     S
Cu734  O743    1.954   .     S
Cu734  O747    1.959   .     S
Cu734  O742    1.950   .     S
Cu734  O746    1.952   .     S
H735   C591    1.087   1_655 S
C751   N752    1.157   .     T
C753   N754    1.157   .     T
C755   N756    1.158   .     T
C757   N758    1.158   .     T
C759   N760    1.158   .     T
C761   N762    1.158   .     T
