data_str_m2_o1_o17_pcu_sym.150
_audit_creation_date              2020-01-03
_audit_creation_method            'Materials Studio'
_symmetry_space_group_name_H-M    'P1'
_symmetry_Int_Tables_number       1
_symmetry_cell_setting            triclinic
loop_
_symmetry_equiv_pos_as_xyz
  x,y,z
_cell_length_a                    32.4388
_cell_length_b                    28.9303
_cell_length_c                    30.0072
_cell_angle_alpha                 89.7178
_cell_angle_beta                  92.8443
_cell_angle_gamma                 89.9886
loop_
_atom_site_label
_atom_site_type_symbol
_atom_site_fract_x
_atom_site_fract_y
_atom_site_fract_z
_atom_site_U_iso_or_equiv
_atom_site_adp_type
_atom_site_occupancy
C1     C     0.08750   0.16666   0.25035   0.00000  Uiso   1.00
C2     C     0.24585   0.16666   0.25010   0.00000  Uiso   1.00
C3     C     0.08892   0.16877   0.01580   0.00000  Uiso   1.00
C4     C     0.23934   0.14091   0.48317   0.00000  Uiso   1.00
C5     C     0.02109   0.12507   0.24490   0.00000  Uiso   1.00
C6     C     0.31228   0.20822   0.25603   0.00000  Uiso   1.00
C7     C     0.31178   0.12510   0.24471   0.00000  Uiso   1.00
C8     C     0.02159   0.20819   0.25620   0.00000  Uiso   1.00
C9     C     0.29054   0.16667   0.25028   0.00000  Uiso   1.00
C10    C     0.04283   0.16664   0.25055   0.00000  Uiso   1.00
C11    C     0.14103   0.02494   0.22076   0.00000  Uiso   1.00
C12    C     0.19230   0.30842   0.27930   0.00000  Uiso   1.00
C13    C     0.19372   0.02456   0.27781   0.00000  Uiso   1.00
C14    C     0.13953   0.30886   0.22237   0.00000  Uiso   1.00
C15    C     0.16587   0.16666   0.16458   0.00000  Uiso   1.00
C16    C     0.16712   0.16655   0.33532   0.00000  Uiso   1.00
C17    C     0.20556   0.16221   0.40903   0.00000  Uiso   1.00
C18    C     0.12660   0.17331   0.09085   0.00000  Uiso   1.00
C19    C     0.16805   0.16583   0.38355   0.00000  Uiso   1.00
C20    C     0.16396   0.16587   0.11614   0.00000  Uiso   1.00
C21    C     0.13050   0.16809   0.40372   0.00000  Uiso   1.00
C22    C     0.20021   0.15522   0.09560   0.00000  Uiso   1.00
C23    C     0.12932   0.16747   0.44988   0.00000  Uiso   1.00
C24    C     0.20091   0.15389   0.04944   0.00000  Uiso   1.00
C25    C     0.16600   0.16113   0.47631   0.00000  Uiso   1.00
C26    C     0.16422   0.16101   0.02317   0.00000  Uiso   1.00
C27    C     0.20433   0.15481   0.45585   0.00000  Uiso   1.00
C28    C     0.12593   0.16783   0.04367   0.00000  Uiso   1.00
C29    C     0.09143   0.17077   0.46957   0.00000  Uiso   1.00
C30    C     0.23770   0.14324   0.02950   0.00000  Uiso   1.00
Cu31   Cu    0.16667   0.21355   0.25000   0.00000  Uiso   1.00
Cu32   Cu    0.16667   0.11978   0.25000   0.00000  Uiso   1.00
H33    H     0.10212   0.17121   0.38317   0.00000  Uiso   1.00
H34    H     0.22829   0.14881   0.11592   0.00000  Uiso   1.00
H35    H     0.06324   0.17267   0.44855   0.00000  Uiso   1.00
H36    H     0.26488   0.13428   0.05032   0.00000  Uiso   1.00
H37    H     0.03690   0.09258   0.24037   0.00000  Uiso   1.00
H38    H     0.29647   0.24072   0.26052   0.00000  Uiso   1.00
H39    H     0.29555   0.09267   0.23988   0.00000  Uiso   1.00
H40    H     0.03784   0.24063   0.26097   0.00000  Uiso   1.00
N41    N     0.16667   0.28402   0.25000   0.00000  Uiso   1.00
N42    N     0.16667   0.04931   0.25000   0.00000  Uiso   1.00
O43    O     0.10655   0.20625   0.25000   0.00000  Uiso   1.00
O44    O     0.22679   0.12709   0.25001   0.00000  Uiso   1.00
O45    O     0.22679   0.20625   0.25001   0.00000  Uiso   1.00
O46    O     0.10655   0.12709   0.25000   0.00000  Uiso   1.00
O47    O     0.16666   0.20627   0.18513   0.00000  Uiso   1.00
O48    O     0.16668   0.12707   0.31487   0.00000  Uiso   1.00
O49    O     0.16668   0.20627   0.31487   0.00000  Uiso   1.00
O50    O     0.16666   0.12707   0.18513   0.00000  Uiso   1.00
C51    C     0.24456   0.17239   0.38670   0.00000  Uiso   1.00
H52    H     0.24823   0.16200   0.35243   0.00000  Uiso   1.00
O53    O     0.27211   0.19466   0.40566   0.00000  Uiso   1.00
C54    C     0.09005   0.19084   0.11340   0.00000  Uiso   1.00
H55    H     0.07197   0.21901   0.09854   0.00000  Uiso   1.00
O56    O     0.07910   0.17315   0.14787   0.00000  Uiso   1.00
C57    C     0.04687   0.16227   0.03187   0.00000  Uiso   1.00
H58    H     0.02125   0.18189   0.01674   0.00000  Uiso   1.00
O59    O     0.03998   0.13269   0.05969   0.00000  Uiso   1.00
C60    C     0.27605   0.11761   0.46603   0.00000  Uiso   1.00
H61    H     0.30567   0.12018   0.48429   0.00000  Uiso   1.00
O62    O     0.27308   0.09281   0.43322   0.00000  Uiso   1.00
C63    C     0.11765   0.04929   0.18395   0.00000  Uiso   1.00
H64    H     0.09868   0.07893   0.18977   0.00000  Uiso   1.00
O65    O     0.11956   0.03586   0.14558   0.00000  Uiso   1.00
C66    C     0.21573   0.28406   0.31608   0.00000  Uiso   1.00
H67    H     0.23446   0.25424   0.31029   0.00000  Uiso   1.00
O68    O     0.21409   0.29765   0.35442   0.00000  Uiso   1.00
C69    C     0.22756   0.04851   0.30360   0.00000  Uiso   1.00
H70    H     0.22237   0.07923   0.32246   0.00000  Uiso   1.00
O71    O     0.26277   0.03351   0.30384   0.00000  Uiso   1.00
C72    C     0.10557   0.28503   0.19688   0.00000  Uiso   1.00
H73    H     0.11075   0.25408   0.17857   0.00000  Uiso   1.00
O74    O     0.07043   0.30027   0.19639   0.00000  Uiso   1.00
C75    C     0.42084   0.16666   0.25035   0.00000  Uiso   1.00
C76    C     0.57918   0.16666   0.25010   0.00000  Uiso   1.00
C77    C     0.42225   0.16877   0.01580   0.00000  Uiso   1.00
C78    C     0.57267   0.14091   0.48317   0.00000  Uiso   1.00
C79    C     0.35442   0.12507   0.24490   0.00000  Uiso   1.00
C80    C     0.64562   0.20822   0.25603   0.00000  Uiso   1.00
C81    C     0.64512   0.12510   0.24471   0.00000  Uiso   1.00
C82    C     0.35493   0.20819   0.25620   0.00000  Uiso   1.00
C83    C     0.62387   0.16667   0.25028   0.00000  Uiso   1.00
C84    C     0.37616   0.16664   0.25055   0.00000  Uiso   1.00
C85    C     0.47437   0.02494   0.22076   0.00000  Uiso   1.00
C86    C     0.52563   0.30842   0.27930   0.00000  Uiso   1.00
C87    C     0.52705   0.02456   0.27781   0.00000  Uiso   1.00
C88    C     0.47286   0.30886   0.22237   0.00000  Uiso   1.00
C89    C     0.49920   0.16666   0.16458   0.00000  Uiso   1.00
C90    C     0.50045   0.16655   0.33532   0.00000  Uiso   1.00
C91    C     0.53889   0.16221   0.40903   0.00000  Uiso   1.00
C92    C     0.45994   0.17331   0.09085   0.00000  Uiso   1.00
C93    C     0.50138   0.16583   0.38355   0.00000  Uiso   1.00
C94    C     0.49730   0.16587   0.11614   0.00000  Uiso   1.00
C95    C     0.46383   0.16809   0.40372   0.00000  Uiso   1.00
C96    C     0.53354   0.15522   0.09560   0.00000  Uiso   1.00
C97    C     0.46265   0.16747   0.44988   0.00000  Uiso   1.00
C98    C     0.53424   0.15389   0.04944   0.00000  Uiso   1.00
C99    C     0.49933   0.16113   0.47631   0.00000  Uiso   1.00
C100   C     0.49755   0.16101   0.02317   0.00000  Uiso   1.00
C101   C     0.53766   0.15481   0.45585   0.00000  Uiso   1.00
C102   C     0.45926   0.16783   0.04367   0.00000  Uiso   1.00
C103   C     0.42476   0.17077   0.46957   0.00000  Uiso   1.00
C104   C     0.57103   0.14324   0.02950   0.00000  Uiso   1.00
Cu105  Cu    0.50000   0.21355   0.25000   0.00000  Uiso   1.00
Cu106  Cu    0.50000   0.11978   0.25000   0.00000  Uiso   1.00
H107   H     0.43545   0.17121   0.38317   0.00000  Uiso   1.00
H108   H     0.56162   0.14881   0.11592   0.00000  Uiso   1.00
H109   H     0.39657   0.17267   0.44855   0.00000  Uiso   1.00
H110   H     0.59821   0.13428   0.05032   0.00000  Uiso   1.00
H111   H     0.37023   0.09258   0.24037   0.00000  Uiso   1.00
H112   H     0.62980   0.24072   0.26052   0.00000  Uiso   1.00
H113   H     0.62889   0.09267   0.23988   0.00000  Uiso   1.00
H114   H     0.37117   0.24063   0.26097   0.00000  Uiso   1.00
N115   N     0.50000   0.28402   0.25000   0.00000  Uiso   1.00
N116   N     0.50000   0.04931   0.25000   0.00000  Uiso   1.00
O117   O     0.43988   0.20625   0.25000   0.00000  Uiso   1.00
O118   O     0.56012   0.12709   0.25001   0.00000  Uiso   1.00
O119   O     0.56012   0.20625   0.25001   0.00000  Uiso   1.00
O120   O     0.43988   0.12709   0.25000   0.00000  Uiso   1.00
O121   O     0.49999   0.20627   0.18513   0.00000  Uiso   1.00
O122   O     0.50001   0.12707   0.31487   0.00000  Uiso   1.00
O123   O     0.50001   0.20627   0.31487   0.00000  Uiso   1.00
O124   O     0.49999   0.12707   0.18513   0.00000  Uiso   1.00
C125   C     0.57789   0.17239   0.38670   0.00000  Uiso   1.00
H126   H     0.58157   0.16200   0.35243   0.00000  Uiso   1.00
O127   O     0.60544   0.19466   0.40566   0.00000  Uiso   1.00
C128   C     0.42339   0.19084   0.11340   0.00000  Uiso   1.00
H129   H     0.40531   0.21901   0.09854   0.00000  Uiso   1.00
O130   O     0.41244   0.17315   0.14787   0.00000  Uiso   1.00
C131   C     0.38020   0.16227   0.03187   0.00000  Uiso   1.00
H132   H     0.35459   0.18189   0.01674   0.00000  Uiso   1.00
O133   O     0.37331   0.13269   0.05969   0.00000  Uiso   1.00
C134   C     0.60939   0.11761   0.46603   0.00000  Uiso   1.00
H135   H     0.63900   0.12018   0.48429   0.00000  Uiso   1.00
O136   O     0.60642   0.09281   0.43322   0.00000  Uiso   1.00
C137   C     0.45098   0.04929   0.18395   0.00000  Uiso   1.00
H138   H     0.43201   0.07893   0.18977   0.00000  Uiso   1.00
O139   O     0.45289   0.03586   0.14558   0.00000  Uiso   1.00
C140   C     0.54906   0.28406   0.31608   0.00000  Uiso   1.00
H141   H     0.56779   0.25424   0.31029   0.00000  Uiso   1.00
O142   O     0.54742   0.29765   0.35442   0.00000  Uiso   1.00
C143   C     0.56090   0.04851   0.30360   0.00000  Uiso   1.00
H144   H     0.55570   0.07923   0.32246   0.00000  Uiso   1.00
O145   O     0.59611   0.03351   0.30384   0.00000  Uiso   1.00
C146   C     0.43890   0.28503   0.19688   0.00000  Uiso   1.00
H147   H     0.44408   0.25408   0.17857   0.00000  Uiso   1.00
O148   O     0.40376   0.30027   0.19639   0.00000  Uiso   1.00
C149   C     0.75417   0.16666   0.25035   0.00000  Uiso   1.00
C150   C     0.91252   0.16666   0.25010   0.00000  Uiso   1.00
C151   C     0.75559   0.16877   0.01580   0.00000  Uiso   1.00
C152   C     0.90601   0.14091   0.48317   0.00000  Uiso   1.00
C153   C     0.68776   0.12507   0.24490   0.00000  Uiso   1.00
C154   C     0.97895   0.20822   0.25603   0.00000  Uiso   1.00
C155   C     0.97845   0.12510   0.24471   0.00000  Uiso   1.00
C156   C     0.68826   0.20819   0.25620   0.00000  Uiso   1.00
C157   C     0.95721   0.16667   0.25028   0.00000  Uiso   1.00
C158   C     0.70950   0.16664   0.25055   0.00000  Uiso   1.00
C159   C     0.80770   0.02494   0.22076   0.00000  Uiso   1.00
C160   C     0.85897   0.30842   0.27930   0.00000  Uiso   1.00
C161   C     0.86039   0.02456   0.27781   0.00000  Uiso   1.00
C162   C     0.80620   0.30886   0.22237   0.00000  Uiso   1.00
C163   C     0.83253   0.16666   0.16458   0.00000  Uiso   1.00
C164   C     0.83378   0.16655   0.33532   0.00000  Uiso   1.00
C165   C     0.87222   0.16221   0.40903   0.00000  Uiso   1.00
C166   C     0.79327   0.17331   0.09085   0.00000  Uiso   1.00
C167   C     0.83472   0.16583   0.38355   0.00000  Uiso   1.00
C168   C     0.83063   0.16587   0.11614   0.00000  Uiso   1.00
C169   C     0.79717   0.16809   0.40372   0.00000  Uiso   1.00
C170   C     0.86688   0.15522   0.09560   0.00000  Uiso   1.00
C171   C     0.79598   0.16747   0.44988   0.00000  Uiso   1.00
C172   C     0.86757   0.15389   0.04944   0.00000  Uiso   1.00
C173   C     0.83267   0.16113   0.47631   0.00000  Uiso   1.00
C174   C     0.83089   0.16101   0.02317   0.00000  Uiso   1.00
C175   C     0.87099   0.15481   0.45585   0.00000  Uiso   1.00
C176   C     0.79260   0.16783   0.04367   0.00000  Uiso   1.00
C177   C     0.75809   0.17077   0.46957   0.00000  Uiso   1.00
C178   C     0.90437   0.14324   0.02950   0.00000  Uiso   1.00
Cu179  Cu    0.83333   0.21355   0.25000   0.00000  Uiso   1.00
Cu180  Cu    0.83333   0.11978   0.25000   0.00000  Uiso   1.00
H181   H     0.76878   0.17121   0.38317   0.00000  Uiso   1.00
H182   H     0.89496   0.14881   0.11592   0.00000  Uiso   1.00
H183   H     0.72991   0.17267   0.44855   0.00000  Uiso   1.00
H184   H     0.93155   0.13428   0.05032   0.00000  Uiso   1.00
H185   H     0.70356   0.09258   0.24037   0.00000  Uiso   1.00
H186   H     0.96314   0.24072   0.26052   0.00000  Uiso   1.00
H187   H     0.96222   0.09267   0.23988   0.00000  Uiso   1.00
H188   H     0.70450   0.24063   0.26097   0.00000  Uiso   1.00
N189   N     0.83333   0.28402   0.25000   0.00000  Uiso   1.00
N190   N     0.83333   0.04931   0.25000   0.00000  Uiso   1.00
O191   O     0.77321   0.20625   0.25000   0.00000  Uiso   1.00
O192   O     0.89345   0.12709   0.25001   0.00000  Uiso   1.00
O193   O     0.89345   0.20625   0.25001   0.00000  Uiso   1.00
O194   O     0.77321   0.12709   0.25000   0.00000  Uiso   1.00
O195   O     0.83332   0.20627   0.18513   0.00000  Uiso   1.00
O196   O     0.83334   0.12707   0.31487   0.00000  Uiso   1.00
O197   O     0.83334   0.20627   0.31487   0.00000  Uiso   1.00
O198   O     0.83332   0.12707   0.18513   0.00000  Uiso   1.00
C199   C     0.91123   0.17239   0.38670   0.00000  Uiso   1.00
H200   H     0.91490   0.16200   0.35243   0.00000  Uiso   1.00
O201   O     0.93877   0.19466   0.40566   0.00000  Uiso   1.00
C202   C     0.75672   0.19084   0.11340   0.00000  Uiso   1.00
H203   H     0.73864   0.21901   0.09854   0.00000  Uiso   1.00
O204   O     0.74577   0.17315   0.14787   0.00000  Uiso   1.00
C205   C     0.71353   0.16227   0.03187   0.00000  Uiso   1.00
H206   H     0.68792   0.18189   0.01674   0.00000  Uiso   1.00
O207   O     0.70665   0.13269   0.05969   0.00000  Uiso   1.00
C208   C     0.94272   0.11761   0.46603   0.00000  Uiso   1.00
H209   H     0.97233   0.12018   0.48429   0.00000  Uiso   1.00
O210   O     0.93975   0.09281   0.43322   0.00000  Uiso   1.00
C211   C     0.78431   0.04929   0.18395   0.00000  Uiso   1.00
H212   H     0.76534   0.07893   0.18977   0.00000  Uiso   1.00
O213   O     0.78622   0.03586   0.14558   0.00000  Uiso   1.00
C214   C     0.88239   0.28406   0.31608   0.00000  Uiso   1.00
H215   H     0.90112   0.25424   0.31029   0.00000  Uiso   1.00
O216   O     0.88076   0.29765   0.35442   0.00000  Uiso   1.00
C217   C     0.89423   0.04851   0.30360   0.00000  Uiso   1.00
H218   H     0.88904   0.07923   0.32246   0.00000  Uiso   1.00
O219   O     0.92944   0.03351   0.30384   0.00000  Uiso   1.00
C220   C     0.77224   0.28503   0.19688   0.00000  Uiso   1.00
H221   H     0.77742   0.25408   0.17857   0.00000  Uiso   1.00
O222   O     0.73710   0.30027   0.19639   0.00000  Uiso   1.00
C223   C     0.08750   0.50000   0.25035   0.00000  Uiso   1.00
C224   C     0.24585   0.50000   0.25010   0.00000  Uiso   1.00
C225   C     0.08892   0.50210   0.01580   0.00000  Uiso   1.00
C226   C     0.23934   0.47424   0.48317   0.00000  Uiso   1.00
C227   C     0.02109   0.45840   0.24490   0.00000  Uiso   1.00
C228   C     0.31228   0.54156   0.25603   0.00000  Uiso   1.00
C229   C     0.31178   0.45844   0.24471   0.00000  Uiso   1.00
C230   C     0.02159   0.54153   0.25620   0.00000  Uiso   1.00
C231   C     0.29054   0.50000   0.25028   0.00000  Uiso   1.00
C232   C     0.04283   0.49997   0.25055   0.00000  Uiso   1.00
C233   C     0.14103   0.35827   0.22076   0.00000  Uiso   1.00
C234   C     0.19230   0.64175   0.27930   0.00000  Uiso   1.00
C235   C     0.19372   0.35789   0.27781   0.00000  Uiso   1.00
C236   C     0.13953   0.64219   0.22237   0.00000  Uiso   1.00
C237   C     0.16587   0.49999   0.16458   0.00000  Uiso   1.00
C238   C     0.16712   0.49988   0.33532   0.00000  Uiso   1.00
C239   C     0.20556   0.49554   0.40903   0.00000  Uiso   1.00
C240   C     0.12660   0.50664   0.09085   0.00000  Uiso   1.00
C241   C     0.16805   0.49916   0.38355   0.00000  Uiso   1.00
C242   C     0.16396   0.49921   0.11614   0.00000  Uiso   1.00
C243   C     0.13050   0.50142   0.40372   0.00000  Uiso   1.00
C244   C     0.20021   0.48855   0.09560   0.00000  Uiso   1.00
C245   C     0.12932   0.50081   0.44988   0.00000  Uiso   1.00
C246   C     0.20091   0.48722   0.04944   0.00000  Uiso   1.00
C247   C     0.16600   0.49446   0.47631   0.00000  Uiso   1.00
C248   C     0.16422   0.49435   0.02317   0.00000  Uiso   1.00
C249   C     0.20433   0.48814   0.45585   0.00000  Uiso   1.00
C250   C     0.12593   0.50116   0.04367   0.00000  Uiso   1.00
C251   C     0.09143   0.50410   0.46957   0.00000  Uiso   1.00
C252   C     0.23770   0.47657   0.02950   0.00000  Uiso   1.00
Cu253  Cu    0.16667   0.54689   0.25000   0.00000  Uiso   1.00
Cu254  Cu    0.16667   0.45311   0.25000   0.00000  Uiso   1.00
H255   H     0.10212   0.50455   0.38317   0.00000  Uiso   1.00
H256   H     0.22829   0.48215   0.11592   0.00000  Uiso   1.00
H257   H     0.06324   0.50600   0.44855   0.00000  Uiso   1.00
H258   H     0.26488   0.46761   0.05032   0.00000  Uiso   1.00
H259   H     0.03690   0.42591   0.24037   0.00000  Uiso   1.00
H260   H     0.29647   0.57405   0.26052   0.00000  Uiso   1.00
H261   H     0.29555   0.42601   0.23988   0.00000  Uiso   1.00
H262   H     0.03784   0.57396   0.26097   0.00000  Uiso   1.00
N263   N     0.16667   0.61736   0.25000   0.00000  Uiso   1.00
N264   N     0.16667   0.38264   0.25000   0.00000  Uiso   1.00
O265   O     0.10655   0.53958   0.25000   0.00000  Uiso   1.00
O266   O     0.22679   0.46042   0.25001   0.00000  Uiso   1.00
O267   O     0.22679   0.53958   0.25001   0.00000  Uiso   1.00
O268   O     0.10655   0.46042   0.25000   0.00000  Uiso   1.00
O269   O     0.16666   0.53960   0.18513   0.00000  Uiso   1.00
O270   O     0.16668   0.46040   0.31487   0.00000  Uiso   1.00
O271   O     0.16668   0.53960   0.31487   0.00000  Uiso   1.00
O272   O     0.16666   0.46040   0.18513   0.00000  Uiso   1.00
C273   C     0.24456   0.50572   0.38670   0.00000  Uiso   1.00
H274   H     0.24823   0.49534   0.35243   0.00000  Uiso   1.00
O275   O     0.27211   0.52800   0.40566   0.00000  Uiso   1.00
C276   C     0.09005   0.52417   0.11340   0.00000  Uiso   1.00
H277   H     0.07197   0.55234   0.09854   0.00000  Uiso   1.00
O278   O     0.07910   0.50648   0.14787   0.00000  Uiso   1.00
C279   C     0.04687   0.49560   0.03187   0.00000  Uiso   1.00
H280   H     0.02125   0.51522   0.01674   0.00000  Uiso   1.00
O281   O     0.03998   0.46602   0.05969   0.00000  Uiso   1.00
C282   C     0.27605   0.45094   0.46603   0.00000  Uiso   1.00
H283   H     0.30567   0.45351   0.48429   0.00000  Uiso   1.00
O284   O     0.27308   0.42614   0.43322   0.00000  Uiso   1.00
C285   C     0.11765   0.38263   0.18395   0.00000  Uiso   1.00
H286   H     0.09868   0.41226   0.18977   0.00000  Uiso   1.00
O287   O     0.11956   0.36919   0.14558   0.00000  Uiso   1.00
C288   C     0.21573   0.61739   0.31608   0.00000  Uiso   1.00
H289   H     0.23446   0.58757   0.31029   0.00000  Uiso   1.00
O290   O     0.21409   0.63098   0.35442   0.00000  Uiso   1.00
C291   C     0.22756   0.38184   0.30360   0.00000  Uiso   1.00
H292   H     0.22237   0.41256   0.32246   0.00000  Uiso   1.00
O293   O     0.26277   0.36684   0.30384   0.00000  Uiso   1.00
C294   C     0.10557   0.61836   0.19688   0.00000  Uiso   1.00
H295   H     0.11075   0.58742   0.17857   0.00000  Uiso   1.00
O296   O     0.07043   0.63361   0.19639   0.00000  Uiso   1.00
C297   C     0.42084   0.50000   0.25035   0.00000  Uiso   1.00
C298   C     0.57918   0.50000   0.25010   0.00000  Uiso   1.00
C299   C     0.42225   0.50210   0.01580   0.00000  Uiso   1.00
C300   C     0.57267   0.47424   0.48317   0.00000  Uiso   1.00
C301   C     0.35442   0.45840   0.24490   0.00000  Uiso   1.00
C302   C     0.64562   0.54156   0.25603   0.00000  Uiso   1.00
C303   C     0.64512   0.45844   0.24471   0.00000  Uiso   1.00
C304   C     0.35493   0.54153   0.25620   0.00000  Uiso   1.00
C305   C     0.62387   0.50000   0.25028   0.00000  Uiso   1.00
C306   C     0.37616   0.49997   0.25055   0.00000  Uiso   1.00
C307   C     0.47437   0.35827   0.22076   0.00000  Uiso   1.00
C308   C     0.52563   0.64175   0.27930   0.00000  Uiso   1.00
C309   C     0.52705   0.35789   0.27781   0.00000  Uiso   1.00
C310   C     0.47286   0.64219   0.22237   0.00000  Uiso   1.00
C311   C     0.49920   0.49999   0.16458   0.00000  Uiso   1.00
C312   C     0.50045   0.49988   0.33532   0.00000  Uiso   1.00
C313   C     0.53889   0.49554   0.40903   0.00000  Uiso   1.00
C314   C     0.45994   0.50664   0.09085   0.00000  Uiso   1.00
C315   C     0.50138   0.49916   0.38355   0.00000  Uiso   1.00
C316   C     0.49730   0.49921   0.11614   0.00000  Uiso   1.00
C317   C     0.46383   0.50142   0.40372   0.00000  Uiso   1.00
C318   C     0.53354   0.48855   0.09560   0.00000  Uiso   1.00
C319   C     0.46265   0.50081   0.44988   0.00000  Uiso   1.00
C320   C     0.53424   0.48722   0.04944   0.00000  Uiso   1.00
C321   C     0.49933   0.49446   0.47631   0.00000  Uiso   1.00
C322   C     0.49755   0.49435   0.02317   0.00000  Uiso   1.00
C323   C     0.53766   0.48814   0.45585   0.00000  Uiso   1.00
C324   C     0.45926   0.50116   0.04367   0.00000  Uiso   1.00
C325   C     0.42476   0.50410   0.46957   0.00000  Uiso   1.00
C326   C     0.57103   0.47657   0.02950   0.00000  Uiso   1.00
Cu327  Cu    0.50000   0.54689   0.25000   0.00000  Uiso   1.00
Cu328  Cu    0.50000   0.45311   0.25000   0.00000  Uiso   1.00
H329   H     0.43545   0.50455   0.38317   0.00000  Uiso   1.00
H330   H     0.56162   0.48215   0.11592   0.00000  Uiso   1.00
H331   H     0.39657   0.50600   0.44855   0.00000  Uiso   1.00
H332   H     0.59821   0.46761   0.05032   0.00000  Uiso   1.00
H333   H     0.37023   0.42591   0.24037   0.00000  Uiso   1.00
H334   H     0.62980   0.57405   0.26052   0.00000  Uiso   1.00
H335   H     0.62889   0.42601   0.23988   0.00000  Uiso   1.00
H336   H     0.37117   0.57396   0.26097   0.00000  Uiso   1.00
N337   N     0.50000   0.61736   0.25000   0.00000  Uiso   1.00
N338   N     0.50000   0.38264   0.25000   0.00000  Uiso   1.00
O339   O     0.43988   0.53958   0.25000   0.00000  Uiso   1.00
O340   O     0.56012   0.46042   0.25001   0.00000  Uiso   1.00
O341   O     0.56012   0.53958   0.25001   0.00000  Uiso   1.00
O342   O     0.43988   0.46042   0.25000   0.00000  Uiso   1.00
O343   O     0.49999   0.53960   0.18513   0.00000  Uiso   1.00
O344   O     0.50001   0.46040   0.31487   0.00000  Uiso   1.00
O345   O     0.50001   0.53960   0.31487   0.00000  Uiso   1.00
O346   O     0.49999   0.46040   0.18513   0.00000  Uiso   1.00
C347   C     0.57789   0.50572   0.38670   0.00000  Uiso   1.00
H348   H     0.58157   0.49534   0.35243   0.00000  Uiso   1.00
O349   O     0.60544   0.52800   0.40566   0.00000  Uiso   1.00
C350   C     0.42339   0.52417   0.11340   0.00000  Uiso   1.00
H351   H     0.40531   0.55234   0.09854   0.00000  Uiso   1.00
O352   O     0.41244   0.50648   0.14787   0.00000  Uiso   1.00
C353   C     0.38020   0.49560   0.03187   0.00000  Uiso   1.00
H354   H     0.35459   0.51522   0.01674   0.00000  Uiso   1.00
O355   O     0.37331   0.46602   0.05969   0.00000  Uiso   1.00
C356   C     0.60939   0.45094   0.46603   0.00000  Uiso   1.00
H357   H     0.63900   0.45351   0.48429   0.00000  Uiso   1.00
O358   O     0.60642   0.42614   0.43322   0.00000  Uiso   1.00
C359   C     0.45098   0.38263   0.18395   0.00000  Uiso   1.00
H360   H     0.43201   0.41226   0.18977   0.00000  Uiso   1.00
O361   O     0.45289   0.36919   0.14558   0.00000  Uiso   1.00
C362   C     0.54906   0.61739   0.31608   0.00000  Uiso   1.00
H363   H     0.56779   0.58757   0.31029   0.00000  Uiso   1.00
O364   O     0.54742   0.63098   0.35442   0.00000  Uiso   1.00
C365   C     0.56090   0.38184   0.30360   0.00000  Uiso   1.00
H366   H     0.55570   0.41256   0.32246   0.00000  Uiso   1.00
O367   O     0.59611   0.36684   0.30384   0.00000  Uiso   1.00
C368   C     0.43890   0.61836   0.19688   0.00000  Uiso   1.00
H369   H     0.44408   0.58742   0.17857   0.00000  Uiso   1.00
O370   O     0.40376   0.63361   0.19639   0.00000  Uiso   1.00
C371   C     0.75417   0.50000   0.25035   0.00000  Uiso   1.00
C372   C     0.91252   0.50000   0.25010   0.00000  Uiso   1.00
C373   C     0.75559   0.50210   0.01580   0.00000  Uiso   1.00
C374   C     0.90601   0.47424   0.48317   0.00000  Uiso   1.00
C375   C     0.68776   0.45840   0.24490   0.00000  Uiso   1.00
C376   C     0.97895   0.54156   0.25603   0.00000  Uiso   1.00
C377   C     0.97845   0.45844   0.24471   0.00000  Uiso   1.00
C378   C     0.68826   0.54153   0.25620   0.00000  Uiso   1.00
C379   C     0.95721   0.50000   0.25028   0.00000  Uiso   1.00
C380   C     0.70950   0.49997   0.25055   0.00000  Uiso   1.00
C381   C     0.80770   0.35827   0.22076   0.00000  Uiso   1.00
C382   C     0.85897   0.64175   0.27930   0.00000  Uiso   1.00
C383   C     0.86039   0.35789   0.27781   0.00000  Uiso   1.00
C384   C     0.80620   0.64219   0.22237   0.00000  Uiso   1.00
C385   C     0.83253   0.49999   0.16458   0.00000  Uiso   1.00
C386   C     0.83378   0.49988   0.33532   0.00000  Uiso   1.00
C387   C     0.87222   0.49554   0.40903   0.00000  Uiso   1.00
C388   C     0.79327   0.50664   0.09085   0.00000  Uiso   1.00
C389   C     0.83472   0.49916   0.38355   0.00000  Uiso   1.00
C390   C     0.83063   0.49921   0.11614   0.00000  Uiso   1.00
C391   C     0.79717   0.50142   0.40372   0.00000  Uiso   1.00
C392   C     0.86688   0.48855   0.09560   0.00000  Uiso   1.00
C393   C     0.79598   0.50081   0.44988   0.00000  Uiso   1.00
C394   C     0.86757   0.48722   0.04944   0.00000  Uiso   1.00
C395   C     0.83267   0.49446   0.47631   0.00000  Uiso   1.00
C396   C     0.83089   0.49435   0.02317   0.00000  Uiso   1.00
C397   C     0.87099   0.48814   0.45585   0.00000  Uiso   1.00
C398   C     0.79260   0.50116   0.04367   0.00000  Uiso   1.00
C399   C     0.75809   0.50410   0.46957   0.00000  Uiso   1.00
C400   C     0.90437   0.47657   0.02950   0.00000  Uiso   1.00
Cu401  Cu    0.83333   0.54689   0.25000   0.00000  Uiso   1.00
Cu402  Cu    0.83333   0.45311   0.25000   0.00000  Uiso   1.00
H403   H     0.76878   0.50455   0.38317   0.00000  Uiso   1.00
H404   H     0.89496   0.48215   0.11592   0.00000  Uiso   1.00
H405   H     0.72991   0.50600   0.44855   0.00000  Uiso   1.00
H406   H     0.93155   0.46761   0.05032   0.00000  Uiso   1.00
H407   H     0.70356   0.42591   0.24037   0.00000  Uiso   1.00
H408   H     0.96314   0.57405   0.26052   0.00000  Uiso   1.00
H409   H     0.96222   0.42601   0.23988   0.00000  Uiso   1.00
H410   H     0.70450   0.57396   0.26097   0.00000  Uiso   1.00
N411   N     0.83333   0.61736   0.25000   0.00000  Uiso   1.00
N412   N     0.83333   0.38264   0.25000   0.00000  Uiso   1.00
O413   O     0.77321   0.53958   0.25000   0.00000  Uiso   1.00
O414   O     0.89345   0.46042   0.25001   0.00000  Uiso   1.00
O415   O     0.89345   0.53958   0.25001   0.00000  Uiso   1.00
O416   O     0.77321   0.46042   0.25000   0.00000  Uiso   1.00
O417   O     0.83332   0.53960   0.18513   0.00000  Uiso   1.00
O418   O     0.83334   0.46040   0.31487   0.00000  Uiso   1.00
O419   O     0.83334   0.53960   0.31487   0.00000  Uiso   1.00
O420   O     0.83332   0.46040   0.18513   0.00000  Uiso   1.00
C421   C     0.91123   0.50572   0.38670   0.00000  Uiso   1.00
H422   H     0.91490   0.49534   0.35243   0.00000  Uiso   1.00
O423   O     0.93877   0.52800   0.40566   0.00000  Uiso   1.00
C424   C     0.75672   0.52417   0.11340   0.00000  Uiso   1.00
H425   H     0.73864   0.55234   0.09854   0.00000  Uiso   1.00
O426   O     0.74577   0.50648   0.14787   0.00000  Uiso   1.00
C427   C     0.71353   0.49560   0.03187   0.00000  Uiso   1.00
H428   H     0.68792   0.51522   0.01674   0.00000  Uiso   1.00
O429   O     0.70665   0.46602   0.05969   0.00000  Uiso   1.00
C430   C     0.94272   0.45094   0.46603   0.00000  Uiso   1.00
H431   H     0.97233   0.45351   0.48429   0.00000  Uiso   1.00
O432   O     0.93975   0.42614   0.43322   0.00000  Uiso   1.00
C433   C     0.78431   0.38263   0.18395   0.00000  Uiso   1.00
H434   H     0.76534   0.41226   0.18977   0.00000  Uiso   1.00
O435   O     0.78622   0.36919   0.14558   0.00000  Uiso   1.00
C436   C     0.88239   0.61739   0.31608   0.00000  Uiso   1.00
H437   H     0.90112   0.58757   0.31029   0.00000  Uiso   1.00
O438   O     0.88076   0.63098   0.35442   0.00000  Uiso   1.00
C439   C     0.89423   0.38184   0.30360   0.00000  Uiso   1.00
H440   H     0.88904   0.41256   0.32246   0.00000  Uiso   1.00
O441   O     0.92944   0.36684   0.30384   0.00000  Uiso   1.00
C442   C     0.77224   0.61836   0.19688   0.00000  Uiso   1.00
H443   H     0.77742   0.58742   0.17857   0.00000  Uiso   1.00
O444   O     0.73710   0.63361   0.19639   0.00000  Uiso   1.00
C445   C     0.08750   0.83333   0.25035   0.00000  Uiso   1.00
C446   C     0.24585   0.83333   0.25010   0.00000  Uiso   1.00
C447   C     0.08892   0.83543   0.01580   0.00000  Uiso   1.00
C448   C     0.23934   0.80757   0.48317   0.00000  Uiso   1.00
C449   C     0.02109   0.79174   0.24490   0.00000  Uiso   1.00
C450   C     0.31228   0.87489   0.25603   0.00000  Uiso   1.00
C451   C     0.31178   0.79177   0.24471   0.00000  Uiso   1.00
C452   C     0.02159   0.87486   0.25620   0.00000  Uiso   1.00
C453   C     0.29054   0.83333   0.25028   0.00000  Uiso   1.00
C454   C     0.04283   0.83330   0.25055   0.00000  Uiso   1.00
C455   C     0.14103   0.69161   0.22076   0.00000  Uiso   1.00
C456   C     0.19230   0.97509   0.27930   0.00000  Uiso   1.00
C457   C     0.19372   0.69122   0.27781   0.00000  Uiso   1.00
C458   C     0.13953   0.97552   0.22237   0.00000  Uiso   1.00
C459   C     0.16587   0.83333   0.16458   0.00000  Uiso   1.00
C460   C     0.16712   0.83321   0.33532   0.00000  Uiso   1.00
C461   C     0.20556   0.82888   0.40903   0.00000  Uiso   1.00
C462   C     0.12660   0.83998   0.09085   0.00000  Uiso   1.00
C463   C     0.16805   0.83249   0.38355   0.00000  Uiso   1.00
C464   C     0.16396   0.83254   0.11614   0.00000  Uiso   1.00
C465   C     0.13050   0.83476   0.40372   0.00000  Uiso   1.00
C466   C     0.20021   0.82188   0.09560   0.00000  Uiso   1.00
C467   C     0.12932   0.83414   0.44988   0.00000  Uiso   1.00
C468   C     0.20091   0.82056   0.04944   0.00000  Uiso   1.00
C469   C     0.16600   0.82780   0.47631   0.00000  Uiso   1.00
C470   C     0.16422   0.82768   0.02317   0.00000  Uiso   1.00
C471   C     0.20433   0.82147   0.45585   0.00000  Uiso   1.00
C472   C     0.12593   0.83450   0.04367   0.00000  Uiso   1.00
C473   C     0.09143   0.83743   0.46957   0.00000  Uiso   1.00
C474   C     0.23770   0.80990   0.02950   0.00000  Uiso   1.00
Cu475  Cu    0.16667   0.88022   0.25000   0.00000  Uiso   1.00
Cu476  Cu    0.16667   0.78645   0.25000   0.00000  Uiso   1.00
H477   H     0.10212   0.83788   0.38317   0.00000  Uiso   1.00
H478   H     0.22829   0.81548   0.11592   0.00000  Uiso   1.00
H479   H     0.06324   0.83934   0.44855   0.00000  Uiso   1.00
H480   H     0.26488   0.80095   0.05032   0.00000  Uiso   1.00
H481   H     0.03690   0.75924   0.24037   0.00000  Uiso   1.00
H482   H     0.29647   0.90738   0.26052   0.00000  Uiso   1.00
H483   H     0.29555   0.75934   0.23988   0.00000  Uiso   1.00
H484   H     0.03784   0.90729   0.26097   0.00000  Uiso   1.00
N485   N     0.16667   0.95069   0.25000   0.00000  Uiso   1.00
N486   N     0.16667   0.71598   0.25000   0.00000  Uiso   1.00
O487   O     0.10655   0.87291   0.25000   0.00000  Uiso   1.00
O488   O     0.22679   0.79375   0.25001   0.00000  Uiso   1.00
O489   O     0.22679   0.87291   0.25001   0.00000  Uiso   1.00
O490   O     0.10655   0.79375   0.25000   0.00000  Uiso   1.00
O491   O     0.16666   0.87293   0.18513   0.00000  Uiso   1.00
O492   O     0.16668   0.79373   0.31487   0.00000  Uiso   1.00
O493   O     0.16668   0.87293   0.31487   0.00000  Uiso   1.00
O494   O     0.16666   0.79373   0.18513   0.00000  Uiso   1.00
C495   C     0.24456   0.83906   0.38670   0.00000  Uiso   1.00
H496   H     0.24823   0.82867   0.35243   0.00000  Uiso   1.00
O497   O     0.27211   0.86133   0.40566   0.00000  Uiso   1.00
C498   C     0.09005   0.85751   0.11340   0.00000  Uiso   1.00
H499   H     0.07197   0.88568   0.09854   0.00000  Uiso   1.00
O500   O     0.07910   0.83982   0.14787   0.00000  Uiso   1.00
C501   C     0.04687   0.82894   0.03187   0.00000  Uiso   1.00
H502   H     0.02125   0.84855   0.01674   0.00000  Uiso   1.00
O503   O     0.03998   0.79935   0.05969   0.00000  Uiso   1.00
C504   C     0.27605   0.78427   0.46603   0.00000  Uiso   1.00
H505   H     0.30567   0.78684   0.48429   0.00000  Uiso   1.00
O506   O     0.27308   0.75947   0.43322   0.00000  Uiso   1.00
C507   C     0.11765   0.71596   0.18395   0.00000  Uiso   1.00
H508   H     0.09868   0.74560   0.18977   0.00000  Uiso   1.00
O509   O     0.11956   0.70252   0.14558   0.00000  Uiso   1.00
C510   C     0.21573   0.95072   0.31608   0.00000  Uiso   1.00
H511   H     0.23446   0.92090   0.31029   0.00000  Uiso   1.00
O512   O     0.21409   0.96432   0.35442   0.00000  Uiso   1.00
C513   C     0.22756   0.71517   0.30360   0.00000  Uiso   1.00
H514   H     0.22237   0.74590   0.32246   0.00000  Uiso   1.00
O515   O     0.26277   0.70018   0.30384   0.00000  Uiso   1.00
C516   C     0.10557   0.95169   0.19688   0.00000  Uiso   1.00
H517   H     0.11075   0.92075   0.17857   0.00000  Uiso   1.00
O518   O     0.07043   0.96694   0.19639   0.00000  Uiso   1.00
C519   C     0.42084   0.83333   0.25035   0.00000  Uiso   1.00
C520   C     0.57918   0.83333   0.25010   0.00000  Uiso   1.00
C521   C     0.42225   0.83543   0.01580   0.00000  Uiso   1.00
C522   C     0.57267   0.80757   0.48317   0.00000  Uiso   1.00
C523   C     0.35442   0.79174   0.24490   0.00000  Uiso   1.00
C524   C     0.64562   0.87489   0.25603   0.00000  Uiso   1.00
C525   C     0.64512   0.79177   0.24471   0.00000  Uiso   1.00
C526   C     0.35493   0.87486   0.25620   0.00000  Uiso   1.00
C527   C     0.62387   0.83333   0.25028   0.00000  Uiso   1.00
C528   C     0.37616   0.83330   0.25055   0.00000  Uiso   1.00
C529   C     0.47437   0.69161   0.22076   0.00000  Uiso   1.00
C530   C     0.52563   0.97509   0.27930   0.00000  Uiso   1.00
C531   C     0.52705   0.69122   0.27781   0.00000  Uiso   1.00
C532   C     0.47286   0.97552   0.22237   0.00000  Uiso   1.00
C533   C     0.49920   0.83333   0.16458   0.00000  Uiso   1.00
C534   C     0.50045   0.83321   0.33532   0.00000  Uiso   1.00
C535   C     0.53889   0.82888   0.40903   0.00000  Uiso   1.00
C536   C     0.45994   0.83998   0.09085   0.00000  Uiso   1.00
C537   C     0.50138   0.83249   0.38355   0.00000  Uiso   1.00
C538   C     0.49730   0.83254   0.11614   0.00000  Uiso   1.00
C539   C     0.46383   0.83476   0.40372   0.00000  Uiso   1.00
C540   C     0.53354   0.82188   0.09560   0.00000  Uiso   1.00
C541   C     0.46265   0.83414   0.44988   0.00000  Uiso   1.00
C542   C     0.53424   0.82056   0.04944   0.00000  Uiso   1.00
C543   C     0.49933   0.82780   0.47631   0.00000  Uiso   1.00
C544   C     0.49755   0.82768   0.02317   0.00000  Uiso   1.00
C545   C     0.53766   0.82147   0.45585   0.00000  Uiso   1.00
C546   C     0.45926   0.83450   0.04367   0.00000  Uiso   1.00
C547   C     0.42476   0.83743   0.46957   0.00000  Uiso   1.00
C548   C     0.57103   0.80990   0.02950   0.00000  Uiso   1.00
Cu549  Cu    0.50000   0.88022   0.25000   0.00000  Uiso   1.00
Cu550  Cu    0.50000   0.78645   0.25000   0.00000  Uiso   1.00
H551   H     0.43545   0.83788   0.38317   0.00000  Uiso   1.00
H552   H     0.56162   0.81548   0.11592   0.00000  Uiso   1.00
H553   H     0.39657   0.83934   0.44855   0.00000  Uiso   1.00
H554   H     0.59821   0.80095   0.05032   0.00000  Uiso   1.00
H555   H     0.37023   0.75924   0.24037   0.00000  Uiso   1.00
H556   H     0.62980   0.90738   0.26052   0.00000  Uiso   1.00
H557   H     0.62889   0.75934   0.23988   0.00000  Uiso   1.00
H558   H     0.37117   0.90729   0.26097   0.00000  Uiso   1.00
N559   N     0.50000   0.95069   0.25000   0.00000  Uiso   1.00
N560   N     0.50000   0.71598   0.25000   0.00000  Uiso   1.00
O561   O     0.43988   0.87291   0.25000   0.00000  Uiso   1.00
O562   O     0.56012   0.79375   0.25001   0.00000  Uiso   1.00
O563   O     0.56012   0.87291   0.25001   0.00000  Uiso   1.00
O564   O     0.43988   0.79375   0.25000   0.00000  Uiso   1.00
O565   O     0.49999   0.87293   0.18513   0.00000  Uiso   1.00
O566   O     0.50001   0.79373   0.31487   0.00000  Uiso   1.00
O567   O     0.50001   0.87293   0.31487   0.00000  Uiso   1.00
O568   O     0.49999   0.79373   0.18513   0.00000  Uiso   1.00
C569   C     0.57789   0.83906   0.38670   0.00000  Uiso   1.00
H570   H     0.58157   0.82867   0.35243   0.00000  Uiso   1.00
O571   O     0.60544   0.86133   0.40566   0.00000  Uiso   1.00
C572   C     0.42339   0.85751   0.11340   0.00000  Uiso   1.00
H573   H     0.40531   0.88568   0.09854   0.00000  Uiso   1.00
O574   O     0.41244   0.83982   0.14787   0.00000  Uiso   1.00
C575   C     0.38020   0.82894   0.03187   0.00000  Uiso   1.00
H576   H     0.35459   0.84855   0.01674   0.00000  Uiso   1.00
O577   O     0.37331   0.79935   0.05969   0.00000  Uiso   1.00
C578   C     0.60939   0.78427   0.46603   0.00000  Uiso   1.00
H579   H     0.63900   0.78684   0.48429   0.00000  Uiso   1.00
O580   O     0.60642   0.75947   0.43322   0.00000  Uiso   1.00
C581   C     0.45098   0.71596   0.18395   0.00000  Uiso   1.00
H582   H     0.43201   0.74560   0.18977   0.00000  Uiso   1.00
O583   O     0.45289   0.70252   0.14558   0.00000  Uiso   1.00
C584   C     0.54906   0.95072   0.31608   0.00000  Uiso   1.00
H585   H     0.56779   0.92090   0.31029   0.00000  Uiso   1.00
O586   O     0.54742   0.96432   0.35442   0.00000  Uiso   1.00
C587   C     0.56090   0.71517   0.30360   0.00000  Uiso   1.00
H588   H     0.55570   0.74590   0.32246   0.00000  Uiso   1.00
O589   O     0.59611   0.70018   0.30384   0.00000  Uiso   1.00
C590   C     0.43890   0.95169   0.19688   0.00000  Uiso   1.00
H591   H     0.44408   0.92075   0.17857   0.00000  Uiso   1.00
O592   O     0.40376   0.96694   0.19639   0.00000  Uiso   1.00
C593   C     0.75417   0.83333   0.25035   0.00000  Uiso   1.00
C594   C     0.91252   0.83333   0.25010   0.00000  Uiso   1.00
C595   C     0.75559   0.83543   0.01580   0.00000  Uiso   1.00
C596   C     0.90601   0.80757   0.48317   0.00000  Uiso   1.00
C597   C     0.68776   0.79174   0.24490   0.00000  Uiso   1.00
C598   C     0.97895   0.87489   0.25603   0.00000  Uiso   1.00
C599   C     0.97845   0.79177   0.24471   0.00000  Uiso   1.00
C600   C     0.68826   0.87486   0.25620   0.00000  Uiso   1.00
C601   C     0.95721   0.83333   0.25028   0.00000  Uiso   1.00
C602   C     0.70950   0.83330   0.25055   0.00000  Uiso   1.00
C603   C     0.80770   0.69161   0.22076   0.00000  Uiso   1.00
C604   C     0.85897   0.97509   0.27930   0.00000  Uiso   1.00
C605   C     0.86039   0.69122   0.27781   0.00000  Uiso   1.00
C606   C     0.80620   0.97552   0.22237   0.00000  Uiso   1.00
C607   C     0.83253   0.83333   0.16458   0.00000  Uiso   1.00
C608   C     0.83378   0.83321   0.33532   0.00000  Uiso   1.00
C609   C     0.87222   0.82888   0.40903   0.00000  Uiso   1.00
C610   C     0.79327   0.83998   0.09085   0.00000  Uiso   1.00
C611   C     0.83472   0.83249   0.38355   0.00000  Uiso   1.00
C612   C     0.83063   0.83254   0.11614   0.00000  Uiso   1.00
C613   C     0.79717   0.83476   0.40372   0.00000  Uiso   1.00
C614   C     0.86688   0.82188   0.09560   0.00000  Uiso   1.00
C615   C     0.79598   0.83414   0.44988   0.00000  Uiso   1.00
C616   C     0.86757   0.82056   0.04944   0.00000  Uiso   1.00
C617   C     0.83267   0.82780   0.47631   0.00000  Uiso   1.00
C618   C     0.83089   0.82768   0.02317   0.00000  Uiso   1.00
C619   C     0.87099   0.82147   0.45585   0.00000  Uiso   1.00
C620   C     0.79260   0.83450   0.04367   0.00000  Uiso   1.00
C621   C     0.75809   0.83743   0.46957   0.00000  Uiso   1.00
C622   C     0.90437   0.80990   0.02950   0.00000  Uiso   1.00
Cu623  Cu    0.83333   0.88022   0.25000   0.00000  Uiso   1.00
Cu624  Cu    0.83333   0.78645   0.25000   0.00000  Uiso   1.00
H625   H     0.76878   0.83788   0.38317   0.00000  Uiso   1.00
H626   H     0.89496   0.81548   0.11592   0.00000  Uiso   1.00
H627   H     0.72991   0.83934   0.44855   0.00000  Uiso   1.00
H628   H     0.93155   0.80095   0.05032   0.00000  Uiso   1.00
H629   H     0.70356   0.75924   0.24037   0.00000  Uiso   1.00
H630   H     0.96314   0.90738   0.26052   0.00000  Uiso   1.00
H631   H     0.96222   0.75934   0.23988   0.00000  Uiso   1.00
H632   H     0.70450   0.90729   0.26097   0.00000  Uiso   1.00
N633   N     0.83333   0.95069   0.25000   0.00000  Uiso   1.00
N634   N     0.83333   0.71598   0.25000   0.00000  Uiso   1.00
O635   O     0.77321   0.87291   0.25000   0.00000  Uiso   1.00
O636   O     0.89345   0.79375   0.25001   0.00000  Uiso   1.00
O637   O     0.89345   0.87291   0.25001   0.00000  Uiso   1.00
O638   O     0.77321   0.79375   0.25000   0.00000  Uiso   1.00
O639   O     0.83332   0.87293   0.18513   0.00000  Uiso   1.00
O640   O     0.83334   0.79373   0.31487   0.00000  Uiso   1.00
O641   O     0.83334   0.87293   0.31487   0.00000  Uiso   1.00
O642   O     0.83332   0.79373   0.18513   0.00000  Uiso   1.00
C643   C     0.91123   0.83906   0.38670   0.00000  Uiso   1.00
H644   H     0.91490   0.82867   0.35243   0.00000  Uiso   1.00
O645   O     0.93877   0.86133   0.40566   0.00000  Uiso   1.00
C646   C     0.75672   0.85751   0.11340   0.00000  Uiso   1.00
H647   H     0.73864   0.88568   0.09854   0.00000  Uiso   1.00
O648   O     0.74577   0.83982   0.14787   0.00000  Uiso   1.00
C649   C     0.71353   0.82894   0.03187   0.00000  Uiso   1.00
H650   H     0.68792   0.84855   0.01674   0.00000  Uiso   1.00
O651   O     0.70665   0.79935   0.05969   0.00000  Uiso   1.00
C652   C     0.94272   0.78427   0.46603   0.00000  Uiso   1.00
H653   H     0.97233   0.78684   0.48429   0.00000  Uiso   1.00
O654   O     0.93975   0.75947   0.43322   0.00000  Uiso   1.00
C655   C     0.78431   0.71596   0.18395   0.00000  Uiso   1.00
H656   H     0.76534   0.74560   0.18977   0.00000  Uiso   1.00
O657   O     0.78622   0.70252   0.14558   0.00000  Uiso   1.00
C658   C     0.88239   0.95072   0.31608   0.00000  Uiso   1.00
H659   H     0.90112   0.92090   0.31029   0.00000  Uiso   1.00
O660   O     0.88076   0.96432   0.35442   0.00000  Uiso   1.00
C661   C     0.89423   0.71517   0.30360   0.00000  Uiso   1.00
H662   H     0.88904   0.74590   0.32246   0.00000  Uiso   1.00
O663   O     0.92944   0.70018   0.30384   0.00000  Uiso   1.00
C664   C     0.77224   0.95169   0.19688   0.00000  Uiso   1.00
H665   H     0.77742   0.92075   0.17857   0.00000  Uiso   1.00
O666   O     0.73710   0.96694   0.19639   0.00000  Uiso   1.00
C667   C     0.08750   0.16666   0.75035   0.00000  Uiso   1.00
C668   C     0.24585   0.16666   0.75010   0.00000  Uiso   1.00
C669   C     0.08892   0.16877   0.51580   0.00000  Uiso   1.00
C670   C     0.23934   0.14091   0.98317   0.00000  Uiso   1.00
C671   C     0.02109   0.12507   0.74490   0.00000  Uiso   1.00
C672   C     0.31228   0.20822   0.75603   0.00000  Uiso   1.00
C673   C     0.31178   0.12510   0.74471   0.00000  Uiso   1.00
C674   C     0.02159   0.20819   0.75620   0.00000  Uiso   1.00
C675   C     0.29054   0.16667   0.75028   0.00000  Uiso   1.00
C676   C     0.04283   0.16664   0.75055   0.00000  Uiso   1.00
C677   C     0.14103   0.02494   0.72076   0.00000  Uiso   1.00
C678   C     0.19230   0.30842   0.77930   0.00000  Uiso   1.00
C679   C     0.19372   0.02456   0.77781   0.00000  Uiso   1.00
C680   C     0.13953   0.30886   0.72237   0.00000  Uiso   1.00
C681   C     0.16587   0.16666   0.66458   0.00000  Uiso   1.00
C682   C     0.16712   0.16655   0.83532   0.00000  Uiso   1.00
C683   C     0.20556   0.16221   0.90903   0.00000  Uiso   1.00
C684   C     0.12660   0.17331   0.59085   0.00000  Uiso   1.00
C685   C     0.16805   0.16583   0.88355   0.00000  Uiso   1.00
C686   C     0.16396   0.16587   0.61614   0.00000  Uiso   1.00
C687   C     0.13050   0.16809   0.90372   0.00000  Uiso   1.00
C688   C     0.20021   0.15522   0.59560   0.00000  Uiso   1.00
C689   C     0.12932   0.16747   0.94988   0.00000  Uiso   1.00
C690   C     0.20091   0.15389   0.54944   0.00000  Uiso   1.00
C691   C     0.16600   0.16113   0.97631   0.00000  Uiso   1.00
C692   C     0.16422   0.16101   0.52317   0.00000  Uiso   1.00
C693   C     0.20433   0.15481   0.95585   0.00000  Uiso   1.00
C694   C     0.12593   0.16783   0.54367   0.00000  Uiso   1.00
C695   C     0.09143   0.17077   0.96957   0.00000  Uiso   1.00
C696   C     0.23770   0.14324   0.52950   0.00000  Uiso   1.00
Cu697  Cu    0.16667   0.21355   0.75000   0.00000  Uiso   1.00
Cu698  Cu    0.16667   0.11978   0.75000   0.00000  Uiso   1.00
H699   H     0.10212   0.17121   0.88317   0.00000  Uiso   1.00
H700   H     0.22829   0.14881   0.61592   0.00000  Uiso   1.00
H701   H     0.06324   0.17267   0.94855   0.00000  Uiso   1.00
H702   H     0.26488   0.13428   0.55032   0.00000  Uiso   1.00
H703   H     0.03690   0.09258   0.74037   0.00000  Uiso   1.00
H704   H     0.29647   0.24072   0.76052   0.00000  Uiso   1.00
H705   H     0.29555   0.09267   0.73988   0.00000  Uiso   1.00
H706   H     0.03784   0.24063   0.76097   0.00000  Uiso   1.00
N707   N     0.16667   0.28402   0.75000   0.00000  Uiso   1.00
N708   N     0.16667   0.04931   0.75000   0.00000  Uiso   1.00
O709   O     0.10655   0.20625   0.75000   0.00000  Uiso   1.00
O710   O     0.22679   0.12709   0.75001   0.00000  Uiso   1.00
O711   O     0.22679   0.20625   0.75001   0.00000  Uiso   1.00
O712   O     0.10655   0.12709   0.75000   0.00000  Uiso   1.00
O713   O     0.16666   0.20627   0.68513   0.00000  Uiso   1.00
O714   O     0.16668   0.12707   0.81487   0.00000  Uiso   1.00
O715   O     0.16668   0.20627   0.81487   0.00000  Uiso   1.00
O716   O     0.16666   0.12707   0.68513   0.00000  Uiso   1.00
C717   C     0.24456   0.17239   0.88670   0.00000  Uiso   1.00
H718   H     0.24823   0.16200   0.85243   0.00000  Uiso   1.00
O719   O     0.27211   0.19466   0.90566   0.00000  Uiso   1.00
C720   C     0.09005   0.19084   0.61340   0.00000  Uiso   1.00
H721   H     0.07197   0.21901   0.59854   0.00000  Uiso   1.00
O722   O     0.07910   0.17315   0.64787   0.00000  Uiso   1.00
C723   C     0.04687   0.16227   0.53187   0.00000  Uiso   1.00
H724   H     0.02125   0.18189   0.51674   0.00000  Uiso   1.00
O725   O     0.03998   0.13269   0.55969   0.00000  Uiso   1.00
C726   C     0.27605   0.11761   0.96603   0.00000  Uiso   1.00
H727   H     0.30567   0.12018   0.98429   0.00000  Uiso   1.00
O728   O     0.27308   0.09281   0.93322   0.00000  Uiso   1.00
C729   C     0.11765   0.04929   0.68395   0.00000  Uiso   1.00
H730   H     0.09868   0.07893   0.68977   0.00000  Uiso   1.00
O731   O     0.11956   0.03586   0.64558   0.00000  Uiso   1.00
C732   C     0.21573   0.28406   0.81608   0.00000  Uiso   1.00
H733   H     0.23446   0.25424   0.81029   0.00000  Uiso   1.00
O734   O     0.21409   0.29765   0.85442   0.00000  Uiso   1.00
C735   C     0.22756   0.04851   0.80360   0.00000  Uiso   1.00
H736   H     0.22237   0.07923   0.82246   0.00000  Uiso   1.00
O737   O     0.26277   0.03351   0.80384   0.00000  Uiso   1.00
C738   C     0.10557   0.28503   0.69688   0.00000  Uiso   1.00
H739   H     0.11075   0.25408   0.67857   0.00000  Uiso   1.00
O740   O     0.07043   0.30027   0.69639   0.00000  Uiso   1.00
C741   C     0.42084   0.16666   0.75035   0.00000  Uiso   1.00
C742   C     0.57918   0.16666   0.75010   0.00000  Uiso   1.00
C743   C     0.42225   0.16877   0.51580   0.00000  Uiso   1.00
C744   C     0.57267   0.14091   0.98317   0.00000  Uiso   1.00
C745   C     0.35442   0.12507   0.74490   0.00000  Uiso   1.00
C746   C     0.64562   0.20822   0.75603   0.00000  Uiso   1.00
C747   C     0.64512   0.12510   0.74471   0.00000  Uiso   1.00
C748   C     0.35493   0.20819   0.75620   0.00000  Uiso   1.00
C749   C     0.62387   0.16667   0.75028   0.00000  Uiso   1.00
C750   C     0.37616   0.16664   0.75055   0.00000  Uiso   1.00
C751   C     0.47437   0.02494   0.72076   0.00000  Uiso   1.00
C752   C     0.52563   0.30842   0.77930   0.00000  Uiso   1.00
C753   C     0.52705   0.02456   0.77781   0.00000  Uiso   1.00
C754   C     0.47286   0.30886   0.72237   0.00000  Uiso   1.00
C755   C     0.49920   0.16666   0.66458   0.00000  Uiso   1.00
C756   C     0.50045   0.16655   0.83532   0.00000  Uiso   1.00
C757   C     0.53889   0.16221   0.90903   0.00000  Uiso   1.00
C758   C     0.45994   0.17331   0.59085   0.00000  Uiso   1.00
C759   C     0.50138   0.16583   0.88355   0.00000  Uiso   1.00
C760   C     0.49730   0.16587   0.61614   0.00000  Uiso   1.00
C761   C     0.46383   0.16809   0.90372   0.00000  Uiso   1.00
C762   C     0.53354   0.15522   0.59560   0.00000  Uiso   1.00
C763   C     0.46265   0.16747   0.94988   0.00000  Uiso   1.00
C764   C     0.53424   0.15389   0.54944   0.00000  Uiso   1.00
C765   C     0.49933   0.16113   0.97631   0.00000  Uiso   1.00
C766   C     0.49755   0.16101   0.52317   0.00000  Uiso   1.00
C767   C     0.53766   0.15481   0.95585   0.00000  Uiso   1.00
C768   C     0.45926   0.16783   0.54367   0.00000  Uiso   1.00
C769   C     0.42476   0.17077   0.96957   0.00000  Uiso   1.00
C770   C     0.57103   0.14324   0.52950   0.00000  Uiso   1.00
Cu771  Cu    0.50000   0.21355   0.75000   0.00000  Uiso   1.00
Cu772  Cu    0.50000   0.11978   0.75000   0.00000  Uiso   1.00
H773   H     0.43545   0.17121   0.88317   0.00000  Uiso   1.00
H774   H     0.56162   0.14881   0.61592   0.00000  Uiso   1.00
H775   H     0.39657   0.17267   0.94855   0.00000  Uiso   1.00
H776   H     0.59821   0.13428   0.55032   0.00000  Uiso   1.00
H777   H     0.37023   0.09258   0.74037   0.00000  Uiso   1.00
H778   H     0.62980   0.24072   0.76052   0.00000  Uiso   1.00
H779   H     0.62889   0.09267   0.73988   0.00000  Uiso   1.00
H780   H     0.37117   0.24063   0.76097   0.00000  Uiso   1.00
N781   N     0.50000   0.28402   0.75000   0.00000  Uiso   1.00
N782   N     0.50000   0.04931   0.75000   0.00000  Uiso   1.00
O783   O     0.43988   0.20625   0.75000   0.00000  Uiso   1.00
O784   O     0.56012   0.12709   0.75001   0.00000  Uiso   1.00
O785   O     0.56012   0.20625   0.75001   0.00000  Uiso   1.00
O786   O     0.43988   0.12709   0.75000   0.00000  Uiso   1.00
O787   O     0.49999   0.20627   0.68513   0.00000  Uiso   1.00
O788   O     0.50001   0.12707   0.81487   0.00000  Uiso   1.00
O789   O     0.50001   0.20627   0.81487   0.00000  Uiso   1.00
O790   O     0.49999   0.12707   0.68513   0.00000  Uiso   1.00
C791   C     0.57789   0.17239   0.88670   0.00000  Uiso   1.00
H792   H     0.58157   0.16200   0.85243   0.00000  Uiso   1.00
O793   O     0.60544   0.19466   0.90566   0.00000  Uiso   1.00
C794   C     0.42339   0.19084   0.61340   0.00000  Uiso   1.00
H795   H     0.40531   0.21901   0.59854   0.00000  Uiso   1.00
O796   O     0.41244   0.17315   0.64787   0.00000  Uiso   1.00
C797   C     0.38020   0.16227   0.53187   0.00000  Uiso   1.00
H798   H     0.35459   0.18189   0.51674   0.00000  Uiso   1.00
O799   O     0.37331   0.13269   0.55969   0.00000  Uiso   1.00
C800   C     0.60939   0.11761   0.96603   0.00000  Uiso   1.00
H801   H     0.63900   0.12018   0.98429   0.00000  Uiso   1.00
O802   O     0.60642   0.09281   0.93322   0.00000  Uiso   1.00
C803   C     0.45098   0.04929   0.68395   0.00000  Uiso   1.00
H804   H     0.43201   0.07893   0.68977   0.00000  Uiso   1.00
O805   O     0.45289   0.03586   0.64558   0.00000  Uiso   1.00
C806   C     0.54906   0.28406   0.81608   0.00000  Uiso   1.00
H807   H     0.56779   0.25424   0.81029   0.00000  Uiso   1.00
O808   O     0.54742   0.29765   0.85442   0.00000  Uiso   1.00
C809   C     0.56090   0.04851   0.80360   0.00000  Uiso   1.00
H810   H     0.55570   0.07923   0.82246   0.00000  Uiso   1.00
O811   O     0.59611   0.03351   0.80384   0.00000  Uiso   1.00
C812   C     0.43890   0.28503   0.69688   0.00000  Uiso   1.00
H813   H     0.44408   0.25408   0.67857   0.00000  Uiso   1.00
O814   O     0.40376   0.30027   0.69639   0.00000  Uiso   1.00
C815   C     0.75417   0.16666   0.75035   0.00000  Uiso   1.00
C816   C     0.91252   0.16666   0.75010   0.00000  Uiso   1.00
C817   C     0.75559   0.16877   0.51580   0.00000  Uiso   1.00
C818   C     0.90601   0.14091   0.98317   0.00000  Uiso   1.00
C819   C     0.68776   0.12507   0.74490   0.00000  Uiso   1.00
C820   C     0.97895   0.20822   0.75603   0.00000  Uiso   1.00
C821   C     0.97845   0.12510   0.74471   0.00000  Uiso   1.00
C822   C     0.68826   0.20819   0.75620   0.00000  Uiso   1.00
C823   C     0.95721   0.16667   0.75028   0.00000  Uiso   1.00
C824   C     0.70950   0.16664   0.75055   0.00000  Uiso   1.00
C825   C     0.80770   0.02494   0.72076   0.00000  Uiso   1.00
C826   C     0.85897   0.30842   0.77930   0.00000  Uiso   1.00
C827   C     0.86039   0.02456   0.77781   0.00000  Uiso   1.00
C828   C     0.80620   0.30886   0.72237   0.00000  Uiso   1.00
C829   C     0.83253   0.16666   0.66458   0.00000  Uiso   1.00
C830   C     0.83378   0.16655   0.83532   0.00000  Uiso   1.00
C831   C     0.87222   0.16221   0.90903   0.00000  Uiso   1.00
C832   C     0.79327   0.17331   0.59085   0.00000  Uiso   1.00
C833   C     0.83472   0.16583   0.88355   0.00000  Uiso   1.00
C834   C     0.83063   0.16587   0.61614   0.00000  Uiso   1.00
C835   C     0.79717   0.16809   0.90372   0.00000  Uiso   1.00
C836   C     0.86688   0.15522   0.59560   0.00000  Uiso   1.00
C837   C     0.79598   0.16747   0.94988   0.00000  Uiso   1.00
C838   C     0.86757   0.15389   0.54944   0.00000  Uiso   1.00
C839   C     0.83267   0.16113   0.97631   0.00000  Uiso   1.00
C840   C     0.83089   0.16101   0.52317   0.00000  Uiso   1.00
C841   C     0.87099   0.15481   0.95585   0.00000  Uiso   1.00
C842   C     0.79260   0.16783   0.54367   0.00000  Uiso   1.00
C843   C     0.75809   0.17077   0.96957   0.00000  Uiso   1.00
C844   C     0.90437   0.14324   0.52950   0.00000  Uiso   1.00
Cu845  Cu    0.83333   0.21355   0.75000   0.00000  Uiso   1.00
Cu846  Cu    0.83333   0.11978   0.75000   0.00000  Uiso   1.00
H847   H     0.76878   0.17121   0.88317   0.00000  Uiso   1.00
H848   H     0.89496   0.14881   0.61592   0.00000  Uiso   1.00
H849   H     0.72991   0.17267   0.94855   0.00000  Uiso   1.00
H850   H     0.93155   0.13428   0.55032   0.00000  Uiso   1.00
H851   H     0.70356   0.09258   0.74037   0.00000  Uiso   1.00
H852   H     0.96314   0.24072   0.76052   0.00000  Uiso   1.00
H853   H     0.96222   0.09267   0.73988   0.00000  Uiso   1.00
H854   H     0.70450   0.24063   0.76097   0.00000  Uiso   1.00
N855   N     0.83333   0.28402   0.75000   0.00000  Uiso   1.00
N856   N     0.83333   0.04931   0.75000   0.00000  Uiso   1.00
O857   O     0.77321   0.20625   0.75000   0.00000  Uiso   1.00
O858   O     0.89345   0.12709   0.75001   0.00000  Uiso   1.00
O859   O     0.89345   0.20625   0.75001   0.00000  Uiso   1.00
O860   O     0.77321   0.12709   0.75000   0.00000  Uiso   1.00
O861   O     0.83332   0.20627   0.68513   0.00000  Uiso   1.00
O862   O     0.83334   0.12707   0.81487   0.00000  Uiso   1.00
O863   O     0.83334   0.20627   0.81487   0.00000  Uiso   1.00
O864   O     0.83332   0.12707   0.68513   0.00000  Uiso   1.00
C865   C     0.91123   0.17239   0.88670   0.00000  Uiso   1.00
H866   H     0.91490   0.16200   0.85243   0.00000  Uiso   1.00
O867   O     0.93877   0.19466   0.90566   0.00000  Uiso   1.00
C868   C     0.75672   0.19084   0.61340   0.00000  Uiso   1.00
H869   H     0.73864   0.21901   0.59854   0.00000  Uiso   1.00
O870   O     0.74577   0.17315   0.64787   0.00000  Uiso   1.00
C871   C     0.71353   0.16227   0.53187   0.00000  Uiso   1.00
H872   H     0.68792   0.18189   0.51674   0.00000  Uiso   1.00
O873   O     0.70665   0.13269   0.55969   0.00000  Uiso   1.00
C874   C     0.94272   0.11761   0.96603   0.00000  Uiso   1.00
H875   H     0.97233   0.12018   0.98429   0.00000  Uiso   1.00
O876   O     0.93975   0.09281   0.93322   0.00000  Uiso   1.00
C877   C     0.78431   0.04929   0.68395   0.00000  Uiso   1.00
H878   H     0.76534   0.07893   0.68977   0.00000  Uiso   1.00
O879   O     0.78622   0.03586   0.64558   0.00000  Uiso   1.00
C880   C     0.88239   0.28406   0.81608   0.00000  Uiso   1.00
H881   H     0.90112   0.25424   0.81029   0.00000  Uiso   1.00
O882   O     0.88076   0.29765   0.85442   0.00000  Uiso   1.00
C883   C     0.89423   0.04851   0.80360   0.00000  Uiso   1.00
H884   H     0.88904   0.07923   0.82246   0.00000  Uiso   1.00
O885   O     0.92944   0.03351   0.80384   0.00000  Uiso   1.00
C886   C     0.77224   0.28503   0.69688   0.00000  Uiso   1.00
H887   H     0.77742   0.25408   0.67857   0.00000  Uiso   1.00
O888   O     0.73710   0.30027   0.69639   0.00000  Uiso   1.00
C889   C     0.08750   0.50000   0.75035   0.00000  Uiso   1.00
C890   C     0.24585   0.50000   0.75010   0.00000  Uiso   1.00
C891   C     0.08892   0.50210   0.51580   0.00000  Uiso   1.00
C892   C     0.23934   0.47424   0.98317   0.00000  Uiso   1.00
C893   C     0.02109   0.45840   0.74490   0.00000  Uiso   1.00
C894   C     0.31228   0.54156   0.75603   0.00000  Uiso   1.00
C895   C     0.31178   0.45844   0.74471   0.00000  Uiso   1.00
C896   C     0.02159   0.54153   0.75620   0.00000  Uiso   1.00
C897   C     0.29054   0.50000   0.75028   0.00000  Uiso   1.00
C898   C     0.04283   0.49997   0.75055   0.00000  Uiso   1.00
C899   C     0.14103   0.35827   0.72076   0.00000  Uiso   1.00
C900   C     0.19230   0.64175   0.77930   0.00000  Uiso   1.00
C901   C     0.19372   0.35789   0.77781   0.00000  Uiso   1.00
C902   C     0.13953   0.64219   0.72237   0.00000  Uiso   1.00
C903   C     0.16587   0.49999   0.66458   0.00000  Uiso   1.00
C904   C     0.16712   0.49988   0.83532   0.00000  Uiso   1.00
C905   C     0.20556   0.49554   0.90903   0.00000  Uiso   1.00
C906   C     0.12660   0.50664   0.59085   0.00000  Uiso   1.00
C907   C     0.16805   0.49916   0.88355   0.00000  Uiso   1.00
C908   C     0.16396   0.49921   0.61614   0.00000  Uiso   1.00
C909   C     0.13050   0.50142   0.90372   0.00000  Uiso   1.00
C910   C     0.20021   0.48855   0.59560   0.00000  Uiso   1.00
C911   C     0.12932   0.50081   0.94988   0.00000  Uiso   1.00
C912   C     0.20091   0.48722   0.54944   0.00000  Uiso   1.00
C913   C     0.16600   0.49446   0.97631   0.00000  Uiso   1.00
C914   C     0.16422   0.49435   0.52317   0.00000  Uiso   1.00
C915   C     0.20433   0.48814   0.95585   0.00000  Uiso   1.00
C916   C     0.12593   0.50116   0.54367   0.00000  Uiso   1.00
C917   C     0.09143   0.50410   0.96957   0.00000  Uiso   1.00
C918   C     0.23770   0.47657   0.52950   0.00000  Uiso   1.00
Cu919  Cu    0.16667   0.54689   0.75000   0.00000  Uiso   1.00
Cu920  Cu    0.16667   0.45311   0.75000   0.00000  Uiso   1.00
H921   H     0.10212   0.50455   0.88317   0.00000  Uiso   1.00
H922   H     0.22829   0.48215   0.61592   0.00000  Uiso   1.00
H923   H     0.06324   0.50600   0.94855   0.00000  Uiso   1.00
H924   H     0.26488   0.46761   0.55032   0.00000  Uiso   1.00
H925   H     0.03690   0.42591   0.74037   0.00000  Uiso   1.00
H926   H     0.29647   0.57405   0.76052   0.00000  Uiso   1.00
H927   H     0.29555   0.42601   0.73988   0.00000  Uiso   1.00
H928   H     0.03784   0.57396   0.76097   0.00000  Uiso   1.00
N929   N     0.16667   0.61736   0.75000   0.00000  Uiso   1.00
N930   N     0.16667   0.38264   0.75000   0.00000  Uiso   1.00
O931   O     0.10655   0.53958   0.75000   0.00000  Uiso   1.00
O932   O     0.22679   0.46042   0.75001   0.00000  Uiso   1.00
O933   O     0.22679   0.53958   0.75001   0.00000  Uiso   1.00
O934   O     0.10655   0.46042   0.75000   0.00000  Uiso   1.00
O935   O     0.16666   0.53960   0.68513   0.00000  Uiso   1.00
O936   O     0.16668   0.46040   0.81487   0.00000  Uiso   1.00
O937   O     0.16668   0.53960   0.81487   0.00000  Uiso   1.00
O938   O     0.16666   0.46040   0.68513   0.00000  Uiso   1.00
C939   C     0.24456   0.50572   0.88670   0.00000  Uiso   1.00
H940   H     0.24823   0.49534   0.85243   0.00000  Uiso   1.00
O941   O     0.27211   0.52800   0.90566   0.00000  Uiso   1.00
C942   C     0.09005   0.52417   0.61340   0.00000  Uiso   1.00
H943   H     0.07197   0.55234   0.59854   0.00000  Uiso   1.00
O944   O     0.07910   0.50648   0.64787   0.00000  Uiso   1.00
C945   C     0.04687   0.49560   0.53187   0.00000  Uiso   1.00
H946   H     0.02125   0.51522   0.51674   0.00000  Uiso   1.00
O947   O     0.03998   0.46602   0.55969   0.00000  Uiso   1.00
C948   C     0.27605   0.45094   0.96603   0.00000  Uiso   1.00
H949   H     0.30567   0.45351   0.98429   0.00000  Uiso   1.00
O950   O     0.27308   0.42614   0.93322   0.00000  Uiso   1.00
C951   C     0.11765   0.38263   0.68395   0.00000  Uiso   1.00
H952   H     0.09868   0.41226   0.68977   0.00000  Uiso   1.00
O953   O     0.11956   0.36919   0.64558   0.00000  Uiso   1.00
C954   C     0.21573   0.61739   0.81608   0.00000  Uiso   1.00
H955   H     0.23446   0.58757   0.81029   0.00000  Uiso   1.00
O956   O     0.21409   0.63098   0.85442   0.00000  Uiso   1.00
C957   C     0.22756   0.38184   0.80360   0.00000  Uiso   1.00
H958   H     0.22237   0.41256   0.82246   0.00000  Uiso   1.00
O959   O     0.26277   0.36684   0.80384   0.00000  Uiso   1.00
C960   C     0.10557   0.61836   0.69688   0.00000  Uiso   1.00
H961   H     0.11075   0.58742   0.67857   0.00000  Uiso   1.00
O962   O     0.07043   0.63361   0.69639   0.00000  Uiso   1.00
C963   C     0.42084   0.50000   0.75035   0.00000  Uiso   1.00
C964   C     0.57918   0.50000   0.75010   0.00000  Uiso   1.00
C965   C     0.42225   0.50210   0.51580   0.00000  Uiso   1.00
C966   C     0.57267   0.47424   0.98317   0.00000  Uiso   1.00
C967   C     0.35442   0.45840   0.74490   0.00000  Uiso   1.00
C968   C     0.64562   0.54156   0.75603   0.00000  Uiso   1.00
C969   C     0.64512   0.45844   0.74471   0.00000  Uiso   1.00
C970   C     0.35493   0.54153   0.75620   0.00000  Uiso   1.00
C971   C     0.62387   0.50000   0.75028   0.00000  Uiso   1.00
C972   C     0.37616   0.49997   0.75055   0.00000  Uiso   1.00
C973   C     0.47437   0.35827   0.72076   0.00000  Uiso   1.00
C974   C     0.52563   0.64175   0.77930   0.00000  Uiso   1.00
C975   C     0.52705   0.35789   0.77781   0.00000  Uiso   1.00
C976   C     0.47286   0.64219   0.72237   0.00000  Uiso   1.00
C977   C     0.49920   0.49999   0.66458   0.00000  Uiso   1.00
C978   C     0.50045   0.49988   0.83532   0.00000  Uiso   1.00
C979   C     0.53889   0.49554   0.90903   0.00000  Uiso   1.00
C980   C     0.45994   0.50664   0.59085   0.00000  Uiso   1.00
C981   C     0.50138   0.49916   0.88355   0.00000  Uiso   1.00
C982   C     0.49730   0.49921   0.61614   0.00000  Uiso   1.00
C983   C     0.46383   0.50142   0.90372   0.00000  Uiso   1.00
C984   C     0.53354   0.48855   0.59560   0.00000  Uiso   1.00
C985   C     0.46265   0.50081   0.94988   0.00000  Uiso   1.00
C986   C     0.53424   0.48722   0.54944   0.00000  Uiso   1.00
C987   C     0.49933   0.49446   0.97631   0.00000  Uiso   1.00
C988   C     0.49755   0.49435   0.52317   0.00000  Uiso   1.00
C989   C     0.53766   0.48814   0.95585   0.00000  Uiso   1.00
C990   C     0.45926   0.50116   0.54367   0.00000  Uiso   1.00
C991   C     0.42476   0.50410   0.96957   0.00000  Uiso   1.00
C992   C     0.57103   0.47657   0.52950   0.00000  Uiso   1.00
Cu993  Cu    0.50000   0.54689   0.75000   0.00000  Uiso   1.00
Cu994  Cu    0.50000   0.45311   0.75000   0.00000  Uiso   1.00
H995   H     0.43545   0.50455   0.88317   0.00000  Uiso   1.00
H996   H     0.56162   0.48215   0.61592   0.00000  Uiso   1.00
H997   H     0.39657   0.50600   0.94855   0.00000  Uiso   1.00
H998   H     0.59821   0.46761   0.55032   0.00000  Uiso   1.00
H999   H     0.37023   0.42591   0.74037   0.00000  Uiso   1.00
H1000  H     0.62980   0.57405   0.76052   0.00000  Uiso   1.00
H1001  H     0.62889   0.42601   0.73988   0.00000  Uiso   1.00
H1002  H     0.37117   0.57396   0.76097   0.00000  Uiso   1.00
N1003  N     0.50000   0.61736   0.75000   0.00000  Uiso   1.00
N1004  N     0.50000   0.38264   0.75000   0.00000  Uiso   1.00
O1005  O     0.43988   0.53958   0.75000   0.00000  Uiso   1.00
O1006  O     0.56012   0.46042   0.75001   0.00000  Uiso   1.00
O1007  O     0.56012   0.53958   0.75001   0.00000  Uiso   1.00
O1008  O     0.43988   0.46042   0.75000   0.00000  Uiso   1.00
O1009  O     0.49999   0.53960   0.68513   0.00000  Uiso   1.00
O1010  O     0.50001   0.46040   0.81487   0.00000  Uiso   1.00
O1011  O     0.50001   0.53960   0.81487   0.00000  Uiso   1.00
O1012  O     0.49999   0.46040   0.68513   0.00000  Uiso   1.00
C1013  C     0.57789   0.50572   0.88670   0.00000  Uiso   1.00
H1014  H     0.58157   0.49534   0.85243   0.00000  Uiso   1.00
O1015  O     0.60544   0.52800   0.90566   0.00000  Uiso   1.00
C1016  C     0.42339   0.52417   0.61340   0.00000  Uiso   1.00
H1017  H     0.40531   0.55234   0.59854   0.00000  Uiso   1.00
O1018  O     0.41244   0.50648   0.64787   0.00000  Uiso   1.00
C1019  C     0.38020   0.49560   0.53187   0.00000  Uiso   1.00
H1020  H     0.35459   0.51522   0.51674   0.00000  Uiso   1.00
O1021  O     0.37331   0.46602   0.55969   0.00000  Uiso   1.00
C1022  C     0.60939   0.45094   0.96603   0.00000  Uiso   1.00
H1023  H     0.63900   0.45351   0.98429   0.00000  Uiso   1.00
O1024  O     0.60642   0.42614   0.93322   0.00000  Uiso   1.00
C1025  C     0.45098   0.38263   0.68395   0.00000  Uiso   1.00
H1026  H     0.43201   0.41226   0.68977   0.00000  Uiso   1.00
O1027  O     0.45289   0.36919   0.64558   0.00000  Uiso   1.00
C1028  C     0.54906   0.61739   0.81608   0.00000  Uiso   1.00
H1029  H     0.56779   0.58757   0.81029   0.00000  Uiso   1.00
O1030  O     0.54742   0.63098   0.85442   0.00000  Uiso   1.00
C1031  C     0.56090   0.38184   0.80360   0.00000  Uiso   1.00
H1032  H     0.55570   0.41256   0.82246   0.00000  Uiso   1.00
O1033  O     0.59611   0.36684   0.80384   0.00000  Uiso   1.00
C1034  C     0.43890   0.61836   0.69688   0.00000  Uiso   1.00
H1035  H     0.44408   0.58742   0.67857   0.00000  Uiso   1.00
O1036  O     0.40376   0.63361   0.69639   0.00000  Uiso   1.00
C1037  C     0.75417   0.50000   0.75035   0.00000  Uiso   1.00
C1038  C     0.91252   0.50000   0.75010   0.00000  Uiso   1.00
C1039  C     0.75559   0.50210   0.51580   0.00000  Uiso   1.00
C1040  C     0.90601   0.47424   0.98317   0.00000  Uiso   1.00
C1041  C     0.68776   0.45840   0.74490   0.00000  Uiso   1.00
C1042  C     0.97895   0.54156   0.75603   0.00000  Uiso   1.00
C1043  C     0.97845   0.45844   0.74471   0.00000  Uiso   1.00
C1044  C     0.68826   0.54153   0.75620   0.00000  Uiso   1.00
C1045  C     0.95721   0.50000   0.75028   0.00000  Uiso   1.00
C1046  C     0.70950   0.49997   0.75055   0.00000  Uiso   1.00
C1047  C     0.80770   0.35827   0.72076   0.00000  Uiso   1.00
C1048  C     0.85897   0.64175   0.77930   0.00000  Uiso   1.00
C1049  C     0.86039   0.35789   0.77781   0.00000  Uiso   1.00
C1050  C     0.80620   0.64219   0.72237   0.00000  Uiso   1.00
C1051  C     0.83253   0.49999   0.66458   0.00000  Uiso   1.00
C1052  C     0.83378   0.49988   0.83532   0.00000  Uiso   1.00
C1053  C     0.87222   0.49554   0.90903   0.00000  Uiso   1.00
C1054  C     0.79327   0.50664   0.59085   0.00000  Uiso   1.00
C1055  C     0.83472   0.49916   0.88355   0.00000  Uiso   1.00
C1056  C     0.83063   0.49921   0.61614   0.00000  Uiso   1.00
C1057  C     0.79717   0.50142   0.90372   0.00000  Uiso   1.00
C1058  C     0.86688   0.48855   0.59560   0.00000  Uiso   1.00
C1059  C     0.79598   0.50081   0.94988   0.00000  Uiso   1.00
C1060  C     0.86757   0.48722   0.54944   0.00000  Uiso   1.00
C1061  C     0.83267   0.49446   0.97631   0.00000  Uiso   1.00
C1062  C     0.83089   0.49435   0.52317   0.00000  Uiso   1.00
C1063  C     0.87099   0.48814   0.95585   0.00000  Uiso   1.00
C1064  C     0.79260   0.50116   0.54367   0.00000  Uiso   1.00
C1065  C     0.75809   0.50410   0.96957   0.00000  Uiso   1.00
C1066  C     0.90437   0.47657   0.52950   0.00000  Uiso   1.00
Cu1067 Cu    0.83333   0.54689   0.75000   0.00000  Uiso   1.00
Cu1068 Cu    0.83333   0.45311   0.75000   0.00000  Uiso   1.00
H1069  H     0.76878   0.50455   0.88317   0.00000  Uiso   1.00
H1070  H     0.89496   0.48215   0.61592   0.00000  Uiso   1.00
H1071  H     0.72991   0.50600   0.94855   0.00000  Uiso   1.00
H1072  H     0.93155   0.46761   0.55032   0.00000  Uiso   1.00
H1073  H     0.70356   0.42591   0.74037   0.00000  Uiso   1.00
H1074  H     0.96314   0.57405   0.76052   0.00000  Uiso   1.00
H1075  H     0.96222   0.42601   0.73988   0.00000  Uiso   1.00
H1076  H     0.70450   0.57396   0.76097   0.00000  Uiso   1.00
N1077  N     0.83333   0.61736   0.75000   0.00000  Uiso   1.00
N1078  N     0.83333   0.38264   0.75000   0.00000  Uiso   1.00
O1079  O     0.77321   0.53958   0.75000   0.00000  Uiso   1.00
O1080  O     0.89345   0.46042   0.75001   0.00000  Uiso   1.00
O1081  O     0.89345   0.53958   0.75001   0.00000  Uiso   1.00
O1082  O     0.77321   0.46042   0.75000   0.00000  Uiso   1.00
O1083  O     0.83332   0.53960   0.68513   0.00000  Uiso   1.00
O1084  O     0.83334   0.46040   0.81487   0.00000  Uiso   1.00
O1085  O     0.83334   0.53960   0.81487   0.00000  Uiso   1.00
O1086  O     0.83332   0.46040   0.68513   0.00000  Uiso   1.00
C1087  C     0.91123   0.50572   0.88670   0.00000  Uiso   1.00
H1088  H     0.91490   0.49534   0.85243   0.00000  Uiso   1.00
O1089  O     0.93877   0.52800   0.90566   0.00000  Uiso   1.00
C1090  C     0.75672   0.52417   0.61340   0.00000  Uiso   1.00
H1091  H     0.73864   0.55234   0.59854   0.00000  Uiso   1.00
O1092  O     0.74577   0.50648   0.64787   0.00000  Uiso   1.00
C1093  C     0.71353   0.49560   0.53187   0.00000  Uiso   1.00
H1094  H     0.68792   0.51522   0.51674   0.00000  Uiso   1.00
O1095  O     0.70665   0.46602   0.55969   0.00000  Uiso   1.00
C1096  C     0.94272   0.45094   0.96603   0.00000  Uiso   1.00
H1097  H     0.97233   0.45351   0.98429   0.00000  Uiso   1.00
O1098  O     0.93975   0.42614   0.93322   0.00000  Uiso   1.00
C1099  C     0.78431   0.38263   0.68395   0.00000  Uiso   1.00
H1100  H     0.76534   0.41226   0.68977   0.00000  Uiso   1.00
O1101  O     0.78622   0.36919   0.64558   0.00000  Uiso   1.00
C1102  C     0.88239   0.61739   0.81608   0.00000  Uiso   1.00
H1103  H     0.90112   0.58757   0.81029   0.00000  Uiso   1.00
O1104  O     0.88076   0.63098   0.85442   0.00000  Uiso   1.00
C1105  C     0.89423   0.38184   0.80360   0.00000  Uiso   1.00
H1106  H     0.88904   0.41256   0.82246   0.00000  Uiso   1.00
O1107  O     0.92944   0.36684   0.80384   0.00000  Uiso   1.00
C1108  C     0.77224   0.61836   0.69688   0.00000  Uiso   1.00
H1109  H     0.77742   0.58742   0.67857   0.00000  Uiso   1.00
O1110  O     0.73710   0.63361   0.69639   0.00000  Uiso   1.00
C1111  C     0.08750   0.83333   0.75035   0.00000  Uiso   1.00
C1112  C     0.24585   0.83333   0.75010   0.00000  Uiso   1.00
C1113  C     0.08892   0.83543   0.51580   0.00000  Uiso   1.00
C1114  C     0.23934   0.80757   0.98317   0.00000  Uiso   1.00
C1115  C     0.02109   0.79174   0.74490   0.00000  Uiso   1.00
C1116  C     0.31228   0.87489   0.75603   0.00000  Uiso   1.00
C1117  C     0.31178   0.79177   0.74471   0.00000  Uiso   1.00
C1118  C     0.02159   0.87486   0.75620   0.00000  Uiso   1.00
C1119  C     0.29054   0.83333   0.75028   0.00000  Uiso   1.00
C1120  C     0.04283   0.83330   0.75055   0.00000  Uiso   1.00
C1121  C     0.14103   0.69161   0.72076   0.00000  Uiso   1.00
C1122  C     0.19230   0.97509   0.77930   0.00000  Uiso   1.00
C1123  C     0.19372   0.69122   0.77781   0.00000  Uiso   1.00
C1124  C     0.13953   0.97552   0.72237   0.00000  Uiso   1.00
C1125  C     0.16587   0.83333   0.66458   0.00000  Uiso   1.00
C1126  C     0.16712   0.83321   0.83532   0.00000  Uiso   1.00
C1127  C     0.20556   0.82888   0.90903   0.00000  Uiso   1.00
C1128  C     0.12660   0.83998   0.59085   0.00000  Uiso   1.00
C1129  C     0.16805   0.83249   0.88355   0.00000  Uiso   1.00
C1130  C     0.16396   0.83254   0.61614   0.00000  Uiso   1.00
C1131  C     0.13050   0.83476   0.90372   0.00000  Uiso   1.00
C1132  C     0.20021   0.82188   0.59560   0.00000  Uiso   1.00
C1133  C     0.12932   0.83414   0.94988   0.00000  Uiso   1.00
C1134  C     0.20091   0.82056   0.54944   0.00000  Uiso   1.00
C1135  C     0.16600   0.82780   0.97631   0.00000  Uiso   1.00
C1136  C     0.16422   0.82768   0.52317   0.00000  Uiso   1.00
C1137  C     0.20433   0.82147   0.95585   0.00000  Uiso   1.00
C1138  C     0.12593   0.83450   0.54367   0.00000  Uiso   1.00
C1139  C     0.09143   0.83743   0.96957   0.00000  Uiso   1.00
C1140  C     0.23770   0.80990   0.52950   0.00000  Uiso   1.00
Cu1141 Cu    0.16667   0.88022   0.75000   0.00000  Uiso   1.00
Cu1142 Cu    0.16667   0.78645   0.75000   0.00000  Uiso   1.00
H1143  H     0.10212   0.83788   0.88317   0.00000  Uiso   1.00
H1144  H     0.22829   0.81548   0.61592   0.00000  Uiso   1.00
H1145  H     0.06324   0.83934   0.94855   0.00000  Uiso   1.00
H1146  H     0.26488   0.80095   0.55032   0.00000  Uiso   1.00
H1147  H     0.03690   0.75924   0.74037   0.00000  Uiso   1.00
H1148  H     0.29647   0.90738   0.76052   0.00000  Uiso   1.00
H1149  H     0.29555   0.75934   0.73988   0.00000  Uiso   1.00
H1150  H     0.03784   0.90729   0.76097   0.00000  Uiso   1.00
N1151  N     0.16667   0.95069   0.75000   0.00000  Uiso   1.00
N1152  N     0.16667   0.71598   0.75000   0.00000  Uiso   1.00
O1153  O     0.10655   0.87291   0.75000   0.00000  Uiso   1.00
O1154  O     0.22679   0.79375   0.75001   0.00000  Uiso   1.00
O1155  O     0.22679   0.87291   0.75001   0.00000  Uiso   1.00
O1156  O     0.10655   0.79375   0.75000   0.00000  Uiso   1.00
O1157  O     0.16666   0.87293   0.68513   0.00000  Uiso   1.00
O1158  O     0.16668   0.79373   0.81487   0.00000  Uiso   1.00
O1159  O     0.16668   0.87293   0.81487   0.00000  Uiso   1.00
O1160  O     0.16666   0.79373   0.68513   0.00000  Uiso   1.00
C1161  C     0.24456   0.83906   0.88670   0.00000  Uiso   1.00
H1162  H     0.24823   0.82867   0.85243   0.00000  Uiso   1.00
O1163  O     0.27211   0.86133   0.90566   0.00000  Uiso   1.00
C1164  C     0.09005   0.85751   0.61340   0.00000  Uiso   1.00
H1165  H     0.07197   0.88568   0.59854   0.00000  Uiso   1.00
O1166  O     0.07910   0.83982   0.64787   0.00000  Uiso   1.00
C1167  C     0.04687   0.82894   0.53187   0.00000  Uiso   1.00
H1168  H     0.02125   0.84855   0.51674   0.00000  Uiso   1.00
O1169  O     0.03998   0.79935   0.55969   0.00000  Uiso   1.00
C1170  C     0.27605   0.78427   0.96603   0.00000  Uiso   1.00
H1171  H     0.30567   0.78684   0.98429   0.00000  Uiso   1.00
O1172  O     0.27308   0.75947   0.93322   0.00000  Uiso   1.00
C1173  C     0.11765   0.71596   0.68395   0.00000  Uiso   1.00
H1174  H     0.09868   0.74560   0.68977   0.00000  Uiso   1.00
O1175  O     0.11956   0.70252   0.64558   0.00000  Uiso   1.00
C1176  C     0.21573   0.95072   0.81608   0.00000  Uiso   1.00
H1177  H     0.23446   0.92090   0.81029   0.00000  Uiso   1.00
O1178  O     0.21409   0.96432   0.85442   0.00000  Uiso   1.00
C1179  C     0.22756   0.71517   0.80360   0.00000  Uiso   1.00
H1180  H     0.22237   0.74590   0.82246   0.00000  Uiso   1.00
O1181  O     0.26277   0.70018   0.80384   0.00000  Uiso   1.00
C1182  C     0.10557   0.95169   0.69688   0.00000  Uiso   1.00
H1183  H     0.11075   0.92075   0.67857   0.00000  Uiso   1.00
O1184  O     0.07043   0.96694   0.69639   0.00000  Uiso   1.00
C1185  C     0.42084   0.83333   0.75035   0.00000  Uiso   1.00
C1186  C     0.57918   0.83333   0.75010   0.00000  Uiso   1.00
C1187  C     0.42225   0.83543   0.51580   0.00000  Uiso   1.00
C1188  C     0.57267   0.80757   0.98317   0.00000  Uiso   1.00
C1189  C     0.35442   0.79174   0.74490   0.00000  Uiso   1.00
C1190  C     0.64562   0.87489   0.75603   0.00000  Uiso   1.00
C1191  C     0.64512   0.79177   0.74471   0.00000  Uiso   1.00
C1192  C     0.35493   0.87486   0.75620   0.00000  Uiso   1.00
C1193  C     0.62387   0.83333   0.75028   0.00000  Uiso   1.00
C1194  C     0.37616   0.83330   0.75055   0.00000  Uiso   1.00
C1195  C     0.47437   0.69161   0.72076   0.00000  Uiso   1.00
C1196  C     0.52563   0.97509   0.77930   0.00000  Uiso   1.00
C1197  C     0.52705   0.69122   0.77781   0.00000  Uiso   1.00
C1198  C     0.47286   0.97552   0.72237   0.00000  Uiso   1.00
C1199  C     0.49920   0.83333   0.66458   0.00000  Uiso   1.00
C1200  C     0.50045   0.83321   0.83532   0.00000  Uiso   1.00
C1201  C     0.53889   0.82888   0.90903   0.00000  Uiso   1.00
C1202  C     0.45994   0.83998   0.59085   0.00000  Uiso   1.00
C1203  C     0.50138   0.83249   0.88355   0.00000  Uiso   1.00
C1204  C     0.49730   0.83254   0.61614   0.00000  Uiso   1.00
C1205  C     0.46383   0.83476   0.90372   0.00000  Uiso   1.00
C1206  C     0.53354   0.82188   0.59560   0.00000  Uiso   1.00
C1207  C     0.46265   0.83414   0.94988   0.00000  Uiso   1.00
C1208  C     0.53424   0.82056   0.54944   0.00000  Uiso   1.00
C1209  C     0.49933   0.82780   0.97631   0.00000  Uiso   1.00
C1210  C     0.49755   0.82768   0.52317   0.00000  Uiso   1.00
C1211  C     0.53766   0.82147   0.95585   0.00000  Uiso   1.00
C1212  C     0.45926   0.83450   0.54367   0.00000  Uiso   1.00
C1213  C     0.42476   0.83743   0.96957   0.00000  Uiso   1.00
C1214  C     0.57103   0.80990   0.52950   0.00000  Uiso   1.00
Cu1215 Cu    0.50000   0.88022   0.75000   0.00000  Uiso   1.00
Cu1216 Cu    0.50000   0.78645   0.75000   0.00000  Uiso   1.00
H1217  H     0.43545   0.83788   0.88317   0.00000  Uiso   1.00
H1218  H     0.56162   0.81548   0.61592   0.00000  Uiso   1.00
H1219  H     0.39657   0.83934   0.94855   0.00000  Uiso   1.00
H1220  H     0.59821   0.80095   0.55032   0.00000  Uiso   1.00
H1221  H     0.37023   0.75924   0.74037   0.00000  Uiso   1.00
H1222  H     0.62980   0.90738   0.76052   0.00000  Uiso   1.00
H1223  H     0.62889   0.75934   0.73988   0.00000  Uiso   1.00
H1224  H     0.37117   0.90729   0.76097   0.00000  Uiso   1.00
N1225  N     0.50000   0.95069   0.75000   0.00000  Uiso   1.00
N1226  N     0.50000   0.71598   0.75000   0.00000  Uiso   1.00
O1227  O     0.43988   0.87291   0.75000   0.00000  Uiso   1.00
O1228  O     0.56012   0.79375   0.75001   0.00000  Uiso   1.00
O1229  O     0.56012   0.87291   0.75001   0.00000  Uiso   1.00
O1230  O     0.43988   0.79375   0.75000   0.00000  Uiso   1.00
O1231  O     0.49999   0.87293   0.68513   0.00000  Uiso   1.00
O1232  O     0.50001   0.79373   0.81487   0.00000  Uiso   1.00
O1233  O     0.50001   0.87293   0.81487   0.00000  Uiso   1.00
O1234  O     0.49999   0.79373   0.68513   0.00000  Uiso   1.00
C1235  C     0.57789   0.83906   0.88670   0.00000  Uiso   1.00
H1236  H     0.58157   0.82867   0.85243   0.00000  Uiso   1.00
O1237  O     0.60544   0.86133   0.90566   0.00000  Uiso   1.00
C1238  C     0.42339   0.85751   0.61340   0.00000  Uiso   1.00
H1239  H     0.40531   0.88568   0.59854   0.00000  Uiso   1.00
O1240  O     0.41244   0.83982   0.64787   0.00000  Uiso   1.00
C1241  C     0.38020   0.82894   0.53187   0.00000  Uiso   1.00
H1242  H     0.35459   0.84855   0.51674   0.00000  Uiso   1.00
O1243  O     0.37331   0.79935   0.55969   0.00000  Uiso   1.00
C1244  C     0.60939   0.78427   0.96603   0.00000  Uiso   1.00
H1245  H     0.63900   0.78684   0.98429   0.00000  Uiso   1.00
O1246  O     0.60642   0.75947   0.93322   0.00000  Uiso   1.00
C1247  C     0.45098   0.71596   0.68395   0.00000  Uiso   1.00
H1248  H     0.43201   0.74560   0.68977   0.00000  Uiso   1.00
O1249  O     0.45289   0.70252   0.64558   0.00000  Uiso   1.00
C1250  C     0.54906   0.95072   0.81608   0.00000  Uiso   1.00
H1251  H     0.56779   0.92090   0.81029   0.00000  Uiso   1.00
O1252  O     0.54742   0.96432   0.85442   0.00000  Uiso   1.00
C1253  C     0.56090   0.71517   0.80360   0.00000  Uiso   1.00
H1254  H     0.55570   0.74590   0.82246   0.00000  Uiso   1.00
O1255  O     0.59611   0.70018   0.80384   0.00000  Uiso   1.00
C1256  C     0.43890   0.95169   0.69688   0.00000  Uiso   1.00
H1257  H     0.44408   0.92075   0.67857   0.00000  Uiso   1.00
O1258  O     0.40376   0.96694   0.69639   0.00000  Uiso   1.00
C1259  C     0.75417   0.83333   0.75035   0.00000  Uiso   1.00
C1260  C     0.91252   0.83333   0.75010   0.00000  Uiso   1.00
C1261  C     0.75559   0.83543   0.51580   0.00000  Uiso   1.00
C1262  C     0.90601   0.80757   0.98317   0.00000  Uiso   1.00
C1263  C     0.68776   0.79174   0.74490   0.00000  Uiso   1.00
C1264  C     0.97895   0.87489   0.75603   0.00000  Uiso   1.00
C1265  C     0.97845   0.79177   0.74471   0.00000  Uiso   1.00
C1266  C     0.68826   0.87486   0.75620   0.00000  Uiso   1.00
C1267  C     0.95721   0.83333   0.75028   0.00000  Uiso   1.00
C1268  C     0.70950   0.83330   0.75055   0.00000  Uiso   1.00
C1269  C     0.80770   0.69161   0.72076   0.00000  Uiso   1.00
C1270  C     0.85897   0.97509   0.77930   0.00000  Uiso   1.00
C1271  C     0.86039   0.69122   0.77781   0.00000  Uiso   1.00
C1272  C     0.80620   0.97552   0.72237   0.00000  Uiso   1.00
C1273  C     0.83253   0.83333   0.66458   0.00000  Uiso   1.00
C1274  C     0.83378   0.83321   0.83532   0.00000  Uiso   1.00
C1275  C     0.87222   0.82888   0.90903   0.00000  Uiso   1.00
C1276  C     0.79327   0.83998   0.59085   0.00000  Uiso   1.00
C1277  C     0.83472   0.83249   0.88355   0.00000  Uiso   1.00
C1278  C     0.83063   0.83254   0.61614   0.00000  Uiso   1.00
C1279  C     0.79717   0.83476   0.90372   0.00000  Uiso   1.00
C1280  C     0.86688   0.82188   0.59560   0.00000  Uiso   1.00
C1281  C     0.79598   0.83414   0.94988   0.00000  Uiso   1.00
C1282  C     0.86757   0.82056   0.54944   0.00000  Uiso   1.00
C1283  C     0.83267   0.82780   0.97631   0.00000  Uiso   1.00
C1284  C     0.83089   0.82768   0.52317   0.00000  Uiso   1.00
C1285  C     0.87099   0.82147   0.95585   0.00000  Uiso   1.00
C1286  C     0.79260   0.83450   0.54367   0.00000  Uiso   1.00
C1287  C     0.75809   0.83743   0.96957   0.00000  Uiso   1.00
C1288  C     0.90437   0.80990   0.52950   0.00000  Uiso   1.00
Cu1289 Cu    0.83333   0.88022   0.75000   0.00000  Uiso   1.00
Cu1290 Cu    0.83333   0.78645   0.75000   0.00000  Uiso   1.00
H1291  H     0.76878   0.83788   0.88317   0.00000  Uiso   1.00
H1292  H     0.89496   0.81548   0.61592   0.00000  Uiso   1.00
H1293  H     0.72991   0.83934   0.94855   0.00000  Uiso   1.00
H1294  H     0.93155   0.80095   0.55032   0.00000  Uiso   1.00
H1295  H     0.70356   0.75924   0.74037   0.00000  Uiso   1.00
H1296  H     0.96314   0.90738   0.76052   0.00000  Uiso   1.00
H1297  H     0.96222   0.75934   0.73988   0.00000  Uiso   1.00
H1298  H     0.70450   0.90729   0.76097   0.00000  Uiso   1.00
N1299  N     0.83333   0.95069   0.75000   0.00000  Uiso   1.00
N1300  N     0.83333   0.71598   0.75000   0.00000  Uiso   1.00
O1301  O     0.77321   0.87291   0.75000   0.00000  Uiso   1.00
O1302  O     0.89345   0.79375   0.75001   0.00000  Uiso   1.00
O1303  O     0.89345   0.87291   0.75001   0.00000  Uiso   1.00
O1304  O     0.77321   0.79375   0.75000   0.00000  Uiso   1.00
O1305  O     0.83332   0.87293   0.68513   0.00000  Uiso   1.00
O1306  O     0.83334   0.79373   0.81487   0.00000  Uiso   1.00
O1307  O     0.83334   0.87293   0.81487   0.00000  Uiso   1.00
O1308  O     0.83332   0.79373   0.68513   0.00000  Uiso   1.00
C1309  C     0.91123   0.83906   0.88670   0.00000  Uiso   1.00
H1310  H     0.91490   0.82867   0.85243   0.00000  Uiso   1.00
O1311  O     0.93877   0.86133   0.90566   0.00000  Uiso   1.00
C1312  C     0.75672   0.85751   0.61340   0.00000  Uiso   1.00
H1313  H     0.73864   0.88568   0.59854   0.00000  Uiso   1.00
O1314  O     0.74577   0.83982   0.64787   0.00000  Uiso   1.00
C1315  C     0.71353   0.82894   0.53187   0.00000  Uiso   1.00
H1316  H     0.68792   0.84855   0.51674   0.00000  Uiso   1.00
O1317  O     0.70665   0.79935   0.55969   0.00000  Uiso   1.00
C1318  C     0.94272   0.78427   0.96603   0.00000  Uiso   1.00
H1319  H     0.97233   0.78684   0.98429   0.00000  Uiso   1.00
O1320  O     0.93975   0.75947   0.93322   0.00000  Uiso   1.00
C1321  C     0.78431   0.71596   0.68395   0.00000  Uiso   1.00
H1322  H     0.76534   0.74560   0.68977   0.00000  Uiso   1.00
O1323  O     0.78622   0.70252   0.64558   0.00000  Uiso   1.00
C1324  C     0.88239   0.95072   0.81608   0.00000  Uiso   1.00
H1325  H     0.90112   0.92090   0.81029   0.00000  Uiso   1.00
O1326  O     0.88076   0.96432   0.85442   0.00000  Uiso   1.00
C1327  C     0.89423   0.71517   0.80360   0.00000  Uiso   1.00
H1328  H     0.88904   0.74590   0.82246   0.00000  Uiso   1.00
O1329  O     0.92944   0.70018   0.80384   0.00000  Uiso   1.00
C1330  C     0.77224   0.95169   0.69688   0.00000  Uiso   1.00
H1331  H     0.77742   0.92075   0.67857   0.00000  Uiso   1.00
O1332  O     0.73710   0.96694   0.69639   0.00000  Uiso   1.00
loop_
_geom_bond_atom_site_label_1
_geom_bond_atom_site_label_2
_geom_bond_distance
_geom_bond_site_symmetry_2
_ccdc_geom_bond_type
C1     O46     1.301   .     A
C1     O43     1.302   .     A
C1     C10     1.449   .     S
C2     O44     1.301   .     A
C2     O45     1.301   .     A
C2     C9      1.449   .     S
C3     C28     1.429   .     A
C3     C57     1.481   .     S
C3     C695    1.394   1_554 S
C4     C60     1.484   .     S
C4     C27     1.424   .     A
C4     C696    1.396   .     S
C5     H37     1.083   .     S
C5     C10     1.401   .     A
C5     C155    1.383   1_455 S
C6     C9      1.401   .     A
C6     H38     1.083   .     S
C6     C82     1.383   .     S
C7     C9      1.401   .     A
C7     H39     1.083   .     S
C7     C79     1.383   .     S
C8     C10     1.401   .     A
C8     H40     1.083   .     S
C8     C154    1.383   1_455 S
C11    C63     1.483   .     S
C11    N42     1.376   .     A
C11    C458    1.431   1_545 S
C12    C66     1.484   .     S
C12    N41     1.377   .     A
C12    C235    1.433   .     S
C13    N42     1.378   .     A
C13    C69     1.485   .     S
C13    C456    1.433   1_545 S
C14    N41     1.378   .     A
C14    C72     1.482   .     S
C14    C233    1.431   .     S
C15    O47     1.304   .     A
C15    O50     1.298   .     A
C15    C20     1.452   .     S
C16    O48     1.299   .     A
C16    O49     1.300   .     A
C16    C19     1.446   .     S
C17    C51     1.490   .     S
C17    C27     1.423   .     A
C17    C19     1.408   .     A
C18    C28     1.424   .     A
C18    C20     1.413   .     A
C18    C54     1.485   .     S
C19    C21     1.388   .     A
C20    C22     1.390   .     A
C21    H33     1.086   .     S
C21    C23     1.388   .     A
C22    H34     1.086   .     S
C22    C24     1.387   .     A
C23    C29     1.393   .     A
C23    C25     1.408   .     A
C24    C26     1.409   .     A
C24    C30     1.396   .     A
C25    C27     1.426   .     A
C25    C692    1.410   .     S
C26    C28     1.427   .     A
C26    C691    1.410   1_554 S
C29    H35     1.086   .     S
C29    C669    1.394   .     S
C30    H36     1.086   .     S
C30    C670    1.396   1_554 S
Cu31   O43     1.962   .     S
Cu31   O47     1.959   .     S
Cu31   O49     1.957   .     S
Cu31   Cu32    2.713   .     S
Cu31   N41     2.039   .     S
Cu31   O45     1.962   .     S
Cu32   O48     1.959   .     S
Cu32   O46     1.962   .     S
Cu32   O44     1.962   .     S
Cu32   O50     1.957   .     S
Cu32   N42     2.039   .     S
C51    H52     1.085   .     S
C51    O53     1.221   .     D
C54    O56     1.220   .     D
C54    H55     1.085   .     S
C57    O59     1.221   .     D
C57    H58     1.085   .     S
C60    O62     1.221   .     D
C60    H61     1.085   .     S
C63    O65     1.222   .     D
C63    H64     1.075   .     S
C66    O68     1.221   .     D
C66    H67     1.075   .     S
C69    O71     1.221   .     D
C69    H70     1.074   .     S
C72    O74     1.222   .     D
C72    H73     1.070   .     S
C75    O120    1.301   .     A
C75    O117    1.302   .     A
C75    C84     1.449   .     S
C76    O118    1.301   .     A
C76    O119    1.301   .     A
C76    C83     1.449   .     S
C77    C102    1.429   .     A
C77    C131    1.481   .     S
C77    C769    1.394   1_554 S
C78    C134    1.484   .     S
C78    C101    1.424   .     A
C78    C770    1.396   .     S
C79    H111    1.083   .     S
C79    C84     1.401   .     A
C80    C83     1.401   .     A
C80    H112    1.083   .     S
C80    C156    1.383   .     S
C81    C83     1.401   .     A
C81    H113    1.083   .     S
C81    C153    1.383   .     S
C82    C84     1.401   .     A
C82    H114    1.083   .     S
C85    C137    1.483   .     S
C85    N116    1.376   .     A
C85    C532    1.431   1_545 S
C86    C140    1.484   .     S
C86    N115    1.377   .     A
C86    C309    1.433   .     S
C87    N116    1.378   .     A
C87    C143    1.485   .     S
C87    C530    1.433   1_545 S
C88    N115    1.378   .     A
C88    C146    1.482   .     S
C88    C307    1.431   .     S
C89    O121    1.304   .     A
C89    O124    1.298   .     A
C89    C94     1.452   .     S
C90    O122    1.299   .     A
C90    O123    1.300   .     A
C90    C93     1.446   .     S
C91    C125    1.490   .     S
C91    C101    1.423   .     A
C91    C93     1.408   .     A
C92    C102    1.424   .     A
C92    C94     1.413   .     A
C92    C128    1.485   .     S
C93    C95     1.388   .     A
C94    C96     1.390   .     A
C95    H107    1.086   .     S
C95    C97     1.388   .     A
C96    H108    1.086   .     S
C96    C98     1.387   .     A
C97    C103    1.393   .     A
C97    C99     1.408   .     A
C98    C100    1.409   .     A
C98    C104    1.396   .     A
C99    C101    1.426   .     A
C99    C766    1.410   .     S
C100   C102    1.427   .     A
C100   C765    1.410   1_554 S
C103   H109    1.086   .     S
C103   C743    1.394   .     S
C104   H110    1.086   .     S
C104   C744    1.396   1_554 S
Cu105  O117    1.962   .     S
Cu105  O121    1.959   .     S
Cu105  O123    1.957   .     S
Cu105  Cu106   2.713   .     S
Cu105  N115    2.039   .     S
Cu105  O119    1.962   .     S
Cu106  O122    1.959   .     S
Cu106  O120    1.962   .     S
Cu106  O118    1.962   .     S
Cu106  O124    1.957   .     S
Cu106  N116    2.039   .     S
C125   H126    1.085   .     S
C125   O127    1.221   .     D
C128   O130    1.220   .     D
C128   H129    1.085   .     S
C131   O133    1.221   .     D
C131   H132    1.085   .     S
C134   O136    1.221   .     D
C134   H135    1.085   .     S
C137   O139    1.222   .     D
C137   H138    1.075   .     S
C140   O142    1.221   .     D
C140   H141    1.075   .     S
C143   O145    1.221   .     D
C143   H144    1.074   .     S
C146   O148    1.222   .     D
C146   H147    1.070   .     S
C149   O194    1.301   .     A
C149   O191    1.302   .     A
C149   C158    1.449   .     S
C150   O192    1.301   .     A
C150   O193    1.301   .     A
C150   C157    1.449   .     S
C151   C176    1.429   .     A
C151   C205    1.481   .     S
C151   C843    1.394   1_554 S
C152   C208    1.484   .     S
C152   C175    1.424   .     A
C152   C844    1.396   .     S
C153   H185    1.083   .     S
C153   C158    1.401   .     A
C154   C157    1.401   .     A
C154   H186    1.083   .     S
C154   C8      1.383   1_655 S
C155   C157    1.401   .     A
C155   H187    1.083   .     S
C155   C5      1.383   1_655 S
C156   C158    1.401   .     A
C156   H188    1.083   .     S
C159   C211    1.483   .     S
C159   N190    1.376   .     A
C159   C606    1.431   1_545 S
C160   C214    1.484   .     S
C160   N189    1.377   .     A
C160   C383    1.433   .     S
C161   N190    1.378   .     A
C161   C217    1.485   .     S
C161   C604    1.433   1_545 S
C162   N189    1.378   .     A
C162   C220    1.482   .     S
C162   C381    1.431   .     S
C163   O195    1.304   .     A
C163   O198    1.298   .     A
C163   C168    1.452   .     S
C164   O196    1.299   .     A
C164   O197    1.300   .     A
C164   C167    1.446   .     S
C165   C199    1.490   .     S
C165   C175    1.423   .     A
C165   C167    1.408   .     A
C166   C176    1.424   .     A
C166   C168    1.413   .     A
C166   C202    1.485   .     S
C167   C169    1.388   .     A
C168   C170    1.390   .     A
C169   H181    1.086   .     S
C169   C171    1.388   .     A
C170   H182    1.086   .     S
C170   C172    1.387   .     A
C171   C177    1.393   .     A
C171   C173    1.408   .     A
C172   C174    1.409   .     A
C172   C178    1.396   .     A
C173   C175    1.426   .     A
C173   C840    1.410   .     S
C174   C176    1.427   .     A
C174   C839    1.410   1_554 S
C177   H183    1.086   .     S
C177   C817    1.394   .     S
C178   H184    1.086   .     S
C178   C818    1.396   1_554 S
Cu179  O191    1.962   .     S
Cu179  O195    1.959   .     S
Cu179  O197    1.957   .     S
Cu179  Cu180   2.713   .     S
Cu179  N189    2.039   .     S
Cu179  O193    1.962   .     S
Cu180  O196    1.959   .     S
Cu180  O194    1.962   .     S
Cu180  O192    1.962   .     S
Cu180  O198    1.957   .     S
Cu180  N190    2.039   .     S
C199   H200    1.085   .     S
C199   O201    1.221   .     D
C202   O204    1.220   .     D
C202   H203    1.085   .     S
C205   O207    1.221   .     D
C205   H206    1.085   .     S
C208   O210    1.221   .     D
C208   H209    1.085   .     S
C211   O213    1.222   .     D
C211   H212    1.075   .     S
C214   O216    1.221   .     D
C214   H215    1.075   .     S
C217   O219    1.221   .     D
C217   H218    1.074   .     S
C220   O222    1.222   .     D
C220   H221    1.070   .     S
C223   O268    1.301   .     A
C223   O265    1.302   .     A
C223   C232    1.449   .     S
C224   O266    1.301   .     A
C224   O267    1.301   .     A
C224   C231    1.449   .     S
C225   C250    1.429   .     A
C225   C279    1.481   .     S
C225   C917    1.394   1_554 S
C226   C282    1.484   .     S
C226   C249    1.424   .     A
C226   C918    1.396   .     S
C227   H259    1.083   .     S
C227   C232    1.401   .     A
C227   C377    1.383   1_455 S
C228   C231    1.401   .     A
C228   H260    1.083   .     S
C228   C304    1.383   .     S
C229   C231    1.401   .     A
C229   H261    1.083   .     S
C229   C301    1.383   .     S
C230   C232    1.401   .     A
C230   H262    1.083   .     S
C230   C376    1.383   1_455 S
C233   C285    1.483   .     S
C233   N264    1.376   .     A
C234   C288    1.484   .     S
C234   N263    1.377   .     A
C234   C457    1.433   .     S
C235   N264    1.378   .     A
C235   C291    1.485   .     S
C236   N263    1.378   .     A
C236   C294    1.482   .     S
C236   C455    1.431   .     S
C237   O269    1.304   .     A
C237   O272    1.298   .     A
C237   C242    1.452   .     S
C238   O270    1.299   .     A
C238   O271    1.300   .     A
C238   C241    1.446   .     S
C239   C273    1.490   .     S
C239   C249    1.423   .     A
C239   C241    1.408   .     A
C240   C250    1.424   .     A
C240   C242    1.413   .     A
C240   C276    1.485   .     S
C241   C243    1.388   .     A
C242   C244    1.390   .     A
C243   H255    1.086   .     S
C243   C245    1.388   .     A
C244   H256    1.086   .     S
C244   C246    1.387   .     A
C245   C251    1.393   .     A
C245   C247    1.408   .     A
C246   C248    1.409   .     A
C246   C252    1.396   .     A
C247   C249    1.426   .     A
C247   C914    1.410   .     S
C248   C250    1.427   .     A
C248   C913    1.410   1_554 S
C251   H257    1.086   .     S
C251   C891    1.394   .     S
C252   H258    1.086   .     S
C252   C892    1.396   1_554 S
Cu253  O265    1.962   .     S
Cu253  O269    1.959   .     S
Cu253  O271    1.957   .     S
Cu253  Cu254   2.713   .     S
Cu253  N263    2.039   .     S
Cu253  O267    1.962   .     S
Cu254  O270    1.959   .     S
Cu254  O268    1.962   .     S
Cu254  O266    1.962   .     S
Cu254  O272    1.957   .     S
Cu254  N264    2.039   .     S
C273   H274    1.085   .     S
C273   O275    1.221   .     D
C276   O278    1.220   .     D
C276   H277    1.085   .     S
C279   O281    1.221   .     D
C279   H280    1.085   .     S
C282   O284    1.221   .     D
C282   H283    1.085   .     S
C285   O287    1.222   .     D
C285   H286    1.075   .     S
C288   O290    1.221   .     D
C288   H289    1.075   .     S
C291   O293    1.221   .     D
C291   H292    1.074   .     S
C294   O296    1.222   .     D
C294   H295    1.070   .     S
C297   O342    1.301   .     A
C297   O339    1.302   .     A
C297   C306    1.449   .     S
C298   O340    1.301   .     A
C298   O341    1.301   .     A
C298   C305    1.449   .     S
C299   C324    1.429   .     A
C299   C353    1.481   .     S
C299   C991    1.394   1_554 S
C300   C356    1.484   .     S
C300   C323    1.424   .     A
C300   C992    1.396   .     S
C301   H333    1.083   .     S
C301   C306    1.401   .     A
C302   C305    1.401   .     A
C302   H334    1.083   .     S
C302   C378    1.383   .     S
C303   C305    1.401   .     A
C303   H335    1.083   .     S
C303   C375    1.383   .     S
C304   C306    1.401   .     A
C304   H336    1.083   .     S
C307   C359    1.483   .     S
C307   N338    1.376   .     A
C308   C362    1.484   .     S
C308   N337    1.377   .     A
C308   C531    1.433   .     S
C309   N338    1.378   .     A
C309   C365    1.485   .     S
C310   N337    1.378   .     A
C310   C368    1.482   .     S
C310   C529    1.431   .     S
C311   O343    1.304   .     A
C311   O346    1.298   .     A
C311   C316    1.452   .     S
C312   O344    1.299   .     A
C312   O345    1.300   .     A
C312   C315    1.446   .     S
C313   C347    1.490   .     S
C313   C323    1.423   .     A
C313   C315    1.408   .     A
C314   C324    1.424   .     A
C314   C316    1.413   .     A
C314   C350    1.485   .     S
C315   C317    1.388   .     A
C316   C318    1.390   .     A
C317   H329    1.086   .     S
C317   C319    1.388   .     A
C318   H330    1.086   .     S
C318   C320    1.387   .     A
C319   C325    1.393   .     A
C319   C321    1.408   .     A
C320   C322    1.409   .     A
C320   C326    1.396   .     A
C321   C323    1.426   .     A
C321   C988    1.410   .     S
C322   C324    1.427   .     A
C322   C987    1.410   1_554 S
C325   H331    1.086   .     S
C325   C965    1.394   .     S
C326   H332    1.086   .     S
C326   C966    1.396   1_554 S
Cu327  O339    1.962   .     S
Cu327  O343    1.959   .     S
Cu327  O345    1.957   .     S
Cu327  Cu328   2.713   .     S
Cu327  N337    2.039   .     S
Cu327  O341    1.962   .     S
Cu328  O344    1.959   .     S
Cu328  O342    1.962   .     S
Cu328  O340    1.962   .     S
Cu328  O346    1.957   .     S
Cu328  N338    2.039   .     S
C347   H348    1.085   .     S
C347   O349    1.221   .     D
C350   O352    1.220   .     D
C350   H351    1.085   .     S
C353   O355    1.221   .     D
C353   H354    1.085   .     S
C356   O358    1.221   .     D
C356   H357    1.085   .     S
C359   O361    1.222   .     D
C359   H360    1.075   .     S
C362   O364    1.221   .     D
C362   H363    1.075   .     S
C365   O367    1.221   .     D
C365   H366    1.074   .     S
C368   O370    1.222   .     D
C368   H369    1.070   .     S
C371   O416    1.301   .     A
C371   O413    1.302   .     A
C371   C380    1.449   .     S
C372   O414    1.301   .     A
C372   O415    1.301   .     A
C372   C379    1.449   .     S
C373   C398    1.429   .     A
C373   C427    1.481   .     S
C373   C1065   1.394   1_554 S
C374   C430    1.484   .     S
C374   C397    1.424   .     A
C374   C1066   1.396   .     S
C375   H407    1.083   .     S
C375   C380    1.401   .     A
C376   C379    1.401   .     A
C376   H408    1.083   .     S
C376   C230    1.383   1_655 S
C377   C379    1.401   .     A
C377   H409    1.083   .     S
C377   C227    1.383   1_655 S
C378   C380    1.401   .     A
C378   H410    1.083   .     S
C381   C433    1.483   .     S
C381   N412    1.376   .     A
C382   C436    1.484   .     S
C382   N411    1.377   .     A
C382   C605    1.433   .     S
C383   N412    1.378   .     A
C383   C439    1.485   .     S
C384   N411    1.378   .     A
C384   C442    1.482   .     S
C384   C603    1.431   .     S
C385   O417    1.304   .     A
C385   O420    1.298   .     A
C385   C390    1.452   .     S
C386   O418    1.299   .     A
C386   O419    1.300   .     A
C386   C389    1.446   .     S
C387   C421    1.490   .     S
C387   C397    1.423   .     A
C387   C389    1.408   .     A
C388   C398    1.424   .     A
C388   C390    1.413   .     A
C388   C424    1.485   .     S
C389   C391    1.388   .     A
C390   C392    1.390   .     A
C391   H403    1.086   .     S
C391   C393    1.388   .     A
C392   H404    1.086   .     S
C392   C394    1.387   .     A
C393   C399    1.393   .     A
C393   C395    1.408   .     A
C394   C396    1.409   .     A
C394   C400    1.396   .     A
C395   C397    1.426   .     A
C395   C1062   1.410   .     S
C396   C398    1.427   .     A
C396   C1061   1.410   1_554 S
C399   H405    1.086   .     S
C399   C1039   1.394   .     S
C400   H406    1.086   .     S
C400   C1040   1.396   1_554 S
Cu401  O413    1.962   .     S
Cu401  O417    1.959   .     S
Cu401  O419    1.957   .     S
Cu401  Cu402   2.713   .     S
Cu401  N411    2.039   .     S
Cu401  O415    1.962   .     S
Cu402  O418    1.959   .     S
Cu402  O416    1.962   .     S
Cu402  O414    1.962   .     S
Cu402  O420    1.957   .     S
Cu402  N412    2.039   .     S
C421   H422    1.085   .     S
C421   O423    1.221   .     D
C424   O426    1.220   .     D
C424   H425    1.085   .     S
C427   O429    1.221   .     D
C427   H428    1.085   .     S
C430   O432    1.221   .     D
C430   H431    1.085   .     S
C433   O435    1.222   .     D
C433   H434    1.075   .     S
C436   O438    1.221   .     D
C436   H437    1.075   .     S
C439   O441    1.221   .     D
C439   H440    1.074   .     S
C442   O444    1.222   .     D
C442   H443    1.070   .     S
C445   O490    1.301   .     A
C445   O487    1.302   .     A
C445   C454    1.449   .     S
C446   O488    1.301   .     A
C446   O489    1.301   .     A
C446   C453    1.449   .     S
C447   C472    1.429   .     A
C447   C501    1.481   .     S
C447   C1139   1.394   1_554 S
C448   C504    1.484   .     S
C448   C471    1.424   .     A
C448   C1140   1.396   .     S
C449   H481    1.083   .     S
C449   C454    1.401   .     A
C449   C599    1.383   1_455 S
C450   C453    1.401   .     A
C450   H482    1.083   .     S
C450   C526    1.383   .     S
C451   C453    1.401   .     A
C451   H483    1.083   .     S
C451   C523    1.383   .     S
C452   C454    1.401   .     A
C452   H484    1.083   .     S
C452   C598    1.383   1_455 S
C455   C507    1.483   .     S
C455   N486    1.376   .     A
C456   C510    1.484   .     S
C456   N485    1.377   .     A
C456   C13     1.433   1_565 S
C457   N486    1.378   .     A
C457   C513    1.485   .     S
C458   N485    1.378   .     A
C458   C516    1.482   .     S
C458   C11     1.431   1_565 S
C459   O491    1.304   .     A
C459   O494    1.298   .     A
C459   C464    1.452   .     S
C460   O492    1.299   .     A
C460   O493    1.300   .     A
C460   C463    1.446   .     S
C461   C495    1.490   .     S
C461   C471    1.423   .     A
C461   C463    1.408   .     A
C462   C472    1.424   .     A
C462   C464    1.413   .     A
C462   C498    1.485   .     S
C463   C465    1.388   .     A
C464   C466    1.390   .     A
C465   H477    1.086   .     S
C465   C467    1.388   .     A
C466   H478    1.086   .     S
C466   C468    1.387   .     A
C467   C473    1.393   .     A
C467   C469    1.408   .     A
C468   C470    1.409   .     A
C468   C474    1.396   .     A
C469   C471    1.426   .     A
C469   C1136   1.410   .     S
C470   C472    1.427   .     A
C470   C1135   1.410   1_554 S
C473   H479    1.086   .     S
C473   C1113   1.394   .     S
C474   H480    1.086   .     S
C474   C1114   1.396   1_554 S
Cu475  O487    1.962   .     S
Cu475  O491    1.959   .     S
Cu475  O493    1.957   .     S
Cu475  Cu476   2.713   .     S
Cu475  N485    2.039   .     S
Cu475  O489    1.962   .     S
Cu476  O492    1.959   .     S
Cu476  O490    1.962   .     S
Cu476  O488    1.962   .     S
Cu476  O494    1.957   .     S
Cu476  N486    2.039   .     S
C495   H496    1.085   .     S
C495   O497    1.221   .     D
C498   O500    1.220   .     D
C498   H499    1.085   .     S
C501   O503    1.221   .     D
C501   H502    1.085   .     S
C504   O506    1.221   .     D
C504   H505    1.085   .     S
C507   O509    1.222   .     D
C507   H508    1.075   .     S
C510   O512    1.221   .     D
C510   H511    1.075   .     S
C513   O515    1.221   .     D
C513   H514    1.074   .     S
C516   O518    1.222   .     D
C516   H517    1.070   .     S
C519   O564    1.301   .     A
C519   O561    1.302   .     A
C519   C528    1.449   .     S
C520   O562    1.301   .     A
C520   O563    1.301   .     A
C520   C527    1.449   .     S
C521   C546    1.429   .     A
C521   C575    1.481   .     S
C521   C1213   1.394   1_554 S
C522   C578    1.484   .     S
C522   C545    1.424   .     A
C522   C1214   1.396   .     S
C523   H555    1.083   .     S
C523   C528    1.401   .     A
C524   C527    1.401   .     A
C524   H556    1.083   .     S
C524   C600    1.383   .     S
C525   C527    1.401   .     A
C525   H557    1.083   .     S
C525   C597    1.383   .     S
C526   C528    1.401   .     A
C526   H558    1.083   .     S
C529   C581    1.483   .     S
C529   N560    1.376   .     A
C530   C584    1.484   .     S
C530   N559    1.377   .     A
C530   C87     1.433   1_565 S
C531   N560    1.378   .     A
C531   C587    1.485   .     S
C532   N559    1.378   .     A
C532   C590    1.482   .     S
C532   C85     1.431   1_565 S
C533   O565    1.304   .     A
C533   O568    1.298   .     A
C533   C538    1.452   .     S
C534   O566    1.299   .     A
C534   O567    1.300   .     A
C534   C537    1.446   .     S
C535   C569    1.490   .     S
C535   C545    1.423   .     A
C535   C537    1.408   .     A
C536   C546    1.424   .     A
C536   C538    1.413   .     A
C536   C572    1.485   .     S
C537   C539    1.388   .     A
C538   C540    1.390   .     A
C539   H551    1.086   .     S
C539   C541    1.388   .     A
C540   H552    1.086   .     S
C540   C542    1.387   .     A
C541   C547    1.393   .     A
C541   C543    1.408   .     A
C542   C544    1.409   .     A
C542   C548    1.396   .     A
C543   C545    1.426   .     A
C543   C1210   1.410   .     S
C544   C546    1.427   .     A
C544   C1209   1.410   1_554 S
C547   H553    1.086   .     S
C547   C1187   1.394   .     S
C548   H554    1.086   .     S
C548   C1188   1.396   1_554 S
Cu549  O561    1.962   .     S
Cu549  O565    1.959   .     S
Cu549  O567    1.957   .     S
Cu549  Cu550   2.713   .     S
Cu549  N559    2.039   .     S
Cu549  O563    1.962   .     S
Cu550  O566    1.959   .     S
Cu550  O564    1.962   .     S
Cu550  O562    1.962   .     S
Cu550  O568    1.957   .     S
Cu550  N560    2.039   .     S
C569   H570    1.085   .     S
C569   O571    1.221   .     D
C572   O574    1.220   .     D
C572   H573    1.085   .     S
C575   O577    1.221   .     D
C575   H576    1.085   .     S
C578   O580    1.221   .     D
C578   H579    1.085   .     S
C581   O583    1.222   .     D
C581   H582    1.075   .     S
C584   O586    1.221   .     D
C584   H585    1.075   .     S
C587   O589    1.221   .     D
C587   H588    1.074   .     S
C590   O592    1.222   .     D
C590   H591    1.070   .     S
C593   O638    1.301   .     A
C593   O635    1.302   .     A
C593   C602    1.449   .     S
C594   O636    1.301   .     A
C594   O637    1.301   .     A
C594   C601    1.449   .     S
C595   C620    1.429   .     A
C595   C649    1.481   .     S
C595   C1287   1.394   1_554 S
C596   C652    1.484   .     S
C596   C619    1.424   .     A
C596   C1288   1.396   .     S
C597   H629    1.083   .     S
C597   C602    1.401   .     A
C598   C601    1.401   .     A
C598   H630    1.083   .     S
C598   C452    1.383   1_655 S
C599   C601    1.401   .     A
C599   H631    1.083   .     S
C599   C449    1.383   1_655 S
C600   C602    1.401   .     A
C600   H632    1.083   .     S
C603   C655    1.483   .     S
C603   N634    1.376   .     A
C604   C658    1.484   .     S
C604   N633    1.377   .     A
C604   C161    1.433   1_565 S
C605   N634    1.378   .     A
C605   C661    1.485   .     S
C606   N633    1.378   .     A
C606   C664    1.482   .     S
C606   C159    1.431   1_565 S
C607   O639    1.304   .     A
C607   O642    1.298   .     A
C607   C612    1.452   .     S
C608   O640    1.299   .     A
C608   O641    1.300   .     A
C608   C611    1.446   .     S
C609   C643    1.490   .     S
C609   C619    1.423   .     A
C609   C611    1.408   .     A
C610   C620    1.424   .     A
C610   C612    1.413   .     A
C610   C646    1.485   .     S
C611   C613    1.388   .     A
C612   C614    1.390   .     A
C613   H625    1.086   .     S
C613   C615    1.388   .     A
C614   H626    1.086   .     S
C614   C616    1.387   .     A
C615   C621    1.393   .     A
C615   C617    1.408   .     A
C616   C618    1.409   .     A
C616   C622    1.396   .     A
C617   C619    1.426   .     A
C617   C1284   1.410   .     S
C618   C620    1.427   .     A
C618   C1283   1.410   1_554 S
C621   H627    1.086   .     S
C621   C1261   1.394   .     S
C622   H628    1.086   .     S
C622   C1262   1.396   1_554 S
Cu623  O635    1.962   .     S
Cu623  O639    1.959   .     S
Cu623  O641    1.957   .     S
Cu623  Cu624   2.713   .     S
Cu623  N633    2.039   .     S
Cu623  O637    1.962   .     S
Cu624  O640    1.959   .     S
Cu624  O638    1.962   .     S
Cu624  O636    1.962   .     S
Cu624  O642    1.957   .     S
Cu624  N634    2.039   .     S
C643   H644    1.085   .     S
C643   O645    1.221   .     D
C646   O648    1.220   .     D
C646   H647    1.085   .     S
C649   O651    1.221   .     D
C649   H650    1.085   .     S
C652   O654    1.221   .     D
C652   H653    1.085   .     S
C655   O657    1.222   .     D
C655   H656    1.075   .     S
C658   O660    1.221   .     D
C658   H659    1.075   .     S
C661   O663    1.221   .     D
C661   H662    1.074   .     S
C664   O666    1.222   .     D
C664   H665    1.070   .     S
C667   O712    1.301   .     A
C667   O709    1.302   .     A
C667   C676    1.449   .     S
C668   O710    1.301   .     A
C668   O711    1.301   .     A
C668   C675    1.449   .     S
C669   C694    1.429   .     A
C669   C723    1.481   .     S
C670   C726    1.484   .     S
C670   C693    1.424   .     A
C670   C30     1.396   1_556 S
C671   H703    1.083   .     S
C671   C676    1.401   .     A
C671   C821    1.383   1_455 S
C672   C675    1.401   .     A
C672   H704    1.083   .     S
C672   C748    1.383   .     S
C673   C675    1.401   .     A
C673   H705    1.083   .     S
C673   C745    1.383   .     S
C674   C676    1.401   .     A
C674   H706    1.083   .     S
C674   C820    1.383   1_455 S
C677   C729    1.483   .     S
C677   N708    1.376   .     A
C677   C1124   1.431   1_545 S
C678   C732    1.484   .     S
C678   N707    1.377   .     A
C678   C901    1.433   .     S
C679   N708    1.378   .     A
C679   C735    1.485   .     S
C679   C1122   1.433   1_545 S
C680   N707    1.378   .     A
C680   C738    1.482   .     S
C680   C899    1.431   .     S
C681   O713    1.304   .     A
C681   O716    1.298   .     A
C681   C686    1.452   .     S
C682   O714    1.299   .     A
C682   O715    1.300   .     A
C682   C685    1.446   .     S
C683   C717    1.490   .     S
C683   C693    1.423   .     A
C683   C685    1.408   .     A
C684   C694    1.424   .     A
C684   C686    1.413   .     A
C684   C720    1.485   .     S
C685   C687    1.388   .     A
C686   C688    1.390   .     A
C687   H699    1.086   .     S
C687   C689    1.388   .     A
C688   H700    1.086   .     S
C688   C690    1.387   .     A
C689   C695    1.393   .     A
C689   C691    1.408   .     A
C690   C692    1.409   .     A
C690   C696    1.396   .     A
C691   C693    1.426   .     A
C691   C26     1.410   1_556 S
C692   C694    1.427   .     A
C695   H701    1.086   .     S
C695   C3      1.394   1_556 S
C696   H702    1.086   .     S
Cu697  O709    1.962   .     S
Cu697  O713    1.959   .     S
Cu697  O715    1.957   .     S
Cu697  Cu698   2.713   .     S
Cu697  N707    2.039   .     S
Cu697  O711    1.962   .     S
Cu698  O714    1.959   .     S
Cu698  O712    1.962   .     S
Cu698  O710    1.962   .     S
Cu698  O716    1.957   .     S
Cu698  N708    2.039   .     S
C717   H718    1.085   .     S
C717   O719    1.221   .     D
C720   O722    1.220   .     D
C720   H721    1.085   .     S
C723   O725    1.221   .     D
C723   H724    1.085   .     S
C726   O728    1.221   .     D
C726   H727    1.085   .     S
C729   O731    1.222   .     D
C729   H730    1.075   .     S
C732   O734    1.221   .     D
C732   H733    1.075   .     S
C735   O737    1.221   .     D
C735   H736    1.074   .     S
C738   O740    1.222   .     D
C738   H739    1.070   .     S
C741   O786    1.301   .     A
C741   O783    1.302   .     A
C741   C750    1.449   .     S
C742   O784    1.301   .     A
C742   O785    1.301   .     A
C742   C749    1.449   .     S
C743   C768    1.429   .     A
C743   C797    1.481   .     S
C744   C800    1.484   .     S
C744   C767    1.424   .     A
C744   C104    1.396   1_556 S
C745   H777    1.083   .     S
C745   C750    1.401   .     A
C746   C749    1.401   .     A
C746   H778    1.083   .     S
C746   C822    1.383   .     S
C747   C749    1.401   .     A
C747   H779    1.083   .     S
C747   C819    1.383   .     S
C748   C750    1.401   .     A
C748   H780    1.083   .     S
C751   C803    1.483   .     S
C751   N782    1.376   .     A
C751   C1198   1.431   1_545 S
C752   C806    1.484   .     S
C752   N781    1.377   .     A
C752   C975    1.433   .     S
C753   N782    1.378   .     A
C753   C809    1.485   .     S
C753   C1196   1.433   1_545 S
C754   N781    1.378   .     A
C754   C812    1.482   .     S
C754   C973    1.431   .     S
C755   O787    1.304   .     A
C755   O790    1.298   .     A
C755   C760    1.452   .     S
C756   O788    1.299   .     A
C756   O789    1.300   .     A
C756   C759    1.446   .     S
C757   C791    1.490   .     S
C757   C767    1.423   .     A
C757   C759    1.408   .     A
C758   C768    1.424   .     A
C758   C760    1.413   .     A
C758   C794    1.485   .     S
C759   C761    1.388   .     A
C760   C762    1.390   .     A
C761   H773    1.086   .     S
C761   C763    1.388   .     A
C762   H774    1.086   .     S
C762   C764    1.387   .     A
C763   C769    1.393   .     A
C763   C765    1.408   .     A
C764   C766    1.409   .     A
C764   C770    1.396   .     A
C765   C767    1.426   .     A
C765   C100    1.410   1_556 S
C766   C768    1.427   .     A
C769   H775    1.086   .     S
C769   C77     1.394   1_556 S
C770   H776    1.086   .     S
Cu771  O783    1.962   .     S
Cu771  O787    1.959   .     S
Cu771  O789    1.957   .     S
Cu771  Cu772   2.713   .     S
Cu771  N781    2.039   .     S
Cu771  O785    1.962   .     S
Cu772  O788    1.959   .     S
Cu772  O786    1.962   .     S
Cu772  O784    1.962   .     S
Cu772  O790    1.957   .     S
Cu772  N782    2.039   .     S
C791   H792    1.085   .     S
C791   O793    1.221   .     D
C794   O796    1.220   .     D
C794   H795    1.085   .     S
C797   O799    1.221   .     D
C797   H798    1.085   .     S
C800   O802    1.221   .     D
C800   H801    1.085   .     S
C803   O805    1.222   .     D
C803   H804    1.075   .     S
C806   O808    1.221   .     D
C806   H807    1.075   .     S
C809   O811    1.221   .     D
C809   H810    1.074   .     S
C812   O814    1.222   .     D
C812   H813    1.070   .     S
C815   O860    1.301   .     A
C815   O857    1.302   .     A
C815   C824    1.449   .     S
C816   O858    1.301   .     A
C816   O859    1.301   .     A
C816   C823    1.449   .     S
C817   C842    1.429   .     A
C817   C871    1.481   .     S
C818   C874    1.484   .     S
C818   C841    1.424   .     A
C818   C178    1.396   1_556 S
C819   H851    1.083   .     S
C819   C824    1.401   .     A
C820   C823    1.401   .     A
C820   H852    1.083   .     S
C820   C674    1.383   1_655 S
C821   C823    1.401   .     A
C821   H853    1.083   .     S
C821   C671    1.383   1_655 S
C822   C824    1.401   .     A
C822   H854    1.083   .     S
C825   C877    1.483   .     S
C825   N856    1.376   .     A
C825   C1272   1.431   1_545 S
C826   C880    1.484   .     S
C826   N855    1.377   .     A
C826   C1049   1.433   .     S
C827   N856    1.378   .     A
C827   C883    1.485   .     S
C827   C1270   1.433   1_545 S
C828   N855    1.378   .     A
C828   C886    1.482   .     S
C828   C1047   1.431   .     S
C829   O861    1.304   .     A
C829   O864    1.298   .     A
C829   C834    1.452   .     S
C830   O862    1.299   .     A
C830   O863    1.300   .     A
C830   C833    1.446   .     S
C831   C865    1.490   .     S
C831   C841    1.423   .     A
C831   C833    1.408   .     A
C832   C842    1.424   .     A
C832   C834    1.413   .     A
C832   C868    1.485   .     S
C833   C835    1.388   .     A
C834   C836    1.390   .     A
C835   H847    1.086   .     S
C835   C837    1.388   .     A
C836   H848    1.086   .     S
C836   C838    1.387   .     A
C837   C843    1.393   .     A
C837   C839    1.408   .     A
C838   C840    1.409   .     A
C838   C844    1.396   .     A
C839   C841    1.426   .     A
C839   C174    1.410   1_556 S
C840   C842    1.427   .     A
C843   H849    1.086   .     S
C843   C151    1.394   1_556 S
C844   H850    1.086   .     S
Cu845  O857    1.962   .     S
Cu845  O861    1.959   .     S
Cu845  O863    1.957   .     S
Cu845  Cu846   2.713   .     S
Cu845  N855    2.039   .     S
Cu845  O859    1.962   .     S
Cu846  O862    1.959   .     S
Cu846  O860    1.962   .     S
Cu846  O858    1.962   .     S
Cu846  O864    1.957   .     S
Cu846  N856    2.039   .     S
C865   H866    1.085   .     S
C865   O867    1.221   .     D
C868   O870    1.220   .     D
C868   H869    1.085   .     S
C871   O873    1.221   .     D
C871   H872    1.085   .     S
C874   O876    1.221   .     D
C874   H875    1.085   .     S
C877   O879    1.222   .     D
C877   H878    1.075   .     S
C880   O882    1.221   .     D
C880   H881    1.075   .     S
C883   O885    1.221   .     D
C883   H884    1.074   .     S
C886   O888    1.222   .     D
C886   H887    1.070   .     S
C889   O934    1.301   .     A
C889   O931    1.302   .     A
C889   C898    1.449   .     S
C890   O932    1.301   .     A
C890   O933    1.301   .     A
C890   C897    1.449   .     S
C891   C916    1.429   .     A
C891   C945    1.481   .     S
C892   C948    1.484   .     S
C892   C915    1.424   .     A
C892   C252    1.396   1_556 S
C893   H925    1.083   .     S
C893   C898    1.401   .     A
C893   C1043   1.383   1_455 S
C894   C897    1.401   .     A
C894   H926    1.083   .     S
C894   C970    1.383   .     S
C895   C897    1.401   .     A
C895   H927    1.083   .     S
C895   C967    1.383   .     S
C896   C898    1.401   .     A
C896   H928    1.083   .     S
C896   C1042   1.383   1_455 S
C899   C951    1.483   .     S
C899   N930    1.376   .     A
C900   C954    1.484   .     S
C900   N929    1.377   .     A
C900   C1123   1.433   .     S
C901   N930    1.378   .     A
C901   C957    1.485   .     S
C902   N929    1.378   .     A
C902   C960    1.482   .     S
C902   C1121   1.431   .     S
C903   O935    1.304   .     A
C903   O938    1.298   .     A
C903   C908    1.452   .     S
C904   O936    1.299   .     A
C904   O937    1.300   .     A
C904   C907    1.446   .     S
C905   C939    1.490   .     S
C905   C915    1.423   .     A
C905   C907    1.408   .     A
C906   C916    1.424   .     A
C906   C908    1.413   .     A
C906   C942    1.485   .     S
C907   C909    1.388   .     A
C908   C910    1.390   .     A
C909   H921    1.086   .     S
C909   C911    1.388   .     A
C910   H922    1.086   .     S
C910   C912    1.387   .     A
C911   C917    1.393   .     A
C911   C913    1.408   .     A
C912   C914    1.409   .     A
C912   C918    1.396   .     A
C913   C915    1.426   .     A
C913   C248    1.410   1_556 S
C914   C916    1.427   .     A
C917   H923    1.086   .     S
C917   C225    1.394   1_556 S
C918   H924    1.086   .     S
Cu919  O931    1.962   .     S
Cu919  O935    1.959   .     S
Cu919  O937    1.957   .     S
Cu919  Cu920   2.713   .     S
Cu919  N929    2.039   .     S
Cu919  O933    1.962   .     S
Cu920  O936    1.959   .     S
Cu920  O934    1.962   .     S
Cu920  O932    1.962   .     S
Cu920  O938    1.957   .     S
Cu920  N930    2.039   .     S
C939   H940    1.085   .     S
C939   O941    1.221   .     D
C942   O944    1.220   .     D
C942   H943    1.085   .     S
C945   O947    1.221   .     D
C945   H946    1.085   .     S
C948   O950    1.221   .     D
C948   H949    1.085   .     S
C951   O953    1.222   .     D
C951   H952    1.075   .     S
C954   O956    1.221   .     D
C954   H955    1.075   .     S
C957   O959    1.221   .     D
C957   H958    1.074   .     S
C960   O962    1.222   .     D
C960   H961    1.070   .     S
C963   O1008   1.301   .     A
C963   O1005   1.302   .     A
C963   C972    1.449   .     S
C964   O1006   1.301   .     A
C964   O1007   1.301   .     A
C964   C971    1.449   .     S
C965   C990    1.429   .     A
C965   C1019   1.481   .     S
C966   C1022   1.484   .     S
C966   C989    1.424   .     A
C966   C326    1.396   1_556 S
C967   H999    1.083   .     S
C967   C972    1.401   .     A
C968   C971    1.401   .     A
C968   H1000   1.083   .     S
C968   C1044   1.383   .     S
C969   C971    1.401   .     A
C969   H1001   1.083   .     S
C969   C1041   1.383   .     S
C970   C972    1.401   .     A
C970   H1002   1.083   .     S
C973   C1025   1.483   .     S
C973   N1004   1.376   .     A
C974   C1028   1.484   .     S
C974   N1003   1.377   .     A
C974   C1197   1.433   .     S
C975   N1004   1.378   .     A
C975   C1031   1.485   .     S
C976   N1003   1.378   .     A
C976   C1034   1.482   .     S
C976   C1195   1.431   .     S
C977   O1009   1.304   .     A
C977   O1012   1.298   .     A
C977   C982    1.452   .     S
C978   O1010   1.299   .     A
C978   O1011   1.300   .     A
C978   C981    1.446   .     S
C979   C1013   1.490   .     S
C979   C989    1.423   .     A
C979   C981    1.408   .     A
C980   C990    1.424   .     A
C980   C982    1.413   .     A
C980   C1016   1.485   .     S
C981   C983    1.388   .     A
C982   C984    1.390   .     A
C983   H995    1.086   .     S
C983   C985    1.388   .     A
C984   H996    1.086   .     S
C984   C986    1.387   .     A
C985   C991    1.393   .     A
C985   C987    1.408   .     A
C986   C988    1.409   .     A
C986   C992    1.396   .     A
C987   C989    1.426   .     A
C987   C322    1.410   1_556 S
C988   C990    1.427   .     A
C991   H997    1.086   .     S
C991   C299    1.394   1_556 S
C992   H998    1.086   .     S
Cu993  O1005   1.962   .     S
Cu993  O1009   1.959   .     S
Cu993  O1011   1.957   .     S
Cu993  Cu994   2.713   .     S
Cu993  N1003   2.039   .     S
Cu993  O1007   1.962   .     S
Cu994  O1010   1.959   .     S
Cu994  O1008   1.962   .     S
Cu994  O1006   1.962   .     S
Cu994  O1012   1.957   .     S
Cu994  N1004   2.039   .     S
C1013  H1014   1.085   .     S
C1013  O1015   1.221   .     D
C1016  O1018   1.220   .     D
C1016  H1017   1.085   .     S
C1019  O1021   1.221   .     D
C1019  H1020   1.085   .     S
C1022  O1024   1.221   .     D
C1022  H1023   1.085   .     S
C1025  O1027   1.222   .     D
C1025  H1026   1.075   .     S
C1028  O1030   1.221   .     D
C1028  H1029   1.075   .     S
C1031  O1033   1.221   .     D
C1031  H1032   1.074   .     S
C1034  O1036   1.222   .     D
C1034  H1035   1.070   .     S
C1037  O1082   1.301   .     A
C1037  O1079   1.302   .     A
C1037  C1046   1.449   .     S
C1038  O1080   1.301   .     A
C1038  O1081   1.301   .     A
C1038  C1045   1.449   .     S
C1039  C1064   1.429   .     A
C1039  C1093   1.481   .     S
C1040  C1096   1.484   .     S
C1040  C1063   1.424   .     A
C1040  C400    1.396   1_556 S
C1041  H1073   1.083   .     S
C1041  C1046   1.401   .     A
C1042  C1045   1.401   .     A
C1042  H1074   1.083   .     S
C1042  C896    1.383   1_655 S
C1043  C1045   1.401   .     A
C1043  H1075   1.083   .     S
C1043  C893    1.383   1_655 S
C1044  C1046   1.401   .     A
C1044  H1076   1.083   .     S
C1047  C1099   1.483   .     S
C1047  N1078   1.376   .     A
C1048  C1102   1.484   .     S
C1048  N1077   1.377   .     A
C1048  C1271   1.433   .     S
C1049  N1078   1.378   .     A
C1049  C1105   1.485   .     S
C1050  N1077   1.378   .     A
C1050  C1108   1.482   .     S
C1050  C1269   1.431   .     S
C1051  O1083   1.304   .     A
C1051  O1086   1.298   .     A
C1051  C1056   1.452   .     S
C1052  O1084   1.299   .     A
C1052  O1085   1.300   .     A
C1052  C1055   1.446   .     S
C1053  C1087   1.490   .     S
C1053  C1063   1.423   .     A
C1053  C1055   1.408   .     A
C1054  C1064   1.424   .     A
C1054  C1056   1.413   .     A
C1054  C1090   1.485   .     S
C1055  C1057   1.388   .     A
C1056  C1058   1.390   .     A
C1057  H1069   1.086   .     S
C1057  C1059   1.388   .     A
C1058  H1070   1.086   .     S
C1058  C1060   1.387   .     A
C1059  C1065   1.393   .     A
C1059  C1061   1.408   .     A
C1060  C1062   1.409   .     A
C1060  C1066   1.396   .     A
C1061  C1063   1.426   .     A
C1061  C396    1.410   1_556 S
C1062  C1064   1.427   .     A
C1065  H1071   1.086   .     S
C1065  C373    1.394   1_556 S
C1066  H1072   1.086   .     S
Cu1067 O1079   1.962   .     S
Cu1067 O1083   1.959   .     S
Cu1067 O1085   1.957   .     S
Cu1067 Cu1068  2.713   .     S
Cu1067 N1077   2.039   .     S
Cu1067 O1081   1.962   .     S
Cu1068 O1084   1.959   .     S
Cu1068 O1082   1.962   .     S
Cu1068 O1080   1.962   .     S
Cu1068 O1086   1.957   .     S
Cu1068 N1078   2.039   .     S
C1087  H1088   1.085   .     S
C1087  O1089   1.221   .     D
C1090  O1092   1.220   .     D
C1090  H1091   1.085   .     S
C1093  O1095   1.221   .     D
C1093  H1094   1.085   .     S
C1096  O1098   1.221   .     D
C1096  H1097   1.085   .     S
C1099  O1101   1.222   .     D
C1099  H1100   1.075   .     S
C1102  O1104   1.221   .     D
C1102  H1103   1.075   .     S
C1105  O1107   1.221   .     D
C1105  H1106   1.074   .     S
C1108  O1110   1.222   .     D
C1108  H1109   1.070   .     S
C1111  O1156   1.301   .     A
C1111  O1153   1.302   .     A
C1111  C1120   1.449   .     S
C1112  O1154   1.301   .     A
C1112  O1155   1.301   .     A
C1112  C1119   1.449   .     S
C1113  C1138   1.429   .     A
C1113  C1167   1.481   .     S
C1114  C1170   1.484   .     S
C1114  C1137   1.424   .     A
C1114  C474    1.396   1_556 S
C1115  H1147   1.083   .     S
C1115  C1120   1.401   .     A
C1115  C1265   1.383   1_455 S
C1116  C1119   1.401   .     A
C1116  H1148   1.083   .     S
C1116  C1192   1.383   .     S
C1117  C1119   1.401   .     A
C1117  H1149   1.083   .     S
C1117  C1189   1.383   .     S
C1118  C1120   1.401   .     A
C1118  H1150   1.083   .     S
C1118  C1264   1.383   1_455 S
C1121  C1173   1.483   .     S
C1121  N1152   1.376   .     A
C1122  C1176   1.484   .     S
C1122  N1151   1.377   .     A
C1122  C679    1.433   1_565 S
C1123  N1152   1.378   .     A
C1123  C1179   1.485   .     S
C1124  N1151   1.378   .     A
C1124  C1182   1.482   .     S
C1124  C677    1.431   1_565 S
C1125  O1157   1.304   .     A
C1125  O1160   1.298   .     A
C1125  C1130   1.452   .     S
C1126  O1158   1.299   .     A
C1126  O1159   1.300   .     A
C1126  C1129   1.446   .     S
C1127  C1161   1.490   .     S
C1127  C1137   1.423   .     A
C1127  C1129   1.408   .     A
C1128  C1138   1.424   .     A
C1128  C1130   1.413   .     A
C1128  C1164   1.485   .     S
C1129  C1131   1.388   .     A
C1130  C1132   1.390   .     A
C1131  H1143   1.086   .     S
C1131  C1133   1.388   .     A
C1132  H1144   1.086   .     S
C1132  C1134   1.387   .     A
C1133  C1139   1.393   .     A
C1133  C1135   1.408   .     A
C1134  C1136   1.409   .     A
C1134  C1140   1.396   .     A
C1135  C1137   1.426   .     A
C1135  C470    1.410   1_556 S
C1136  C1138   1.427   .     A
C1139  H1145   1.086   .     S
C1139  C447    1.394   1_556 S
C1140  H1146   1.086   .     S
Cu1141 O1153   1.962   .     S
Cu1141 O1157   1.959   .     S
Cu1141 O1159   1.957   .     S
Cu1141 Cu1142  2.713   .     S
Cu1141 N1151   2.039   .     S
Cu1141 O1155   1.962   .     S
Cu1142 O1158   1.959   .     S
Cu1142 O1156   1.962   .     S
Cu1142 O1154   1.962   .     S
Cu1142 O1160   1.957   .     S
Cu1142 N1152   2.039   .     S
C1161  H1162   1.085   .     S
C1161  O1163   1.221   .     D
C1164  O1166   1.220   .     D
C1164  H1165   1.085   .     S
C1167  O1169   1.221   .     D
C1167  H1168   1.085   .     S
C1170  O1172   1.221   .     D
C1170  H1171   1.085   .     S
C1173  O1175   1.222   .     D
C1173  H1174   1.075   .     S
C1176  O1178   1.221   .     D
C1176  H1177   1.075   .     S
C1179  O1181   1.221   .     D
C1179  H1180   1.074   .     S
C1182  O1184   1.222   .     D
C1182  H1183   1.070   .     S
C1185  O1230   1.301   .     A
C1185  O1227   1.302   .     A
C1185  C1194   1.449   .     S
C1186  O1228   1.301   .     A
C1186  O1229   1.301   .     A
C1186  C1193   1.449   .     S
C1187  C1212   1.429   .     A
C1187  C1241   1.481   .     S
C1188  C1244   1.484   .     S
C1188  C1211   1.424   .     A
C1188  C548    1.396   1_556 S
C1189  H1221   1.083   .     S
C1189  C1194   1.401   .     A
C1190  C1193   1.401   .     A
C1190  H1222   1.083   .     S
C1190  C1266   1.383   .     S
C1191  C1193   1.401   .     A
C1191  H1223   1.083   .     S
C1191  C1263   1.383   .     S
C1192  C1194   1.401   .     A
C1192  H1224   1.083   .     S
C1195  C1247   1.483   .     S
C1195  N1226   1.376   .     A
C1196  C1250   1.484   .     S
C1196  N1225   1.377   .     A
C1196  C753    1.433   1_565 S
C1197  N1226   1.378   .     A
C1197  C1253   1.485   .     S
C1198  N1225   1.378   .     A
C1198  C1256   1.482   .     S
C1198  C751    1.431   1_565 S
C1199  O1231   1.304   .     A
C1199  O1234   1.298   .     A
C1199  C1204   1.452   .     S
C1200  O1232   1.299   .     A
C1200  O1233   1.300   .     A
C1200  C1203   1.446   .     S
C1201  C1235   1.490   .     S
C1201  C1211   1.423   .     A
C1201  C1203   1.408   .     A
C1202  C1212   1.424   .     A
C1202  C1204   1.413   .     A
C1202  C1238   1.485   .     S
C1203  C1205   1.388   .     A
C1204  C1206   1.390   .     A
C1205  H1217   1.086   .     S
C1205  C1207   1.388   .     A
C1206  H1218   1.086   .     S
C1206  C1208   1.387   .     A
C1207  C1213   1.393   .     A
C1207  C1209   1.408   .     A
C1208  C1210   1.409   .     A
C1208  C1214   1.396   .     A
C1209  C1211   1.426   .     A
C1209  C544    1.410   1_556 S
C1210  C1212   1.427   .     A
C1213  H1219   1.086   .     S
C1213  C521    1.394   1_556 S
C1214  H1220   1.086   .     S
Cu1215 O1227   1.962   .     S
Cu1215 O1231   1.959   .     S
Cu1215 O1233   1.957   .     S
Cu1215 Cu1216  2.713   .     S
Cu1215 N1225   2.039   .     S
Cu1215 O1229   1.962   .     S
Cu1216 O1232   1.959   .     S
Cu1216 O1230   1.962   .     S
Cu1216 O1228   1.962   .     S
Cu1216 O1234   1.957   .     S
Cu1216 N1226   2.039   .     S
C1235  H1236   1.085   .     S
C1235  O1237   1.221   .     D
C1238  O1240   1.220   .     D
C1238  H1239   1.085   .     S
C1241  O1243   1.221   .     D
C1241  H1242   1.085   .     S
C1244  O1246   1.221   .     D
C1244  H1245   1.085   .     S
C1247  O1249   1.222   .     D
C1247  H1248   1.075   .     S
C1250  O1252   1.221   .     D
C1250  H1251   1.075   .     S
C1253  O1255   1.221   .     D
C1253  H1254   1.074   .     S
C1256  O1258   1.222   .     D
C1256  H1257   1.070   .     S
C1259  O1304   1.301   .     A
C1259  O1301   1.302   .     A
C1259  C1268   1.449   .     S
C1260  O1302   1.301   .     A
C1260  O1303   1.301   .     A
C1260  C1267   1.449   .     S
C1261  C1286   1.429   .     A
C1261  C1315   1.481   .     S
C1262  C1318   1.484   .     S
C1262  C1285   1.424   .     A
C1262  C622    1.396   1_556 S
C1263  H1295   1.083   .     S
C1263  C1268   1.401   .     A
C1264  C1267   1.401   .     A
C1264  H1296   1.083   .     S
C1264  C1118   1.383   1_655 S
C1265  C1267   1.401   .     A
C1265  H1297   1.083   .     S
C1265  C1115   1.383   1_655 S
C1266  C1268   1.401   .     A
C1266  H1298   1.083   .     S
C1269  C1321   1.483   .     S
C1269  N1300   1.376   .     A
C1270  C1324   1.484   .     S
C1270  N1299   1.377   .     A
C1270  C827    1.433   1_565 S
C1271  N1300   1.378   .     A
C1271  C1327   1.485   .     S
C1272  N1299   1.378   .     A
C1272  C1330   1.482   .     S
C1272  C825    1.431   1_565 S
C1273  O1305   1.304   .     A
C1273  O1308   1.298   .     A
C1273  C1278   1.452   .     S
C1274  O1306   1.299   .     A
C1274  O1307   1.300   .     A
C1274  C1277   1.446   .     S
C1275  C1309   1.490   .     S
C1275  C1285   1.423   .     A
C1275  C1277   1.408   .     A
C1276  C1286   1.424   .     A
C1276  C1278   1.413   .     A
C1276  C1312   1.485   .     S
C1277  C1279   1.388   .     A
C1278  C1280   1.390   .     A
C1279  H1291   1.086   .     S
C1279  C1281   1.388   .     A
C1280  H1292   1.086   .     S
C1280  C1282   1.387   .     A
C1281  C1287   1.393   .     A
C1281  C1283   1.408   .     A
C1282  C1284   1.409   .     A
C1282  C1288   1.396   .     A
C1283  C1285   1.426   .     A
C1283  C618    1.410   1_556 S
C1284  C1286   1.427   .     A
C1287  H1293   1.086   .     S
C1287  C595    1.394   1_556 S
C1288  H1294   1.086   .     S
Cu1289 O1301   1.962   .     S
Cu1289 O1305   1.959   .     S
Cu1289 O1307   1.957   .     S
Cu1289 Cu1290  2.713   .     S
Cu1289 N1299   2.039   .     S
Cu1289 O1303   1.962   .     S
Cu1290 O1306   1.959   .     S
Cu1290 O1304   1.962   .     S
Cu1290 O1302   1.962   .     S
Cu1290 O1308   1.957   .     S
Cu1290 N1300   2.039   .     S
C1309  H1310   1.085   .     S
C1309  O1311   1.221   .     D
C1312  O1314   1.220   .     D
C1312  H1313   1.085   .     S
C1315  O1317   1.221   .     D
C1315  H1316   1.085   .     S
C1318  O1320   1.221   .     D
C1318  H1319   1.085   .     S
C1321  O1323   1.222   .     D
C1321  H1322   1.075   .     S
C1324  O1326   1.221   .     D
C1324  H1325   1.075   .     S
C1327  O1329   1.221   .     D
C1327  H1328   1.074   .     S
C1330  O1332   1.222   .     D
C1330  H1331   1.070   .     S
