data_str_m2_o1_o10_pcu_sym.119
_audit_creation_date              2020-01-03
_audit_creation_method            'Materials Studio'
_symmetry_space_group_name_H-M    'P1'
_symmetry_Int_Tables_number       1
_symmetry_cell_setting            triclinic
loop_
_symmetry_equiv_pos_as_xyz
  x,y,z
_cell_length_a                    26.2005
_cell_length_b                    32.5423
_cell_length_c                    28.7258
_cell_angle_alpha                 90.7857
_cell_angle_beta                  98.3904
_cell_angle_gamma                 91.1203
loop_
_atom_site_label
_atom_site_type_symbol
_atom_site_fract_x
_atom_site_fract_y
_atom_site_fract_z
_atom_site_U_iso_or_equiv
_atom_site_adp_type
_atom_site_occupancy
O1     O     0.16666   0.10655   0.20625   0.00000  Uiso   1.00
O2     O     0.16667   0.22678   0.12709   0.00000  Uiso   1.00
O3     O     0.16666   0.10654   0.12706   0.00000  Uiso   1.00
O4     O     0.16667   0.22679   0.20628   0.00000  Uiso   1.00
C5     C     0.16764   0.08745   0.16663   0.00000  Uiso   1.00
C6     C     0.16587   0.24588   0.16671   0.00000  Uiso   1.00
O7     O     0.09161   0.16667   0.19712   0.00000  Uiso   1.00
O8     O     0.24172   0.16666   0.13621   0.00000  Uiso   1.00
O9     O     0.09161   0.16666   0.11793   0.00000  Uiso   1.00
O10    O     0.24172   0.16667   0.21540   0.00000  Uiso   1.00
C11    C     0.06793   0.16661   0.15451   0.00000  Uiso   1.00
C12    C     0.26541   0.16670   0.17882   0.00000  Uiso   1.00
Cu13   Cu    0.16667   0.16667   0.21355   0.00000  Uiso   1.00
Cu14   Cu    0.16667   0.16666   0.11978   0.00000  Uiso   1.00
N15    N     0.16668   0.16668   0.28403   0.00000  Uiso   1.00
N16    N     0.16665   0.16666   0.04931   0.00000  Uiso   1.00
C17    C     0.01251   0.16663   0.14792   0.00000  Uiso   1.00
C18    C     0.32083   0.16663   0.18538   0.00000  Uiso   1.00
H19    H     0.32557   0.16669   0.11209   0.00000  Uiso   1.00
H20    H     0.00778   0.16655   0.22120   0.00000  Uiso   1.00
C21    C     0.14862   0.02087   0.12576   0.00000  Uiso   1.00
C22    C     0.18564   0.31240   0.20742   0.00000  Uiso   1.00
H23    H     0.13303   0.03686   0.09449   0.00000  Uiso   1.00
H24    H     0.20165   0.29627   0.23846   0.00000  Uiso   1.00
C25    C     0.14703   0.31142   0.12500   0.00000  Uiso   1.00
C26    C     0.18708   0.02190   0.20824   0.00000  Uiso   1.00
C27    C     0.16533   0.29052   0.16649   0.00000  Uiso   1.00
C28    C     0.16857   0.04279   0.16679   0.00000  Uiso   1.00
C29    C     0.12716   0.14805   0.01858   0.00000  Uiso   1.00
C30    C     0.20563   0.18593   0.31465   0.00000  Uiso   1.00
C31    C     0.12767   0.14797   0.30266   0.00000  Uiso   1.00
C32    C     0.20545   0.18566   0.03061   0.00000  Uiso   1.00
H33    H     0.09655   0.13278   0.27945   0.00000  Uiso   1.00
H34    H     0.23636   0.20118   0.05376   0.00000  Uiso   1.00
O35    O     0.12272   0.28991   0.08564   0.00000  Uiso   1.00
C36    C     0.15041   0.29583   0.04757   0.00000  Uiso   1.00
H37    H     0.13657   0.27261   0.01970   0.00000  Uiso   1.00
H38    H     0.19261   0.29139   0.05781   0.00000  Uiso   1.00
H39    H     0.14301   0.32662   0.03217   0.00000  Uiso   1.00
O40    O     0.21147   0.04350   0.24750   0.00000  Uiso   1.00
C41    C     0.18491   0.03668   0.28614   0.00000  Uiso   1.00
H42    H     0.14239   0.03981   0.27657   0.00000  Uiso   1.00
H43    H     0.19815   0.06026   0.31376   0.00000  Uiso   1.00
H44    H     0.19414   0.00615   0.30157   0.00000  Uiso   1.00
N45    N     0.08379   0.12927   0.03523   0.00000  Uiso   1.00
O46    O     0.03795   0.14305   0.02126   0.00000  Uiso   1.00
O47    O     0.08802   0.09307   0.05356   0.00000  Uiso   1.00
N48    N     0.24707   0.20715   0.29767   0.00000  Uiso   1.00
O49    O     0.24466   0.24674   0.29307   0.00000  Uiso   1.00
O50    O     0.29215   0.19039   0.30269   0.00000  Uiso   1.00
O51    O     0.50000   0.10655   0.20625   0.00000  Uiso   1.00
O52    O     0.50000   0.22678   0.12709   0.00000  Uiso   1.00
O53    O     0.50000   0.10654   0.12706   0.00000  Uiso   1.00
O54    O     0.50000   0.22679   0.20628   0.00000  Uiso   1.00
C55    C     0.50098   0.08745   0.16663   0.00000  Uiso   1.00
C56    C     0.49921   0.24588   0.16671   0.00000  Uiso   1.00
O57    O     0.42495   0.16667   0.19712   0.00000  Uiso   1.00
O58    O     0.57505   0.16666   0.13621   0.00000  Uiso   1.00
O59    O     0.42494   0.16666   0.11793   0.00000  Uiso   1.00
O60    O     0.57506   0.16667   0.21540   0.00000  Uiso   1.00
C61    C     0.40126   0.16661   0.15451   0.00000  Uiso   1.00
C62    C     0.59874   0.16670   0.17882   0.00000  Uiso   1.00
Cu63   Cu    0.50000   0.16667   0.21355   0.00000  Uiso   1.00
Cu64   Cu    0.50000   0.16666   0.11978   0.00000  Uiso   1.00
N65    N     0.50001   0.16668   0.28403   0.00000  Uiso   1.00
N66    N     0.49999   0.16666   0.04931   0.00000  Uiso   1.00
C67    C     0.34584   0.16663   0.14792   0.00000  Uiso   1.00
C68    C     0.65416   0.16663   0.18538   0.00000  Uiso   1.00
H69    H     0.65891   0.16669   0.11209   0.00000  Uiso   1.00
H70    H     0.34111   0.16655   0.22120   0.00000  Uiso   1.00
C71    C     0.48195   0.02087   0.12576   0.00000  Uiso   1.00
C72    C     0.51898   0.31240   0.20742   0.00000  Uiso   1.00
H73    H     0.46637   0.03686   0.09449   0.00000  Uiso   1.00
H74    H     0.53499   0.29627   0.23846   0.00000  Uiso   1.00
C75    C     0.48037   0.31142   0.12500   0.00000  Uiso   1.00
C76    C     0.52041   0.02190   0.20824   0.00000  Uiso   1.00
C77    C     0.49867   0.29052   0.16649   0.00000  Uiso   1.00
C78    C     0.50190   0.04279   0.16679   0.00000  Uiso   1.00
C79    C     0.46050   0.14805   0.01858   0.00000  Uiso   1.00
C80    C     0.53896   0.18593   0.31465   0.00000  Uiso   1.00
C81    C     0.46100   0.14797   0.30266   0.00000  Uiso   1.00
C82    C     0.53878   0.18566   0.03061   0.00000  Uiso   1.00
H83    H     0.42988   0.13278   0.27945   0.00000  Uiso   1.00
H84    H     0.56969   0.20118   0.05376   0.00000  Uiso   1.00
O85    O     0.45606   0.28991   0.08564   0.00000  Uiso   1.00
C86    C     0.48374   0.29583   0.04757   0.00000  Uiso   1.00
H87    H     0.46990   0.27261   0.01970   0.00000  Uiso   1.00
H88    H     0.52594   0.29139   0.05781   0.00000  Uiso   1.00
H89    H     0.47635   0.32662   0.03217   0.00000  Uiso   1.00
O90    O     0.54480   0.04350   0.24750   0.00000  Uiso   1.00
C91    C     0.51824   0.03668   0.28614   0.00000  Uiso   1.00
H92    H     0.47573   0.03981   0.27657   0.00000  Uiso   1.00
H93    H     0.53148   0.06026   0.31376   0.00000  Uiso   1.00
H94    H     0.52748   0.00615   0.30157   0.00000  Uiso   1.00
N95    N     0.41713   0.12927   0.03523   0.00000  Uiso   1.00
O96    O     0.37128   0.14305   0.02126   0.00000  Uiso   1.00
O97    O     0.42136   0.09307   0.05356   0.00000  Uiso   1.00
N98    N     0.58040   0.20715   0.29767   0.00000  Uiso   1.00
O99    O     0.57799   0.24674   0.29307   0.00000  Uiso   1.00
O100   O     0.62548   0.19039   0.30269   0.00000  Uiso   1.00
O101   O     0.83333   0.10655   0.20625   0.00000  Uiso   1.00
O102   O     0.83334   0.22678   0.12709   0.00000  Uiso   1.00
O103   O     0.83333   0.10654   0.12706   0.00000  Uiso   1.00
O104   O     0.83334   0.22679   0.20628   0.00000  Uiso   1.00
C105   C     0.83431   0.08745   0.16663   0.00000  Uiso   1.00
C106   C     0.83254   0.24588   0.16671   0.00000  Uiso   1.00
O107   O     0.75828   0.16667   0.19712   0.00000  Uiso   1.00
O108   O     0.90839   0.16666   0.13621   0.00000  Uiso   1.00
O109   O     0.75828   0.16666   0.11793   0.00000  Uiso   1.00
O110   O     0.90839   0.16667   0.21540   0.00000  Uiso   1.00
C111   C     0.73459   0.16661   0.15451   0.00000  Uiso   1.00
C112   C     0.93207   0.16670   0.17882   0.00000  Uiso   1.00
Cu113  Cu    0.83333   0.16667   0.21355   0.00000  Uiso   1.00
Cu114  Cu    0.83333   0.16666   0.11978   0.00000  Uiso   1.00
N115   N     0.83335   0.16668   0.28403   0.00000  Uiso   1.00
N116   N     0.83332   0.16666   0.04931   0.00000  Uiso   1.00
C117   C     0.67918   0.16663   0.14792   0.00000  Uiso   1.00
C118   C     0.98749   0.16663   0.18538   0.00000  Uiso   1.00
H119   H     0.99224   0.16669   0.11209   0.00000  Uiso   1.00
H120   H     0.67445   0.16655   0.22120   0.00000  Uiso   1.00
C121   C     0.81529   0.02087   0.12576   0.00000  Uiso   1.00
C122   C     0.85231   0.31240   0.20742   0.00000  Uiso   1.00
H123   H     0.79970   0.03686   0.09449   0.00000  Uiso   1.00
H124   H     0.86832   0.29627   0.23846   0.00000  Uiso   1.00
C125   C     0.81370   0.31142   0.12500   0.00000  Uiso   1.00
C126   C     0.85374   0.02190   0.20824   0.00000  Uiso   1.00
C127   C     0.83200   0.29052   0.16649   0.00000  Uiso   1.00
C128   C     0.83523   0.04279   0.16679   0.00000  Uiso   1.00
C129   C     0.79383   0.14805   0.01858   0.00000  Uiso   1.00
C130   C     0.87229   0.18593   0.31465   0.00000  Uiso   1.00
C131   C     0.79434   0.14797   0.30266   0.00000  Uiso   1.00
C132   C     0.87212   0.18566   0.03061   0.00000  Uiso   1.00
H133   H     0.76322   0.13278   0.27945   0.00000  Uiso   1.00
H134   H     0.90302   0.20118   0.05376   0.00000  Uiso   1.00
O135   O     0.78939   0.28991   0.08564   0.00000  Uiso   1.00
C136   C     0.81707   0.29583   0.04757   0.00000  Uiso   1.00
H137   H     0.80323   0.27261   0.01970   0.00000  Uiso   1.00
H138   H     0.85927   0.29139   0.05781   0.00000  Uiso   1.00
H139   H     0.80968   0.32662   0.03217   0.00000  Uiso   1.00
O140   O     0.87814   0.04350   0.24750   0.00000  Uiso   1.00
C141   C     0.85158   0.03668   0.28614   0.00000  Uiso   1.00
H142   H     0.80906   0.03981   0.27657   0.00000  Uiso   1.00
H143   H     0.86481   0.06026   0.31376   0.00000  Uiso   1.00
H144   H     0.86081   0.00615   0.30157   0.00000  Uiso   1.00
N145   N     0.75046   0.12927   0.03523   0.00000  Uiso   1.00
O146   O     0.70462   0.14305   0.02126   0.00000  Uiso   1.00
O147   O     0.75469   0.09307   0.05356   0.00000  Uiso   1.00
N148   N     0.91374   0.20715   0.29767   0.00000  Uiso   1.00
O149   O     0.91133   0.24674   0.29307   0.00000  Uiso   1.00
O150   O     0.95881   0.19039   0.30269   0.00000  Uiso   1.00
O151   O     0.16666   0.43989   0.20625   0.00000  Uiso   1.00
O152   O     0.16667   0.56011   0.12709   0.00000  Uiso   1.00
O153   O     0.16666   0.43988   0.12706   0.00000  Uiso   1.00
O154   O     0.16667   0.56012   0.20628   0.00000  Uiso   1.00
C155   C     0.16764   0.42078   0.16663   0.00000  Uiso   1.00
C156   C     0.16587   0.57921   0.16671   0.00000  Uiso   1.00
O157   O     0.09161   0.50000   0.19712   0.00000  Uiso   1.00
O158   O     0.24172   0.50000   0.13621   0.00000  Uiso   1.00
O159   O     0.09161   0.49999   0.11793   0.00000  Uiso   1.00
O160   O     0.24172   0.50001   0.21540   0.00000  Uiso   1.00
C161   C     0.06793   0.49994   0.15451   0.00000  Uiso   1.00
C162   C     0.26541   0.50003   0.17882   0.00000  Uiso   1.00
Cu163  Cu    0.16667   0.50001   0.21355   0.00000  Uiso   1.00
Cu164  Cu    0.16667   0.49999   0.11978   0.00000  Uiso   1.00
N165   N     0.16668   0.50001   0.28403   0.00000  Uiso   1.00
N166   N     0.16665   0.49999   0.04931   0.00000  Uiso   1.00
C167   C     0.01251   0.49996   0.14792   0.00000  Uiso   1.00
C168   C     0.32083   0.49996   0.18538   0.00000  Uiso   1.00
H169   H     0.32557   0.50002   0.11209   0.00000  Uiso   1.00
H170   H     0.00778   0.49989   0.22120   0.00000  Uiso   1.00
C171   C     0.14862   0.35420   0.12576   0.00000  Uiso   1.00
C172   C     0.18564   0.64574   0.20742   0.00000  Uiso   1.00
H173   H     0.13303   0.37019   0.09449   0.00000  Uiso   1.00
H174   H     0.20165   0.62961   0.23846   0.00000  Uiso   1.00
C175   C     0.14703   0.64475   0.12500   0.00000  Uiso   1.00
C176   C     0.18708   0.35523   0.20824   0.00000  Uiso   1.00
C177   C     0.16533   0.62386   0.16649   0.00000  Uiso   1.00
C178   C     0.16857   0.37612   0.16679   0.00000  Uiso   1.00
C179   C     0.12716   0.48139   0.01858   0.00000  Uiso   1.00
C180   C     0.20563   0.51926   0.31465   0.00000  Uiso   1.00
C181   C     0.12767   0.48130   0.30266   0.00000  Uiso   1.00
C182   C     0.20545   0.51899   0.03061   0.00000  Uiso   1.00
H183   H     0.09655   0.46611   0.27945   0.00000  Uiso   1.00
H184   H     0.23636   0.53451   0.05376   0.00000  Uiso   1.00
O185   O     0.12272   0.62325   0.08564   0.00000  Uiso   1.00
C186   C     0.15041   0.62917   0.04757   0.00000  Uiso   1.00
H187   H     0.13657   0.60595   0.01970   0.00000  Uiso   1.00
H188   H     0.19261   0.62473   0.05781   0.00000  Uiso   1.00
H189   H     0.14301   0.65996   0.03217   0.00000  Uiso   1.00
O190   O     0.21147   0.37683   0.24750   0.00000  Uiso   1.00
C191   C     0.18491   0.37001   0.28614   0.00000  Uiso   1.00
H192   H     0.14239   0.37314   0.27657   0.00000  Uiso   1.00
H193   H     0.19815   0.39359   0.31376   0.00000  Uiso   1.00
H194   H     0.19414   0.33948   0.30157   0.00000  Uiso   1.00
N195   N     0.08379   0.46260   0.03523   0.00000  Uiso   1.00
O196   O     0.03795   0.47638   0.02126   0.00000  Uiso   1.00
O197   O     0.08802   0.42640   0.05356   0.00000  Uiso   1.00
N198   N     0.24707   0.54048   0.29767   0.00000  Uiso   1.00
O199   O     0.24466   0.58007   0.29307   0.00000  Uiso   1.00
O200   O     0.29215   0.52373   0.30269   0.00000  Uiso   1.00
O201   O     0.50000   0.43989   0.20625   0.00000  Uiso   1.00
O202   O     0.50000   0.56011   0.12709   0.00000  Uiso   1.00
O203   O     0.50000   0.43988   0.12706   0.00000  Uiso   1.00
O204   O     0.50000   0.56012   0.20628   0.00000  Uiso   1.00
C205   C     0.50098   0.42078   0.16663   0.00000  Uiso   1.00
C206   C     0.49921   0.57921   0.16671   0.00000  Uiso   1.00
O207   O     0.42495   0.50000   0.19712   0.00000  Uiso   1.00
O208   O     0.57505   0.50000   0.13621   0.00000  Uiso   1.00
O209   O     0.42494   0.49999   0.11793   0.00000  Uiso   1.00
O210   O     0.57506   0.50001   0.21540   0.00000  Uiso   1.00
C211   C     0.40126   0.49994   0.15451   0.00000  Uiso   1.00
C212   C     0.59874   0.50003   0.17882   0.00000  Uiso   1.00
Cu213  Cu    0.50000   0.50001   0.21355   0.00000  Uiso   1.00
Cu214  Cu    0.50000   0.49999   0.11978   0.00000  Uiso   1.00
N215   N     0.50001   0.50001   0.28403   0.00000  Uiso   1.00
N216   N     0.49999   0.49999   0.04931   0.00000  Uiso   1.00
C217   C     0.34584   0.49996   0.14792   0.00000  Uiso   1.00
C218   C     0.65416   0.49996   0.18538   0.00000  Uiso   1.00
H219   H     0.65891   0.50002   0.11209   0.00000  Uiso   1.00
H220   H     0.34111   0.49989   0.22120   0.00000  Uiso   1.00
C221   C     0.48195   0.35420   0.12576   0.00000  Uiso   1.00
C222   C     0.51898   0.64574   0.20742   0.00000  Uiso   1.00
H223   H     0.46637   0.37019   0.09449   0.00000  Uiso   1.00
H224   H     0.53499   0.62961   0.23846   0.00000  Uiso   1.00
C225   C     0.48037   0.64475   0.12500   0.00000  Uiso   1.00
C226   C     0.52041   0.35523   0.20824   0.00000  Uiso   1.00
C227   C     0.49867   0.62386   0.16649   0.00000  Uiso   1.00
C228   C     0.50190   0.37612   0.16679   0.00000  Uiso   1.00
C229   C     0.46050   0.48139   0.01858   0.00000  Uiso   1.00
C230   C     0.53896   0.51926   0.31465   0.00000  Uiso   1.00
C231   C     0.46100   0.48130   0.30266   0.00000  Uiso   1.00
C232   C     0.53878   0.51899   0.03061   0.00000  Uiso   1.00
H233   H     0.42988   0.46611   0.27945   0.00000  Uiso   1.00
H234   H     0.56969   0.53451   0.05376   0.00000  Uiso   1.00
O235   O     0.45606   0.62325   0.08564   0.00000  Uiso   1.00
C236   C     0.48374   0.62917   0.04757   0.00000  Uiso   1.00
H237   H     0.46990   0.60595   0.01970   0.00000  Uiso   1.00
H238   H     0.52594   0.62473   0.05781   0.00000  Uiso   1.00
H239   H     0.47635   0.65996   0.03217   0.00000  Uiso   1.00
O240   O     0.54480   0.37683   0.24750   0.00000  Uiso   1.00
C241   C     0.51824   0.37001   0.28614   0.00000  Uiso   1.00
H242   H     0.47573   0.37314   0.27657   0.00000  Uiso   1.00
H243   H     0.53148   0.39359   0.31376   0.00000  Uiso   1.00
H244   H     0.52748   0.33948   0.30157   0.00000  Uiso   1.00
N245   N     0.41713   0.46260   0.03523   0.00000  Uiso   1.00
O246   O     0.37128   0.47638   0.02126   0.00000  Uiso   1.00
O247   O     0.42136   0.42640   0.05356   0.00000  Uiso   1.00
N248   N     0.58040   0.54048   0.29767   0.00000  Uiso   1.00
O249   O     0.57799   0.58007   0.29307   0.00000  Uiso   1.00
O250   O     0.62548   0.52373   0.30269   0.00000  Uiso   1.00
O251   O     0.83333   0.43989   0.20625   0.00000  Uiso   1.00
O252   O     0.83334   0.56011   0.12709   0.00000  Uiso   1.00
O253   O     0.83333   0.43988   0.12706   0.00000  Uiso   1.00
O254   O     0.83334   0.56012   0.20628   0.00000  Uiso   1.00
C255   C     0.83431   0.42078   0.16663   0.00000  Uiso   1.00
C256   C     0.83254   0.57921   0.16671   0.00000  Uiso   1.00
O257   O     0.75828   0.50000   0.19712   0.00000  Uiso   1.00
O258   O     0.90839   0.50000   0.13621   0.00000  Uiso   1.00
O259   O     0.75828   0.49999   0.11793   0.00000  Uiso   1.00
O260   O     0.90839   0.50001   0.21540   0.00000  Uiso   1.00
C261   C     0.73459   0.49994   0.15451   0.00000  Uiso   1.00
C262   C     0.93207   0.50003   0.17882   0.00000  Uiso   1.00
Cu263  Cu    0.83333   0.50001   0.21355   0.00000  Uiso   1.00
Cu264  Cu    0.83333   0.49999   0.11978   0.00000  Uiso   1.00
N265   N     0.83335   0.50001   0.28403   0.00000  Uiso   1.00
N266   N     0.83332   0.49999   0.04931   0.00000  Uiso   1.00
C267   C     0.67918   0.49996   0.14792   0.00000  Uiso   1.00
C268   C     0.98749   0.49996   0.18538   0.00000  Uiso   1.00
H269   H     0.99224   0.50002   0.11209   0.00000  Uiso   1.00
H270   H     0.67445   0.49989   0.22120   0.00000  Uiso   1.00
C271   C     0.81529   0.35420   0.12576   0.00000  Uiso   1.00
C272   C     0.85231   0.64574   0.20742   0.00000  Uiso   1.00
H273   H     0.79970   0.37019   0.09449   0.00000  Uiso   1.00
H274   H     0.86832   0.62961   0.23846   0.00000  Uiso   1.00
C275   C     0.81370   0.64475   0.12500   0.00000  Uiso   1.00
C276   C     0.85374   0.35523   0.20824   0.00000  Uiso   1.00
C277   C     0.83200   0.62386   0.16649   0.00000  Uiso   1.00
C278   C     0.83523   0.37612   0.16679   0.00000  Uiso   1.00
C279   C     0.79383   0.48139   0.01858   0.00000  Uiso   1.00
C280   C     0.87229   0.51926   0.31465   0.00000  Uiso   1.00
C281   C     0.79434   0.48130   0.30266   0.00000  Uiso   1.00
C282   C     0.87212   0.51899   0.03061   0.00000  Uiso   1.00
H283   H     0.76322   0.46611   0.27945   0.00000  Uiso   1.00
H284   H     0.90302   0.53451   0.05376   0.00000  Uiso   1.00
O285   O     0.78939   0.62325   0.08564   0.00000  Uiso   1.00
C286   C     0.81707   0.62917   0.04757   0.00000  Uiso   1.00
H287   H     0.80323   0.60595   0.01970   0.00000  Uiso   1.00
H288   H     0.85927   0.62473   0.05781   0.00000  Uiso   1.00
H289   H     0.80968   0.65996   0.03217   0.00000  Uiso   1.00
O290   O     0.87814   0.37683   0.24750   0.00000  Uiso   1.00
C291   C     0.85158   0.37001   0.28614   0.00000  Uiso   1.00
H292   H     0.80906   0.37314   0.27657   0.00000  Uiso   1.00
H293   H     0.86481   0.39359   0.31376   0.00000  Uiso   1.00
H294   H     0.86081   0.33948   0.30157   0.00000  Uiso   1.00
N295   N     0.75046   0.46260   0.03523   0.00000  Uiso   1.00
O296   O     0.70462   0.47638   0.02126   0.00000  Uiso   1.00
O297   O     0.75469   0.42640   0.05356   0.00000  Uiso   1.00
N298   N     0.91374   0.54048   0.29767   0.00000  Uiso   1.00
O299   O     0.91133   0.58007   0.29307   0.00000  Uiso   1.00
O300   O     0.95881   0.52373   0.30269   0.00000  Uiso   1.00
O301   O     0.16666   0.77322   0.20625   0.00000  Uiso   1.00
O302   O     0.16667   0.89345   0.12709   0.00000  Uiso   1.00
O303   O     0.16666   0.77321   0.12706   0.00000  Uiso   1.00
O304   O     0.16667   0.89346   0.20628   0.00000  Uiso   1.00
C305   C     0.16764   0.75412   0.16663   0.00000  Uiso   1.00
C306   C     0.16587   0.91254   0.16671   0.00000  Uiso   1.00
O307   O     0.09161   0.83334   0.19712   0.00000  Uiso   1.00
O308   O     0.24172   0.83333   0.13621   0.00000  Uiso   1.00
O309   O     0.09161   0.83333   0.11793   0.00000  Uiso   1.00
O310   O     0.24172   0.83334   0.21540   0.00000  Uiso   1.00
C311   C     0.06793   0.83327   0.15451   0.00000  Uiso   1.00
C312   C     0.26541   0.83337   0.17882   0.00000  Uiso   1.00
Cu313  Cu    0.16667   0.83334   0.21355   0.00000  Uiso   1.00
Cu314  Cu    0.16667   0.83333   0.11978   0.00000  Uiso   1.00
N315   N     0.16668   0.83334   0.28403   0.00000  Uiso   1.00
N316   N     0.16665   0.83332   0.04931   0.00000  Uiso   1.00
C317   C     0.01251   0.83330   0.14792   0.00000  Uiso   1.00
C318   C     0.32083   0.83330   0.18538   0.00000  Uiso   1.00
H319   H     0.32557   0.83335   0.11209   0.00000  Uiso   1.00
H320   H     0.00778   0.83322   0.22120   0.00000  Uiso   1.00
C321   C     0.14862   0.68754   0.12576   0.00000  Uiso   1.00
C322   C     0.18564   0.97907   0.20742   0.00000  Uiso   1.00
H323   H     0.13303   0.70352   0.09449   0.00000  Uiso   1.00
H324   H     0.20165   0.96294   0.23846   0.00000  Uiso   1.00
C325   C     0.14703   0.97808   0.12500   0.00000  Uiso   1.00
C326   C     0.18708   0.68856   0.20824   0.00000  Uiso   1.00
C327   C     0.16533   0.95719   0.16649   0.00000  Uiso   1.00
C328   C     0.16857   0.70945   0.16679   0.00000  Uiso   1.00
C329   C     0.12716   0.81472   0.01858   0.00000  Uiso   1.00
C330   C     0.20563   0.85260   0.31465   0.00000  Uiso   1.00
C331   C     0.12767   0.81464   0.30266   0.00000  Uiso   1.00
C332   C     0.20545   0.85232   0.03061   0.00000  Uiso   1.00
H333   H     0.09655   0.79944   0.27945   0.00000  Uiso   1.00
H334   H     0.23636   0.86785   0.05376   0.00000  Uiso   1.00
O335   O     0.12272   0.95658   0.08564   0.00000  Uiso   1.00
C336   C     0.15041   0.96250   0.04757   0.00000  Uiso   1.00
H337   H     0.13657   0.93928   0.01970   0.00000  Uiso   1.00
H338   H     0.19261   0.95806   0.05781   0.00000  Uiso   1.00
H339   H     0.14301   0.99329   0.03217   0.00000  Uiso   1.00
O340   O     0.21147   0.71016   0.24750   0.00000  Uiso   1.00
C341   C     0.18491   0.70335   0.28614   0.00000  Uiso   1.00
H342   H     0.14239   0.70648   0.27657   0.00000  Uiso   1.00
H343   H     0.19815   0.72692   0.31376   0.00000  Uiso   1.00
H344   H     0.19414   0.67282   0.30157   0.00000  Uiso   1.00
N345   N     0.08379   0.79594   0.03523   0.00000  Uiso   1.00
O346   O     0.03795   0.80972   0.02126   0.00000  Uiso   1.00
O347   O     0.08802   0.75974   0.05356   0.00000  Uiso   1.00
N348   N     0.24707   0.87381   0.29767   0.00000  Uiso   1.00
O349   O     0.24466   0.91340   0.29307   0.00000  Uiso   1.00
O350   O     0.29215   0.85706   0.30269   0.00000  Uiso   1.00
O351   O     0.50000   0.77322   0.20625   0.00000  Uiso   1.00
O352   O     0.50000   0.89345   0.12709   0.00000  Uiso   1.00
O353   O     0.50000   0.77321   0.12706   0.00000  Uiso   1.00
O354   O     0.50000   0.89346   0.20628   0.00000  Uiso   1.00
C355   C     0.50098   0.75412   0.16663   0.00000  Uiso   1.00
C356   C     0.49921   0.91254   0.16671   0.00000  Uiso   1.00
O357   O     0.42495   0.83334   0.19712   0.00000  Uiso   1.00
O358   O     0.57505   0.83333   0.13621   0.00000  Uiso   1.00
O359   O     0.42494   0.83333   0.11793   0.00000  Uiso   1.00
O360   O     0.57506   0.83334   0.21540   0.00000  Uiso   1.00
C361   C     0.40126   0.83327   0.15451   0.00000  Uiso   1.00
C362   C     0.59874   0.83337   0.17882   0.00000  Uiso   1.00
Cu363  Cu    0.50000   0.83334   0.21355   0.00000  Uiso   1.00
Cu364  Cu    0.50000   0.83333   0.11978   0.00000  Uiso   1.00
N365   N     0.50001   0.83334   0.28403   0.00000  Uiso   1.00
N366   N     0.49999   0.83332   0.04931   0.00000  Uiso   1.00
C367   C     0.34584   0.83330   0.14792   0.00000  Uiso   1.00
C368   C     0.65416   0.83330   0.18538   0.00000  Uiso   1.00
H369   H     0.65891   0.83335   0.11209   0.00000  Uiso   1.00
H370   H     0.34111   0.83322   0.22120   0.00000  Uiso   1.00
C371   C     0.48195   0.68754   0.12576   0.00000  Uiso   1.00
C372   C     0.51898   0.97907   0.20742   0.00000  Uiso   1.00
H373   H     0.46637   0.70352   0.09449   0.00000  Uiso   1.00
H374   H     0.53499   0.96294   0.23846   0.00000  Uiso   1.00
C375   C     0.48037   0.97808   0.12500   0.00000  Uiso   1.00
C376   C     0.52041   0.68856   0.20824   0.00000  Uiso   1.00
C377   C     0.49867   0.95719   0.16649   0.00000  Uiso   1.00
C378   C     0.50190   0.70945   0.16679   0.00000  Uiso   1.00
C379   C     0.46050   0.81472   0.01858   0.00000  Uiso   1.00
C380   C     0.53896   0.85260   0.31465   0.00000  Uiso   1.00
C381   C     0.46100   0.81464   0.30266   0.00000  Uiso   1.00
C382   C     0.53878   0.85232   0.03061   0.00000  Uiso   1.00
H383   H     0.42988   0.79944   0.27945   0.00000  Uiso   1.00
H384   H     0.56969   0.86785   0.05376   0.00000  Uiso   1.00
O385   O     0.45606   0.95658   0.08564   0.00000  Uiso   1.00
C386   C     0.48374   0.96250   0.04757   0.00000  Uiso   1.00
H387   H     0.46990   0.93928   0.01970   0.00000  Uiso   1.00
H388   H     0.52594   0.95806   0.05781   0.00000  Uiso   1.00
H389   H     0.47635   0.99329   0.03217   0.00000  Uiso   1.00
O390   O     0.54480   0.71016   0.24750   0.00000  Uiso   1.00
C391   C     0.51824   0.70335   0.28614   0.00000  Uiso   1.00
H392   H     0.47573   0.70648   0.27657   0.00000  Uiso   1.00
H393   H     0.53148   0.72692   0.31376   0.00000  Uiso   1.00
H394   H     0.52748   0.67282   0.30157   0.00000  Uiso   1.00
N395   N     0.41713   0.79594   0.03523   0.00000  Uiso   1.00
O396   O     0.37128   0.80972   0.02126   0.00000  Uiso   1.00
O397   O     0.42136   0.75974   0.05356   0.00000  Uiso   1.00
N398   N     0.58040   0.87381   0.29767   0.00000  Uiso   1.00
O399   O     0.57799   0.91340   0.29307   0.00000  Uiso   1.00
O400   O     0.62548   0.85706   0.30269   0.00000  Uiso   1.00
O401   O     0.83333   0.77322   0.20625   0.00000  Uiso   1.00
O402   O     0.83334   0.89345   0.12709   0.00000  Uiso   1.00
O403   O     0.83333   0.77321   0.12706   0.00000  Uiso   1.00
O404   O     0.83334   0.89346   0.20628   0.00000  Uiso   1.00
C405   C     0.83431   0.75412   0.16663   0.00000  Uiso   1.00
C406   C     0.83254   0.91254   0.16671   0.00000  Uiso   1.00
O407   O     0.75828   0.83334   0.19712   0.00000  Uiso   1.00
O408   O     0.90839   0.83333   0.13621   0.00000  Uiso   1.00
O409   O     0.75828   0.83333   0.11793   0.00000  Uiso   1.00
O410   O     0.90839   0.83334   0.21540   0.00000  Uiso   1.00
C411   C     0.73459   0.83327   0.15451   0.00000  Uiso   1.00
C412   C     0.93207   0.83337   0.17882   0.00000  Uiso   1.00
Cu413  Cu    0.83333   0.83334   0.21355   0.00000  Uiso   1.00
Cu414  Cu    0.83333   0.83333   0.11978   0.00000  Uiso   1.00
N415   N     0.83335   0.83334   0.28403   0.00000  Uiso   1.00
N416   N     0.83332   0.83332   0.04931   0.00000  Uiso   1.00
C417   C     0.67918   0.83330   0.14792   0.00000  Uiso   1.00
C418   C     0.98749   0.83330   0.18538   0.00000  Uiso   1.00
H419   H     0.99224   0.83335   0.11209   0.00000  Uiso   1.00
H420   H     0.67445   0.83322   0.22120   0.00000  Uiso   1.00
C421   C     0.81529   0.68754   0.12576   0.00000  Uiso   1.00
C422   C     0.85231   0.97907   0.20742   0.00000  Uiso   1.00
H423   H     0.79970   0.70352   0.09449   0.00000  Uiso   1.00
H424   H     0.86832   0.96294   0.23846   0.00000  Uiso   1.00
C425   C     0.81370   0.97808   0.12500   0.00000  Uiso   1.00
C426   C     0.85374   0.68856   0.20824   0.00000  Uiso   1.00
C427   C     0.83200   0.95719   0.16649   0.00000  Uiso   1.00
C428   C     0.83523   0.70945   0.16679   0.00000  Uiso   1.00
C429   C     0.79383   0.81472   0.01858   0.00000  Uiso   1.00
C430   C     0.87229   0.85260   0.31465   0.00000  Uiso   1.00
C431   C     0.79434   0.81464   0.30266   0.00000  Uiso   1.00
C432   C     0.87212   0.85232   0.03061   0.00000  Uiso   1.00
H433   H     0.76322   0.79944   0.27945   0.00000  Uiso   1.00
H434   H     0.90302   0.86785   0.05376   0.00000  Uiso   1.00
O435   O     0.78939   0.95658   0.08564   0.00000  Uiso   1.00
C436   C     0.81707   0.96250   0.04757   0.00000  Uiso   1.00
H437   H     0.80323   0.93928   0.01970   0.00000  Uiso   1.00
H438   H     0.85927   0.95806   0.05781   0.00000  Uiso   1.00
H439   H     0.80968   0.99329   0.03217   0.00000  Uiso   1.00
O440   O     0.87814   0.71016   0.24750   0.00000  Uiso   1.00
C441   C     0.85158   0.70335   0.28614   0.00000  Uiso   1.00
H442   H     0.80906   0.70648   0.27657   0.00000  Uiso   1.00
H443   H     0.86481   0.72692   0.31376   0.00000  Uiso   1.00
H444   H     0.86081   0.67282   0.30157   0.00000  Uiso   1.00
N445   N     0.75046   0.79594   0.03523   0.00000  Uiso   1.00
O446   O     0.70462   0.80972   0.02126   0.00000  Uiso   1.00
O447   O     0.75469   0.75974   0.05356   0.00000  Uiso   1.00
N448   N     0.91374   0.87381   0.29767   0.00000  Uiso   1.00
O449   O     0.91133   0.91340   0.29307   0.00000  Uiso   1.00
O450   O     0.95881   0.85706   0.30269   0.00000  Uiso   1.00
O451   O     0.16666   0.10655   0.53958   0.00000  Uiso   1.00
O452   O     0.16667   0.22678   0.46042   0.00000  Uiso   1.00
O453   O     0.16666   0.10654   0.46039   0.00000  Uiso   1.00
O454   O     0.16667   0.22679   0.53961   0.00000  Uiso   1.00
C455   C     0.16764   0.08745   0.49996   0.00000  Uiso   1.00
C456   C     0.16587   0.24588   0.50004   0.00000  Uiso   1.00
O457   O     0.09161   0.16667   0.53046   0.00000  Uiso   1.00
O458   O     0.24172   0.16666   0.46954   0.00000  Uiso   1.00
O459   O     0.09161   0.16666   0.45127   0.00000  Uiso   1.00
O460   O     0.24172   0.16667   0.54873   0.00000  Uiso   1.00
C461   C     0.06793   0.16661   0.48784   0.00000  Uiso   1.00
C462   C     0.26541   0.16670   0.51215   0.00000  Uiso   1.00
Cu463  Cu    0.16667   0.16667   0.54689   0.00000  Uiso   1.00
Cu464  Cu    0.16667   0.16666   0.45311   0.00000  Uiso   1.00
N465   N     0.16668   0.16668   0.61736   0.00000  Uiso   1.00
N466   N     0.16665   0.16666   0.38264   0.00000  Uiso   1.00
C467   C     0.01251   0.16663   0.48126   0.00000  Uiso   1.00
C468   C     0.32083   0.16663   0.51871   0.00000  Uiso   1.00
H469   H     0.32557   0.16669   0.44543   0.00000  Uiso   1.00
H470   H     0.00778   0.16655   0.55453   0.00000  Uiso   1.00
C471   C     0.14862   0.02087   0.45909   0.00000  Uiso   1.00
C472   C     0.18564   0.31240   0.54075   0.00000  Uiso   1.00
H473   H     0.13303   0.03686   0.42782   0.00000  Uiso   1.00
H474   H     0.20165   0.29627   0.57180   0.00000  Uiso   1.00
C475   C     0.14703   0.31142   0.45834   0.00000  Uiso   1.00
C476   C     0.18708   0.02190   0.54157   0.00000  Uiso   1.00
C477   C     0.16533   0.29052   0.49982   0.00000  Uiso   1.00
C478   C     0.16857   0.04279   0.50013   0.00000  Uiso   1.00
C479   C     0.12716   0.14805   0.35191   0.00000  Uiso   1.00
C480   C     0.20563   0.18593   0.64798   0.00000  Uiso   1.00
C481   C     0.12767   0.14797   0.63600   0.00000  Uiso   1.00
C482   C     0.20545   0.18566   0.36394   0.00000  Uiso   1.00
H483   H     0.09655   0.13278   0.61278   0.00000  Uiso   1.00
H484   H     0.23636   0.20118   0.38709   0.00000  Uiso   1.00
O485   O     0.12272   0.28991   0.41898   0.00000  Uiso   1.00
C486   C     0.15041   0.29583   0.38090   0.00000  Uiso   1.00
H487   H     0.13657   0.27261   0.35304   0.00000  Uiso   1.00
H488   H     0.19261   0.29139   0.39114   0.00000  Uiso   1.00
H489   H     0.14301   0.32662   0.36550   0.00000  Uiso   1.00
O490   O     0.21147   0.04350   0.58083   0.00000  Uiso   1.00
C491   C     0.18491   0.03668   0.61947   0.00000  Uiso   1.00
H492   H     0.14239   0.03981   0.60990   0.00000  Uiso   1.00
H493   H     0.19815   0.06026   0.64709   0.00000  Uiso   1.00
H494   H     0.19414   0.00615   0.63490   0.00000  Uiso   1.00
N495   N     0.08379   0.12927   0.36856   0.00000  Uiso   1.00
O496   O     0.03795   0.14305   0.35459   0.00000  Uiso   1.00
O497   O     0.08802   0.09307   0.38690   0.00000  Uiso   1.00
N498   N     0.24707   0.20715   0.63100   0.00000  Uiso   1.00
O499   O     0.24466   0.24674   0.62641   0.00000  Uiso   1.00
O500   O     0.29215   0.19039   0.63603   0.00000  Uiso   1.00
O501   O     0.50000   0.10655   0.53958   0.00000  Uiso   1.00
O502   O     0.50000   0.22678   0.46042   0.00000  Uiso   1.00
O503   O     0.50000   0.10654   0.46039   0.00000  Uiso   1.00
O504   O     0.50000   0.22679   0.53961   0.00000  Uiso   1.00
C505   C     0.50098   0.08745   0.49996   0.00000  Uiso   1.00
C506   C     0.49921   0.24588   0.50004   0.00000  Uiso   1.00
O507   O     0.42495   0.16667   0.53046   0.00000  Uiso   1.00
O508   O     0.57505   0.16666   0.46954   0.00000  Uiso   1.00
O509   O     0.42494   0.16666   0.45127   0.00000  Uiso   1.00
O510   O     0.57506   0.16667   0.54873   0.00000  Uiso   1.00
C511   C     0.40126   0.16661   0.48784   0.00000  Uiso   1.00
C512   C     0.59874   0.16670   0.51215   0.00000  Uiso   1.00
Cu513  Cu    0.50000   0.16667   0.54689   0.00000  Uiso   1.00
Cu514  Cu    0.50000   0.16666   0.45311   0.00000  Uiso   1.00
N515   N     0.50001   0.16668   0.61736   0.00000  Uiso   1.00
N516   N     0.49999   0.16666   0.38264   0.00000  Uiso   1.00
C517   C     0.34584   0.16663   0.48126   0.00000  Uiso   1.00
C518   C     0.65416   0.16663   0.51871   0.00000  Uiso   1.00
H519   H     0.65891   0.16669   0.44543   0.00000  Uiso   1.00
H520   H     0.34111   0.16655   0.55453   0.00000  Uiso   1.00
C521   C     0.48195   0.02087   0.45909   0.00000  Uiso   1.00
C522   C     0.51898   0.31240   0.54075   0.00000  Uiso   1.00
H523   H     0.46637   0.03686   0.42782   0.00000  Uiso   1.00
H524   H     0.53499   0.29627   0.57180   0.00000  Uiso   1.00
C525   C     0.48037   0.31142   0.45834   0.00000  Uiso   1.00
C526   C     0.52041   0.02190   0.54157   0.00000  Uiso   1.00
C527   C     0.49867   0.29052   0.49982   0.00000  Uiso   1.00
C528   C     0.50190   0.04279   0.50013   0.00000  Uiso   1.00
C529   C     0.46050   0.14805   0.35191   0.00000  Uiso   1.00
C530   C     0.53896   0.18593   0.64798   0.00000  Uiso   1.00
C531   C     0.46100   0.14797   0.63600   0.00000  Uiso   1.00
C532   C     0.53878   0.18566   0.36394   0.00000  Uiso   1.00
H533   H     0.42988   0.13278   0.61278   0.00000  Uiso   1.00
H534   H     0.56969   0.20118   0.38709   0.00000  Uiso   1.00
O535   O     0.45606   0.28991   0.41898   0.00000  Uiso   1.00
C536   C     0.48374   0.29583   0.38090   0.00000  Uiso   1.00
H537   H     0.46990   0.27261   0.35304   0.00000  Uiso   1.00
H538   H     0.52594   0.29139   0.39114   0.00000  Uiso   1.00
H539   H     0.47635   0.32662   0.36550   0.00000  Uiso   1.00
O540   O     0.54480   0.04350   0.58083   0.00000  Uiso   1.00
C541   C     0.51824   0.03668   0.61947   0.00000  Uiso   1.00
H542   H     0.47573   0.03981   0.60990   0.00000  Uiso   1.00
H543   H     0.53148   0.06026   0.64709   0.00000  Uiso   1.00
H544   H     0.52748   0.00615   0.63490   0.00000  Uiso   1.00
N545   N     0.41713   0.12927   0.36856   0.00000  Uiso   1.00
O546   O     0.37128   0.14305   0.35459   0.00000  Uiso   1.00
O547   O     0.42136   0.09307   0.38690   0.00000  Uiso   1.00
N548   N     0.58040   0.20715   0.63100   0.00000  Uiso   1.00
O549   O     0.57799   0.24674   0.62641   0.00000  Uiso   1.00
O550   O     0.62548   0.19039   0.63603   0.00000  Uiso   1.00
O551   O     0.83333   0.10655   0.53958   0.00000  Uiso   1.00
O552   O     0.83334   0.22678   0.46042   0.00000  Uiso   1.00
O553   O     0.83333   0.10654   0.46039   0.00000  Uiso   1.00
O554   O     0.83334   0.22679   0.53961   0.00000  Uiso   1.00
C555   C     0.83431   0.08745   0.49996   0.00000  Uiso   1.00
C556   C     0.83254   0.24588   0.50004   0.00000  Uiso   1.00
O557   O     0.75828   0.16667   0.53046   0.00000  Uiso   1.00
O558   O     0.90839   0.16666   0.46954   0.00000  Uiso   1.00
O559   O     0.75828   0.16666   0.45127   0.00000  Uiso   1.00
O560   O     0.90839   0.16667   0.54873   0.00000  Uiso   1.00
C561   C     0.73459   0.16661   0.48784   0.00000  Uiso   1.00
C562   C     0.93207   0.16670   0.51215   0.00000  Uiso   1.00
Cu563  Cu    0.83333   0.16667   0.54689   0.00000  Uiso   1.00
Cu564  Cu    0.83333   0.16666   0.45311   0.00000  Uiso   1.00
N565   N     0.83335   0.16668   0.61736   0.00000  Uiso   1.00
N566   N     0.83332   0.16666   0.38264   0.00000  Uiso   1.00
C567   C     0.67918   0.16663   0.48126   0.00000  Uiso   1.00
C568   C     0.98749   0.16663   0.51871   0.00000  Uiso   1.00
H569   H     0.99224   0.16669   0.44543   0.00000  Uiso   1.00
H570   H     0.67445   0.16655   0.55453   0.00000  Uiso   1.00
C571   C     0.81529   0.02087   0.45909   0.00000  Uiso   1.00
C572   C     0.85231   0.31240   0.54075   0.00000  Uiso   1.00
H573   H     0.79970   0.03686   0.42782   0.00000  Uiso   1.00
H574   H     0.86832   0.29627   0.57180   0.00000  Uiso   1.00
C575   C     0.81370   0.31142   0.45834   0.00000  Uiso   1.00
C576   C     0.85374   0.02190   0.54157   0.00000  Uiso   1.00
C577   C     0.83200   0.29052   0.49982   0.00000  Uiso   1.00
C578   C     0.83523   0.04279   0.50013   0.00000  Uiso   1.00
C579   C     0.79383   0.14805   0.35191   0.00000  Uiso   1.00
C580   C     0.87229   0.18593   0.64798   0.00000  Uiso   1.00
C581   C     0.79434   0.14797   0.63600   0.00000  Uiso   1.00
C582   C     0.87212   0.18566   0.36394   0.00000  Uiso   1.00
H583   H     0.76322   0.13278   0.61278   0.00000  Uiso   1.00
H584   H     0.90302   0.20118   0.38709   0.00000  Uiso   1.00
O585   O     0.78939   0.28991   0.41898   0.00000  Uiso   1.00
C586   C     0.81707   0.29583   0.38090   0.00000  Uiso   1.00
H587   H     0.80323   0.27261   0.35304   0.00000  Uiso   1.00
H588   H     0.85927   0.29139   0.39114   0.00000  Uiso   1.00
H589   H     0.80968   0.32662   0.36550   0.00000  Uiso   1.00
O590   O     0.87814   0.04350   0.58083   0.00000  Uiso   1.00
C591   C     0.85158   0.03668   0.61947   0.00000  Uiso   1.00
H592   H     0.80906   0.03981   0.60990   0.00000  Uiso   1.00
H593   H     0.86481   0.06026   0.64709   0.00000  Uiso   1.00
H594   H     0.86081   0.00615   0.63490   0.00000  Uiso   1.00
N595   N     0.75046   0.12927   0.36856   0.00000  Uiso   1.00
O596   O     0.70462   0.14305   0.35459   0.00000  Uiso   1.00
O597   O     0.75469   0.09307   0.38690   0.00000  Uiso   1.00
N598   N     0.91374   0.20715   0.63100   0.00000  Uiso   1.00
O599   O     0.91133   0.24674   0.62641   0.00000  Uiso   1.00
O600   O     0.95881   0.19039   0.63603   0.00000  Uiso   1.00
O601   O     0.16666   0.43989   0.53958   0.00000  Uiso   1.00
O602   O     0.16667   0.56011   0.46042   0.00000  Uiso   1.00
O603   O     0.16666   0.43988   0.46039   0.00000  Uiso   1.00
O604   O     0.16667   0.56012   0.53961   0.00000  Uiso   1.00
C605   C     0.16764   0.42078   0.49996   0.00000  Uiso   1.00
C606   C     0.16587   0.57921   0.50004   0.00000  Uiso   1.00
O607   O     0.09161   0.50000   0.53046   0.00000  Uiso   1.00
O608   O     0.24172   0.50000   0.46954   0.00000  Uiso   1.00
O609   O     0.09161   0.49999   0.45127   0.00000  Uiso   1.00
O610   O     0.24172   0.50001   0.54873   0.00000  Uiso   1.00
C611   C     0.06793   0.49994   0.48784   0.00000  Uiso   1.00
C612   C     0.26541   0.50003   0.51215   0.00000  Uiso   1.00
Cu613  Cu    0.16667   0.50001   0.54689   0.00000  Uiso   1.00
Cu614  Cu    0.16667   0.49999   0.45311   0.00000  Uiso   1.00
N615   N     0.16668   0.50001   0.61736   0.00000  Uiso   1.00
N616   N     0.16665   0.49999   0.38264   0.00000  Uiso   1.00
C617   C     0.01251   0.49996   0.48126   0.00000  Uiso   1.00
C618   C     0.32083   0.49996   0.51871   0.00000  Uiso   1.00
H619   H     0.32557   0.50002   0.44543   0.00000  Uiso   1.00
H620   H     0.00778   0.49989   0.55453   0.00000  Uiso   1.00
C621   C     0.14862   0.35420   0.45909   0.00000  Uiso   1.00
C622   C     0.18564   0.64574   0.54075   0.00000  Uiso   1.00
H623   H     0.13303   0.37019   0.42782   0.00000  Uiso   1.00
H624   H     0.20165   0.62961   0.57180   0.00000  Uiso   1.00
C625   C     0.14703   0.64475   0.45834   0.00000  Uiso   1.00
C626   C     0.18708   0.35523   0.54157   0.00000  Uiso   1.00
C627   C     0.16533   0.62386   0.49982   0.00000  Uiso   1.00
C628   C     0.16857   0.37612   0.50013   0.00000  Uiso   1.00
C629   C     0.12716   0.48139   0.35191   0.00000  Uiso   1.00
C630   C     0.20563   0.51926   0.64798   0.00000  Uiso   1.00
C631   C     0.12767   0.48130   0.63600   0.00000  Uiso   1.00
C632   C     0.20545   0.51899   0.36394   0.00000  Uiso   1.00
H633   H     0.09655   0.46611   0.61278   0.00000  Uiso   1.00
H634   H     0.23636   0.53451   0.38709   0.00000  Uiso   1.00
O635   O     0.12272   0.62325   0.41898   0.00000  Uiso   1.00
C636   C     0.15041   0.62917   0.38090   0.00000  Uiso   1.00
H637   H     0.13657   0.60595   0.35304   0.00000  Uiso   1.00
H638   H     0.19261   0.62473   0.39114   0.00000  Uiso   1.00
H639   H     0.14301   0.65996   0.36550   0.00000  Uiso   1.00
O640   O     0.21147   0.37683   0.58083   0.00000  Uiso   1.00
C641   C     0.18491   0.37001   0.61947   0.00000  Uiso   1.00
H642   H     0.14239   0.37314   0.60990   0.00000  Uiso   1.00
H643   H     0.19815   0.39359   0.64709   0.00000  Uiso   1.00
H644   H     0.19414   0.33948   0.63490   0.00000  Uiso   1.00
N645   N     0.08379   0.46260   0.36856   0.00000  Uiso   1.00
O646   O     0.03795   0.47638   0.35459   0.00000  Uiso   1.00
O647   O     0.08802   0.42640   0.38690   0.00000  Uiso   1.00
N648   N     0.24707   0.54048   0.63100   0.00000  Uiso   1.00
O649   O     0.24466   0.58007   0.62641   0.00000  Uiso   1.00
O650   O     0.29215   0.52373   0.63603   0.00000  Uiso   1.00
O651   O     0.50000   0.43989   0.53958   0.00000  Uiso   1.00
O652   O     0.50000   0.56011   0.46042   0.00000  Uiso   1.00
O653   O     0.50000   0.43988   0.46039   0.00000  Uiso   1.00
O654   O     0.50000   0.56012   0.53961   0.00000  Uiso   1.00
C655   C     0.50098   0.42078   0.49996   0.00000  Uiso   1.00
C656   C     0.49921   0.57921   0.50004   0.00000  Uiso   1.00
O657   O     0.42495   0.50000   0.53046   0.00000  Uiso   1.00
O658   O     0.57505   0.50000   0.46954   0.00000  Uiso   1.00
O659   O     0.42494   0.49999   0.45127   0.00000  Uiso   1.00
O660   O     0.57506   0.50001   0.54873   0.00000  Uiso   1.00
C661   C     0.40126   0.49994   0.48784   0.00000  Uiso   1.00
C662   C     0.59874   0.50003   0.51215   0.00000  Uiso   1.00
Cu663  Cu    0.50000   0.50001   0.54689   0.00000  Uiso   1.00
Cu664  Cu    0.50000   0.49999   0.45311   0.00000  Uiso   1.00
N665   N     0.50001   0.50001   0.61736   0.00000  Uiso   1.00
N666   N     0.49999   0.49999   0.38264   0.00000  Uiso   1.00
C667   C     0.34584   0.49996   0.48126   0.00000  Uiso   1.00
C668   C     0.65416   0.49996   0.51871   0.00000  Uiso   1.00
H669   H     0.65891   0.50002   0.44543   0.00000  Uiso   1.00
H670   H     0.34111   0.49989   0.55453   0.00000  Uiso   1.00
C671   C     0.48195   0.35420   0.45909   0.00000  Uiso   1.00
C672   C     0.51898   0.64574   0.54075   0.00000  Uiso   1.00
H673   H     0.46637   0.37019   0.42782   0.00000  Uiso   1.00
H674   H     0.53499   0.62961   0.57180   0.00000  Uiso   1.00
C675   C     0.48037   0.64475   0.45834   0.00000  Uiso   1.00
C676   C     0.52041   0.35523   0.54157   0.00000  Uiso   1.00
C677   C     0.49867   0.62386   0.49982   0.00000  Uiso   1.00
C678   C     0.50190   0.37612   0.50013   0.00000  Uiso   1.00
C679   C     0.46050   0.48139   0.35191   0.00000  Uiso   1.00
C680   C     0.53896   0.51926   0.64798   0.00000  Uiso   1.00
C681   C     0.46100   0.48130   0.63600   0.00000  Uiso   1.00
C682   C     0.53878   0.51899   0.36394   0.00000  Uiso   1.00
H683   H     0.42988   0.46611   0.61278   0.00000  Uiso   1.00
H684   H     0.56969   0.53451   0.38709   0.00000  Uiso   1.00
O685   O     0.45606   0.62325   0.41898   0.00000  Uiso   1.00
C686   C     0.48374   0.62917   0.38090   0.00000  Uiso   1.00
H687   H     0.46990   0.60595   0.35304   0.00000  Uiso   1.00
H688   H     0.52594   0.62473   0.39114   0.00000  Uiso   1.00
H689   H     0.47635   0.65996   0.36550   0.00000  Uiso   1.00
O690   O     0.54480   0.37683   0.58083   0.00000  Uiso   1.00
C691   C     0.51824   0.37001   0.61947   0.00000  Uiso   1.00
H692   H     0.47573   0.37314   0.60990   0.00000  Uiso   1.00
H693   H     0.53148   0.39359   0.64709   0.00000  Uiso   1.00
H694   H     0.52748   0.33948   0.63490   0.00000  Uiso   1.00
N695   N     0.41713   0.46260   0.36856   0.00000  Uiso   1.00
O696   O     0.37128   0.47638   0.35459   0.00000  Uiso   1.00
O697   O     0.42136   0.42640   0.38690   0.00000  Uiso   1.00
N698   N     0.58040   0.54048   0.63100   0.00000  Uiso   1.00
O699   O     0.57799   0.58007   0.62641   0.00000  Uiso   1.00
O700   O     0.62548   0.52373   0.63603   0.00000  Uiso   1.00
O701   O     0.83333   0.43989   0.53958   0.00000  Uiso   1.00
O702   O     0.83334   0.56011   0.46042   0.00000  Uiso   1.00
O703   O     0.83333   0.43988   0.46039   0.00000  Uiso   1.00
O704   O     0.83334   0.56012   0.53961   0.00000  Uiso   1.00
C705   C     0.83431   0.42078   0.49996   0.00000  Uiso   1.00
C706   C     0.83254   0.57921   0.50004   0.00000  Uiso   1.00
O707   O     0.75828   0.50000   0.53046   0.00000  Uiso   1.00
O708   O     0.90839   0.50000   0.46954   0.00000  Uiso   1.00
O709   O     0.75828   0.49999   0.45127   0.00000  Uiso   1.00
O710   O     0.90839   0.50001   0.54873   0.00000  Uiso   1.00
C711   C     0.73459   0.49994   0.48784   0.00000  Uiso   1.00
C712   C     0.93207   0.50003   0.51215   0.00000  Uiso   1.00
Cu713  Cu    0.83333   0.50001   0.54689   0.00000  Uiso   1.00
Cu714  Cu    0.83333   0.49999   0.45311   0.00000  Uiso   1.00
N715   N     0.83335   0.50001   0.61736   0.00000  Uiso   1.00
N716   N     0.83332   0.49999   0.38264   0.00000  Uiso   1.00
C717   C     0.67918   0.49996   0.48126   0.00000  Uiso   1.00
C718   C     0.98749   0.49996   0.51871   0.00000  Uiso   1.00
H719   H     0.99224   0.50002   0.44543   0.00000  Uiso   1.00
H720   H     0.67445   0.49989   0.55453   0.00000  Uiso   1.00
C721   C     0.81529   0.35420   0.45909   0.00000  Uiso   1.00
C722   C     0.85231   0.64574   0.54075   0.00000  Uiso   1.00
H723   H     0.79970   0.37019   0.42782   0.00000  Uiso   1.00
H724   H     0.86832   0.62961   0.57180   0.00000  Uiso   1.00
C725   C     0.81370   0.64475   0.45834   0.00000  Uiso   1.00
C726   C     0.85374   0.35523   0.54157   0.00000  Uiso   1.00
C727   C     0.83200   0.62386   0.49982   0.00000  Uiso   1.00
C728   C     0.83523   0.37612   0.50013   0.00000  Uiso   1.00
C729   C     0.79383   0.48139   0.35191   0.00000  Uiso   1.00
C730   C     0.87229   0.51926   0.64798   0.00000  Uiso   1.00
C731   C     0.79434   0.48130   0.63600   0.00000  Uiso   1.00
C732   C     0.87212   0.51899   0.36394   0.00000  Uiso   1.00
H733   H     0.76322   0.46611   0.61278   0.00000  Uiso   1.00
H734   H     0.90302   0.53451   0.38709   0.00000  Uiso   1.00
O735   O     0.78939   0.62325   0.41898   0.00000  Uiso   1.00
C736   C     0.81707   0.62917   0.38090   0.00000  Uiso   1.00
H737   H     0.80323   0.60595   0.35304   0.00000  Uiso   1.00
H738   H     0.85927   0.62473   0.39114   0.00000  Uiso   1.00
H739   H     0.80968   0.65996   0.36550   0.00000  Uiso   1.00
O740   O     0.87814   0.37683   0.58083   0.00000  Uiso   1.00
C741   C     0.85158   0.37001   0.61947   0.00000  Uiso   1.00
H742   H     0.80906   0.37314   0.60990   0.00000  Uiso   1.00
H743   H     0.86481   0.39359   0.64709   0.00000  Uiso   1.00
H744   H     0.86081   0.33948   0.63490   0.00000  Uiso   1.00
N745   N     0.75046   0.46260   0.36856   0.00000  Uiso   1.00
O746   O     0.70462   0.47638   0.35459   0.00000  Uiso   1.00
O747   O     0.75469   0.42640   0.38690   0.00000  Uiso   1.00
N748   N     0.91374   0.54048   0.63100   0.00000  Uiso   1.00
O749   O     0.91133   0.58007   0.62641   0.00000  Uiso   1.00
O750   O     0.95881   0.52373   0.63603   0.00000  Uiso   1.00
O751   O     0.16666   0.77322   0.53958   0.00000  Uiso   1.00
O752   O     0.16667   0.89345   0.46042   0.00000  Uiso   1.00
O753   O     0.16666   0.77321   0.46039   0.00000  Uiso   1.00
O754   O     0.16667   0.89346   0.53961   0.00000  Uiso   1.00
C755   C     0.16764   0.75412   0.49996   0.00000  Uiso   1.00
C756   C     0.16587   0.91254   0.50004   0.00000  Uiso   1.00
O757   O     0.09161   0.83334   0.53046   0.00000  Uiso   1.00
O758   O     0.24172   0.83333   0.46954   0.00000  Uiso   1.00
O759   O     0.09161   0.83333   0.45127   0.00000  Uiso   1.00
O760   O     0.24172   0.83334   0.54873   0.00000  Uiso   1.00
C761   C     0.06793   0.83327   0.48784   0.00000  Uiso   1.00
C762   C     0.26541   0.83337   0.51215   0.00000  Uiso   1.00
Cu763  Cu    0.16667   0.83334   0.54689   0.00000  Uiso   1.00
Cu764  Cu    0.16667   0.83333   0.45311   0.00000  Uiso   1.00
N765   N     0.16668   0.83334   0.61736   0.00000  Uiso   1.00
N766   N     0.16665   0.83332   0.38264   0.00000  Uiso   1.00
C767   C     0.01251   0.83330   0.48126   0.00000  Uiso   1.00
C768   C     0.32083   0.83330   0.51871   0.00000  Uiso   1.00
H769   H     0.32557   0.83335   0.44543   0.00000  Uiso   1.00
H770   H     0.00778   0.83322   0.55453   0.00000  Uiso   1.00
C771   C     0.14862   0.68754   0.45909   0.00000  Uiso   1.00
C772   C     0.18564   0.97907   0.54075   0.00000  Uiso   1.00
H773   H     0.13303   0.70352   0.42782   0.00000  Uiso   1.00
H774   H     0.20165   0.96294   0.57180   0.00000  Uiso   1.00
C775   C     0.14703   0.97808   0.45834   0.00000  Uiso   1.00
C776   C     0.18708   0.68856   0.54157   0.00000  Uiso   1.00
C777   C     0.16533   0.95719   0.49982   0.00000  Uiso   1.00
C778   C     0.16857   0.70945   0.50013   0.00000  Uiso   1.00
C779   C     0.12716   0.81472   0.35191   0.00000  Uiso   1.00
C780   C     0.20563   0.85260   0.64798   0.00000  Uiso   1.00
C781   C     0.12767   0.81464   0.63600   0.00000  Uiso   1.00
C782   C     0.20545   0.85232   0.36394   0.00000  Uiso   1.00
H783   H     0.09655   0.79944   0.61278   0.00000  Uiso   1.00
H784   H     0.23636   0.86785   0.38709   0.00000  Uiso   1.00
O785   O     0.12272   0.95658   0.41898   0.00000  Uiso   1.00
C786   C     0.15041   0.96250   0.38090   0.00000  Uiso   1.00
H787   H     0.13657   0.93928   0.35304   0.00000  Uiso   1.00
H788   H     0.19261   0.95806   0.39114   0.00000  Uiso   1.00
H789   H     0.14301   0.99329   0.36550   0.00000  Uiso   1.00
O790   O     0.21147   0.71016   0.58083   0.00000  Uiso   1.00
C791   C     0.18491   0.70335   0.61947   0.00000  Uiso   1.00
H792   H     0.14239   0.70648   0.60990   0.00000  Uiso   1.00
H793   H     0.19815   0.72692   0.64709   0.00000  Uiso   1.00
H794   H     0.19414   0.67282   0.63490   0.00000  Uiso   1.00
N795   N     0.08379   0.79594   0.36856   0.00000  Uiso   1.00
O796   O     0.03795   0.80972   0.35459   0.00000  Uiso   1.00
O797   O     0.08802   0.75974   0.38690   0.00000  Uiso   1.00
N798   N     0.24707   0.87381   0.63100   0.00000  Uiso   1.00
O799   O     0.24466   0.91340   0.62641   0.00000  Uiso   1.00
O800   O     0.29215   0.85706   0.63603   0.00000  Uiso   1.00
O801   O     0.50000   0.77322   0.53958   0.00000  Uiso   1.00
O802   O     0.50000   0.89345   0.46042   0.00000  Uiso   1.00
O803   O     0.50000   0.77321   0.46039   0.00000  Uiso   1.00
O804   O     0.50000   0.89346   0.53961   0.00000  Uiso   1.00
C805   C     0.50098   0.75412   0.49996   0.00000  Uiso   1.00
C806   C     0.49921   0.91254   0.50004   0.00000  Uiso   1.00
O807   O     0.42495   0.83334   0.53046   0.00000  Uiso   1.00
O808   O     0.57505   0.83333   0.46954   0.00000  Uiso   1.00
O809   O     0.42494   0.83333   0.45127   0.00000  Uiso   1.00
O810   O     0.57506   0.83334   0.54873   0.00000  Uiso   1.00
C811   C     0.40126   0.83327   0.48784   0.00000  Uiso   1.00
C812   C     0.59874   0.83337   0.51215   0.00000  Uiso   1.00
Cu813  Cu    0.50000   0.83334   0.54689   0.00000  Uiso   1.00
Cu814  Cu    0.50000   0.83333   0.45311   0.00000  Uiso   1.00
N815   N     0.50001   0.83334   0.61736   0.00000  Uiso   1.00
N816   N     0.49999   0.83332   0.38264   0.00000  Uiso   1.00
C817   C     0.34584   0.83330   0.48126   0.00000  Uiso   1.00
C818   C     0.65416   0.83330   0.51871   0.00000  Uiso   1.00
H819   H     0.65891   0.83335   0.44543   0.00000  Uiso   1.00
H820   H     0.34111   0.83322   0.55453   0.00000  Uiso   1.00
C821   C     0.48195   0.68754   0.45909   0.00000  Uiso   1.00
C822   C     0.51898   0.97907   0.54075   0.00000  Uiso   1.00
H823   H     0.46637   0.70352   0.42782   0.00000  Uiso   1.00
H824   H     0.53499   0.96294   0.57180   0.00000  Uiso   1.00
C825   C     0.48037   0.97808   0.45834   0.00000  Uiso   1.00
C826   C     0.52041   0.68856   0.54157   0.00000  Uiso   1.00
C827   C     0.49867   0.95719   0.49982   0.00000  Uiso   1.00
C828   C     0.50190   0.70945   0.50013   0.00000  Uiso   1.00
C829   C     0.46050   0.81472   0.35191   0.00000  Uiso   1.00
C830   C     0.53896   0.85260   0.64798   0.00000  Uiso   1.00
C831   C     0.46100   0.81464   0.63600   0.00000  Uiso   1.00
C832   C     0.53878   0.85232   0.36394   0.00000  Uiso   1.00
H833   H     0.42988   0.79944   0.61278   0.00000  Uiso   1.00
H834   H     0.56969   0.86785   0.38709   0.00000  Uiso   1.00
O835   O     0.45606   0.95658   0.41898   0.00000  Uiso   1.00
C836   C     0.48374   0.96250   0.38090   0.00000  Uiso   1.00
H837   H     0.46990   0.93928   0.35304   0.00000  Uiso   1.00
H838   H     0.52594   0.95806   0.39114   0.00000  Uiso   1.00
H839   H     0.47635   0.99329   0.36550   0.00000  Uiso   1.00
O840   O     0.54480   0.71016   0.58083   0.00000  Uiso   1.00
C841   C     0.51824   0.70335   0.61947   0.00000  Uiso   1.00
H842   H     0.47573   0.70648   0.60990   0.00000  Uiso   1.00
H843   H     0.53148   0.72692   0.64709   0.00000  Uiso   1.00
H844   H     0.52748   0.67282   0.63490   0.00000  Uiso   1.00
N845   N     0.41713   0.79594   0.36856   0.00000  Uiso   1.00
O846   O     0.37128   0.80972   0.35459   0.00000  Uiso   1.00
O847   O     0.42136   0.75974   0.38690   0.00000  Uiso   1.00
N848   N     0.58040   0.87381   0.63100   0.00000  Uiso   1.00
O849   O     0.57799   0.91340   0.62641   0.00000  Uiso   1.00
O850   O     0.62548   0.85706   0.63603   0.00000  Uiso   1.00
O851   O     0.83333   0.77322   0.53958   0.00000  Uiso   1.00
O852   O     0.83334   0.89345   0.46042   0.00000  Uiso   1.00
O853   O     0.83333   0.77321   0.46039   0.00000  Uiso   1.00
O854   O     0.83334   0.89346   0.53961   0.00000  Uiso   1.00
C855   C     0.83431   0.75412   0.49996   0.00000  Uiso   1.00
C856   C     0.83254   0.91254   0.50004   0.00000  Uiso   1.00
O857   O     0.75828   0.83334   0.53046   0.00000  Uiso   1.00
O858   O     0.90839   0.83333   0.46954   0.00000  Uiso   1.00
O859   O     0.75828   0.83333   0.45127   0.00000  Uiso   1.00
O860   O     0.90839   0.83334   0.54873   0.00000  Uiso   1.00
C861   C     0.73459   0.83327   0.48784   0.00000  Uiso   1.00
C862   C     0.93207   0.83337   0.51215   0.00000  Uiso   1.00
Cu863  Cu    0.83333   0.83334   0.54689   0.00000  Uiso   1.00
Cu864  Cu    0.83333   0.83333   0.45311   0.00000  Uiso   1.00
N865   N     0.83335   0.83334   0.61736   0.00000  Uiso   1.00
N866   N     0.83332   0.83332   0.38264   0.00000  Uiso   1.00
C867   C     0.67918   0.83330   0.48126   0.00000  Uiso   1.00
C868   C     0.98749   0.83330   0.51871   0.00000  Uiso   1.00
H869   H     0.99224   0.83335   0.44543   0.00000  Uiso   1.00
H870   H     0.67445   0.83322   0.55453   0.00000  Uiso   1.00
C871   C     0.81529   0.68754   0.45909   0.00000  Uiso   1.00
C872   C     0.85231   0.97907   0.54075   0.00000  Uiso   1.00
H873   H     0.79970   0.70352   0.42782   0.00000  Uiso   1.00
H874   H     0.86832   0.96294   0.57180   0.00000  Uiso   1.00
C875   C     0.81370   0.97808   0.45834   0.00000  Uiso   1.00
C876   C     0.85374   0.68856   0.54157   0.00000  Uiso   1.00
C877   C     0.83200   0.95719   0.49982   0.00000  Uiso   1.00
C878   C     0.83523   0.70945   0.50013   0.00000  Uiso   1.00
C879   C     0.79383   0.81472   0.35191   0.00000  Uiso   1.00
C880   C     0.87229   0.85260   0.64798   0.00000  Uiso   1.00
C881   C     0.79434   0.81464   0.63600   0.00000  Uiso   1.00
C882   C     0.87212   0.85232   0.36394   0.00000  Uiso   1.00
H883   H     0.76322   0.79944   0.61278   0.00000  Uiso   1.00
H884   H     0.90302   0.86785   0.38709   0.00000  Uiso   1.00
O885   O     0.78939   0.95658   0.41898   0.00000  Uiso   1.00
C886   C     0.81707   0.96250   0.38090   0.00000  Uiso   1.00
H887   H     0.80323   0.93928   0.35304   0.00000  Uiso   1.00
H888   H     0.85927   0.95806   0.39114   0.00000  Uiso   1.00
H889   H     0.80968   0.99329   0.36550   0.00000  Uiso   1.00
O890   O     0.87814   0.71016   0.58083   0.00000  Uiso   1.00
C891   C     0.85158   0.70335   0.61947   0.00000  Uiso   1.00
H892   H     0.80906   0.70648   0.60990   0.00000  Uiso   1.00
H893   H     0.86481   0.72692   0.64709   0.00000  Uiso   1.00
H894   H     0.86081   0.67282   0.63490   0.00000  Uiso   1.00
N895   N     0.75046   0.79594   0.36856   0.00000  Uiso   1.00
O896   O     0.70462   0.80972   0.35459   0.00000  Uiso   1.00
O897   O     0.75469   0.75974   0.38690   0.00000  Uiso   1.00
N898   N     0.91374   0.87381   0.63100   0.00000  Uiso   1.00
O899   O     0.91133   0.91340   0.62641   0.00000  Uiso   1.00
O900   O     0.95881   0.85706   0.63603   0.00000  Uiso   1.00
O901   O     0.16666   0.10655   0.87291   0.00000  Uiso   1.00
O902   O     0.16667   0.22678   0.79375   0.00000  Uiso   1.00
O903   O     0.16666   0.10654   0.79372   0.00000  Uiso   1.00
O904   O     0.16667   0.22679   0.87294   0.00000  Uiso   1.00
C905   C     0.16764   0.08745   0.83330   0.00000  Uiso   1.00
C906   C     0.16587   0.24588   0.83337   0.00000  Uiso   1.00
O907   O     0.09161   0.16667   0.86379   0.00000  Uiso   1.00
O908   O     0.24172   0.16666   0.80288   0.00000  Uiso   1.00
O909   O     0.09161   0.16666   0.78460   0.00000  Uiso   1.00
O910   O     0.24172   0.16667   0.88207   0.00000  Uiso   1.00
C911   C     0.06793   0.16661   0.82118   0.00000  Uiso   1.00
C912   C     0.26541   0.16670   0.84548   0.00000  Uiso   1.00
Cu913  Cu    0.16667   0.16667   0.88022   0.00000  Uiso   1.00
Cu914  Cu    0.16667   0.16666   0.78645   0.00000  Uiso   1.00
N915   N     0.16668   0.16668   0.95069   0.00000  Uiso   1.00
N916   N     0.16665   0.16666   0.71597   0.00000  Uiso   1.00
C917   C     0.01251   0.16663   0.81459   0.00000  Uiso   1.00
C918   C     0.32083   0.16663   0.85205   0.00000  Uiso   1.00
H919   H     0.32557   0.16669   0.77876   0.00000  Uiso   1.00
H920   H     0.00778   0.16655   0.88786   0.00000  Uiso   1.00
C921   C     0.14862   0.02087   0.79243   0.00000  Uiso   1.00
C922   C     0.18564   0.31240   0.87409   0.00000  Uiso   1.00
H923   H     0.13303   0.03686   0.76115   0.00000  Uiso   1.00
H924   H     0.20165   0.29627   0.90513   0.00000  Uiso   1.00
C925   C     0.14703   0.31142   0.79167   0.00000  Uiso   1.00
C926   C     0.18708   0.02190   0.87491   0.00000  Uiso   1.00
C927   C     0.16533   0.29052   0.83316   0.00000  Uiso   1.00
C928   C     0.16857   0.04279   0.83346   0.00000  Uiso   1.00
C929   C     0.12716   0.14805   0.68524   0.00000  Uiso   1.00
C930   C     0.20563   0.18593   0.98132   0.00000  Uiso   1.00
C931   C     0.12767   0.14797   0.96933   0.00000  Uiso   1.00
C932   C     0.20545   0.18566   0.69728   0.00000  Uiso   1.00
H933   H     0.09655   0.13278   0.94612   0.00000  Uiso   1.00
H934   H     0.23636   0.20118   0.72043   0.00000  Uiso   1.00
O935   O     0.12272   0.28991   0.75231   0.00000  Uiso   1.00
C936   C     0.15041   0.29583   0.71423   0.00000  Uiso   1.00
H937   H     0.13657   0.27261   0.68637   0.00000  Uiso   1.00
H938   H     0.19261   0.29139   0.72448   0.00000  Uiso   1.00
H939   H     0.14301   0.32662   0.69883   0.00000  Uiso   1.00
O940   O     0.21147   0.04350   0.91417   0.00000  Uiso   1.00
C941   C     0.18491   0.03668   0.95280   0.00000  Uiso   1.00
H942   H     0.14239   0.03981   0.94323   0.00000  Uiso   1.00
H943   H     0.19815   0.06026   0.98043   0.00000  Uiso   1.00
H944   H     0.19414   0.00615   0.96824   0.00000  Uiso   1.00
N945   N     0.08379   0.12927   0.70189   0.00000  Uiso   1.00
O946   O     0.03795   0.14305   0.68793   0.00000  Uiso   1.00
O947   O     0.08802   0.09307   0.72023   0.00000  Uiso   1.00
N948   N     0.24707   0.20715   0.96433   0.00000  Uiso   1.00
O949   O     0.24466   0.24674   0.95974   0.00000  Uiso   1.00
O950   O     0.29215   0.19039   0.96936   0.00000  Uiso   1.00
O951   O     0.50000   0.10655   0.87291   0.00000  Uiso   1.00
O952   O     0.50000   0.22678   0.79375   0.00000  Uiso   1.00
O953   O     0.50000   0.10654   0.79372   0.00000  Uiso   1.00
O954   O     0.50000   0.22679   0.87294   0.00000  Uiso   1.00
C955   C     0.50098   0.08745   0.83330   0.00000  Uiso   1.00
C956   C     0.49921   0.24588   0.83337   0.00000  Uiso   1.00
O957   O     0.42495   0.16667   0.86379   0.00000  Uiso   1.00
O958   O     0.57505   0.16666   0.80288   0.00000  Uiso   1.00
O959   O     0.42494   0.16666   0.78460   0.00000  Uiso   1.00
O960   O     0.57506   0.16667   0.88207   0.00000  Uiso   1.00
C961   C     0.40126   0.16661   0.82118   0.00000  Uiso   1.00
C962   C     0.59874   0.16670   0.84548   0.00000  Uiso   1.00
Cu963  Cu    0.50000   0.16667   0.88022   0.00000  Uiso   1.00
Cu964  Cu    0.50000   0.16666   0.78645   0.00000  Uiso   1.00
N965   N     0.50001   0.16668   0.95069   0.00000  Uiso   1.00
N966   N     0.49999   0.16666   0.71597   0.00000  Uiso   1.00
C967   C     0.34584   0.16663   0.81459   0.00000  Uiso   1.00
C968   C     0.65416   0.16663   0.85205   0.00000  Uiso   1.00
H969   H     0.65891   0.16669   0.77876   0.00000  Uiso   1.00
H970   H     0.34111   0.16655   0.88786   0.00000  Uiso   1.00
C971   C     0.48195   0.02087   0.79243   0.00000  Uiso   1.00
C972   C     0.51898   0.31240   0.87409   0.00000  Uiso   1.00
H973   H     0.46637   0.03686   0.76115   0.00000  Uiso   1.00
H974   H     0.53499   0.29627   0.90513   0.00000  Uiso   1.00
C975   C     0.48037   0.31142   0.79167   0.00000  Uiso   1.00
C976   C     0.52041   0.02190   0.87491   0.00000  Uiso   1.00
C977   C     0.49867   0.29052   0.83316   0.00000  Uiso   1.00
C978   C     0.50190   0.04279   0.83346   0.00000  Uiso   1.00
C979   C     0.46050   0.14805   0.68524   0.00000  Uiso   1.00
C980   C     0.53896   0.18593   0.98132   0.00000  Uiso   1.00
C981   C     0.46100   0.14797   0.96933   0.00000  Uiso   1.00
C982   C     0.53878   0.18566   0.69728   0.00000  Uiso   1.00
H983   H     0.42988   0.13278   0.94612   0.00000  Uiso   1.00
H984   H     0.56969   0.20118   0.72043   0.00000  Uiso   1.00
O985   O     0.45606   0.28991   0.75231   0.00000  Uiso   1.00
C986   C     0.48374   0.29583   0.71423   0.00000  Uiso   1.00
H987   H     0.46990   0.27261   0.68637   0.00000  Uiso   1.00
H988   H     0.52594   0.29139   0.72448   0.00000  Uiso   1.00
H989   H     0.47635   0.32662   0.69883   0.00000  Uiso   1.00
O990   O     0.54480   0.04350   0.91417   0.00000  Uiso   1.00
C991   C     0.51824   0.03668   0.95280   0.00000  Uiso   1.00
H992   H     0.47573   0.03981   0.94323   0.00000  Uiso   1.00
H993   H     0.53148   0.06026   0.98043   0.00000  Uiso   1.00
H994   H     0.52748   0.00615   0.96824   0.00000  Uiso   1.00
N995   N     0.41713   0.12927   0.70189   0.00000  Uiso   1.00
O996   O     0.37128   0.14305   0.68793   0.00000  Uiso   1.00
O997   O     0.42136   0.09307   0.72023   0.00000  Uiso   1.00
N998   N     0.58040   0.20715   0.96433   0.00000  Uiso   1.00
O999   O     0.57799   0.24674   0.95974   0.00000  Uiso   1.00
O1000  O     0.62548   0.19039   0.96936   0.00000  Uiso   1.00
O1001  O     0.83333   0.10655   0.87291   0.00000  Uiso   1.00
O1002  O     0.83334   0.22678   0.79375   0.00000  Uiso   1.00
O1003  O     0.83333   0.10654   0.79372   0.00000  Uiso   1.00
O1004  O     0.83334   0.22679   0.87294   0.00000  Uiso   1.00
C1005  C     0.83431   0.08745   0.83330   0.00000  Uiso   1.00
C1006  C     0.83254   0.24588   0.83337   0.00000  Uiso   1.00
O1007  O     0.75828   0.16667   0.86379   0.00000  Uiso   1.00
O1008  O     0.90839   0.16666   0.80288   0.00000  Uiso   1.00
O1009  O     0.75828   0.16666   0.78460   0.00000  Uiso   1.00
O1010  O     0.90839   0.16667   0.88207   0.00000  Uiso   1.00
C1011  C     0.73459   0.16661   0.82118   0.00000  Uiso   1.00
C1012  C     0.93207   0.16670   0.84548   0.00000  Uiso   1.00
Cu1013 Cu    0.83333   0.16667   0.88022   0.00000  Uiso   1.00
Cu1014 Cu    0.83333   0.16666   0.78645   0.00000  Uiso   1.00
N1015  N     0.83335   0.16668   0.95069   0.00000  Uiso   1.00
N1016  N     0.83332   0.16666   0.71597   0.00000  Uiso   1.00
C1017  C     0.67918   0.16663   0.81459   0.00000  Uiso   1.00
C1018  C     0.98749   0.16663   0.85205   0.00000  Uiso   1.00
H1019  H     0.99224   0.16669   0.77876   0.00000  Uiso   1.00
H1020  H     0.67445   0.16655   0.88786   0.00000  Uiso   1.00
C1021  C     0.81529   0.02087   0.79243   0.00000  Uiso   1.00
C1022  C     0.85231   0.31240   0.87409   0.00000  Uiso   1.00
H1023  H     0.79970   0.03686   0.76115   0.00000  Uiso   1.00
H1024  H     0.86832   0.29627   0.90513   0.00000  Uiso   1.00
C1025  C     0.81370   0.31142   0.79167   0.00000  Uiso   1.00
C1026  C     0.85374   0.02190   0.87491   0.00000  Uiso   1.00
C1027  C     0.83200   0.29052   0.83316   0.00000  Uiso   1.00
C1028  C     0.83523   0.04279   0.83346   0.00000  Uiso   1.00
C1029  C     0.79383   0.14805   0.68524   0.00000  Uiso   1.00
C1030  C     0.87229   0.18593   0.98132   0.00000  Uiso   1.00
C1031  C     0.79434   0.14797   0.96933   0.00000  Uiso   1.00
C1032  C     0.87212   0.18566   0.69728   0.00000  Uiso   1.00
H1033  H     0.76322   0.13278   0.94612   0.00000  Uiso   1.00
H1034  H     0.90302   0.20118   0.72043   0.00000  Uiso   1.00
O1035  O     0.78939   0.28991   0.75231   0.00000  Uiso   1.00
C1036  C     0.81707   0.29583   0.71423   0.00000  Uiso   1.00
H1037  H     0.80323   0.27261   0.68637   0.00000  Uiso   1.00
H1038  H     0.85927   0.29139   0.72448   0.00000  Uiso   1.00
H1039  H     0.80968   0.32662   0.69883   0.00000  Uiso   1.00
O1040  O     0.87814   0.04350   0.91417   0.00000  Uiso   1.00
C1041  C     0.85158   0.03668   0.95280   0.00000  Uiso   1.00
H1042  H     0.80906   0.03981   0.94323   0.00000  Uiso   1.00
H1043  H     0.86481   0.06026   0.98043   0.00000  Uiso   1.00
H1044  H     0.86081   0.00615   0.96824   0.00000  Uiso   1.00
N1045  N     0.75046   0.12927   0.70189   0.00000  Uiso   1.00
O1046  O     0.70462   0.14305   0.68793   0.00000  Uiso   1.00
O1047  O     0.75469   0.09307   0.72023   0.00000  Uiso   1.00
N1048  N     0.91374   0.20715   0.96433   0.00000  Uiso   1.00
O1049  O     0.91133   0.24674   0.95974   0.00000  Uiso   1.00
O1050  O     0.95881   0.19039   0.96936   0.00000  Uiso   1.00
O1051  O     0.16666   0.43989   0.87291   0.00000  Uiso   1.00
O1052  O     0.16667   0.56011   0.79375   0.00000  Uiso   1.00
O1053  O     0.16666   0.43988   0.79372   0.00000  Uiso   1.00
O1054  O     0.16667   0.56012   0.87294   0.00000  Uiso   1.00
C1055  C     0.16764   0.42078   0.83330   0.00000  Uiso   1.00
C1056  C     0.16587   0.57921   0.83337   0.00000  Uiso   1.00
O1057  O     0.09161   0.50000   0.86379   0.00000  Uiso   1.00
O1058  O     0.24172   0.50000   0.80288   0.00000  Uiso   1.00
O1059  O     0.09161   0.49999   0.78460   0.00000  Uiso   1.00
O1060  O     0.24172   0.50001   0.88207   0.00000  Uiso   1.00
C1061  C     0.06793   0.49994   0.82118   0.00000  Uiso   1.00
C1062  C     0.26541   0.50003   0.84548   0.00000  Uiso   1.00
Cu1063 Cu    0.16667   0.50001   0.88022   0.00000  Uiso   1.00
Cu1064 Cu    0.16667   0.49999   0.78645   0.00000  Uiso   1.00
N1065  N     0.16668   0.50001   0.95069   0.00000  Uiso   1.00
N1066  N     0.16665   0.49999   0.71597   0.00000  Uiso   1.00
C1067  C     0.01251   0.49996   0.81459   0.00000  Uiso   1.00
C1068  C     0.32083   0.49996   0.85205   0.00000  Uiso   1.00
H1069  H     0.32557   0.50002   0.77876   0.00000  Uiso   1.00
H1070  H     0.00778   0.49989   0.88786   0.00000  Uiso   1.00
C1071  C     0.14862   0.35420   0.79243   0.00000  Uiso   1.00
C1072  C     0.18564   0.64574   0.87409   0.00000  Uiso   1.00
H1073  H     0.13303   0.37019   0.76115   0.00000  Uiso   1.00
H1074  H     0.20165   0.62961   0.90513   0.00000  Uiso   1.00
C1075  C     0.14703   0.64475   0.79167   0.00000  Uiso   1.00
C1076  C     0.18708   0.35523   0.87491   0.00000  Uiso   1.00
C1077  C     0.16533   0.62386   0.83316   0.00000  Uiso   1.00
C1078  C     0.16857   0.37612   0.83346   0.00000  Uiso   1.00
C1079  C     0.12716   0.48139   0.68524   0.00000  Uiso   1.00
C1080  C     0.20563   0.51926   0.98132   0.00000  Uiso   1.00
C1081  C     0.12767   0.48130   0.96933   0.00000  Uiso   1.00
C1082  C     0.20545   0.51899   0.69728   0.00000  Uiso   1.00
H1083  H     0.09655   0.46611   0.94612   0.00000  Uiso   1.00
H1084  H     0.23636   0.53451   0.72043   0.00000  Uiso   1.00
O1085  O     0.12272   0.62325   0.75231   0.00000  Uiso   1.00
C1086  C     0.15041   0.62917   0.71423   0.00000  Uiso   1.00
H1087  H     0.13657   0.60595   0.68637   0.00000  Uiso   1.00
H1088  H     0.19261   0.62473   0.72448   0.00000  Uiso   1.00
H1089  H     0.14301   0.65996   0.69883   0.00000  Uiso   1.00
O1090  O     0.21147   0.37683   0.91417   0.00000  Uiso   1.00
C1091  C     0.18491   0.37001   0.95280   0.00000  Uiso   1.00
H1092  H     0.14239   0.37314   0.94323   0.00000  Uiso   1.00
H1093  H     0.19815   0.39359   0.98043   0.00000  Uiso   1.00
H1094  H     0.19414   0.33948   0.96824   0.00000  Uiso   1.00
N1095  N     0.08379   0.46260   0.70189   0.00000  Uiso   1.00
O1096  O     0.03795   0.47638   0.68793   0.00000  Uiso   1.00
O1097  O     0.08802   0.42640   0.72023   0.00000  Uiso   1.00
N1098  N     0.24707   0.54048   0.96433   0.00000  Uiso   1.00
O1099  O     0.24466   0.58007   0.95974   0.00000  Uiso   1.00
O1100  O     0.29215   0.52373   0.96936   0.00000  Uiso   1.00
O1101  O     0.50000   0.43989   0.87291   0.00000  Uiso   1.00
O1102  O     0.50000   0.56011   0.79375   0.00000  Uiso   1.00
O1103  O     0.50000   0.43988   0.79372   0.00000  Uiso   1.00
O1104  O     0.50000   0.56012   0.87294   0.00000  Uiso   1.00
C1105  C     0.50098   0.42078   0.83330   0.00000  Uiso   1.00
C1106  C     0.49921   0.57921   0.83337   0.00000  Uiso   1.00
O1107  O     0.42495   0.50000   0.86379   0.00000  Uiso   1.00
O1108  O     0.57505   0.50000   0.80288   0.00000  Uiso   1.00
O1109  O     0.42494   0.49999   0.78460   0.00000  Uiso   1.00
O1110  O     0.57506   0.50001   0.88207   0.00000  Uiso   1.00
C1111  C     0.40126   0.49994   0.82118   0.00000  Uiso   1.00
C1112  C     0.59874   0.50003   0.84548   0.00000  Uiso   1.00
Cu1113 Cu    0.50000   0.50001   0.88022   0.00000  Uiso   1.00
Cu1114 Cu    0.50000   0.49999   0.78645   0.00000  Uiso   1.00
N1115  N     0.50001   0.50001   0.95069   0.00000  Uiso   1.00
N1116  N     0.49999   0.49999   0.71597   0.00000  Uiso   1.00
C1117  C     0.34584   0.49996   0.81459   0.00000  Uiso   1.00
C1118  C     0.65416   0.49996   0.85205   0.00000  Uiso   1.00
H1119  H     0.65891   0.50002   0.77876   0.00000  Uiso   1.00
H1120  H     0.34111   0.49989   0.88786   0.00000  Uiso   1.00
C1121  C     0.48195   0.35420   0.79243   0.00000  Uiso   1.00
C1122  C     0.51898   0.64574   0.87409   0.00000  Uiso   1.00
H1123  H     0.46637   0.37019   0.76115   0.00000  Uiso   1.00
H1124  H     0.53499   0.62961   0.90513   0.00000  Uiso   1.00
C1125  C     0.48037   0.64475   0.79167   0.00000  Uiso   1.00
C1126  C     0.52041   0.35523   0.87491   0.00000  Uiso   1.00
C1127  C     0.49867   0.62386   0.83316   0.00000  Uiso   1.00
C1128  C     0.50190   0.37612   0.83346   0.00000  Uiso   1.00
C1129  C     0.46050   0.48139   0.68524   0.00000  Uiso   1.00
C1130  C     0.53896   0.51926   0.98132   0.00000  Uiso   1.00
C1131  C     0.46100   0.48130   0.96933   0.00000  Uiso   1.00
C1132  C     0.53878   0.51899   0.69728   0.00000  Uiso   1.00
H1133  H     0.42988   0.46611   0.94612   0.00000  Uiso   1.00
H1134  H     0.56969   0.53451   0.72043   0.00000  Uiso   1.00
O1135  O     0.45606   0.62325   0.75231   0.00000  Uiso   1.00
C1136  C     0.48374   0.62917   0.71423   0.00000  Uiso   1.00
H1137  H     0.46990   0.60595   0.68637   0.00000  Uiso   1.00
H1138  H     0.52594   0.62473   0.72448   0.00000  Uiso   1.00
H1139  H     0.47635   0.65996   0.69883   0.00000  Uiso   1.00
O1140  O     0.54480   0.37683   0.91417   0.00000  Uiso   1.00
C1141  C     0.51824   0.37001   0.95280   0.00000  Uiso   1.00
H1142  H     0.47573   0.37314   0.94323   0.00000  Uiso   1.00
H1143  H     0.53148   0.39359   0.98043   0.00000  Uiso   1.00
H1144  H     0.52748   0.33948   0.96824   0.00000  Uiso   1.00
N1145  N     0.41713   0.46260   0.70189   0.00000  Uiso   1.00
O1146  O     0.37128   0.47638   0.68793   0.00000  Uiso   1.00
O1147  O     0.42136   0.42640   0.72023   0.00000  Uiso   1.00
N1148  N     0.58040   0.54048   0.96433   0.00000  Uiso   1.00
O1149  O     0.57799   0.58007   0.95974   0.00000  Uiso   1.00
O1150  O     0.62548   0.52373   0.96936   0.00000  Uiso   1.00
O1151  O     0.83333   0.43989   0.87291   0.00000  Uiso   1.00
O1152  O     0.83334   0.56011   0.79375   0.00000  Uiso   1.00
O1153  O     0.83333   0.43988   0.79372   0.00000  Uiso   1.00
O1154  O     0.83334   0.56012   0.87294   0.00000  Uiso   1.00
C1155  C     0.83431   0.42078   0.83330   0.00000  Uiso   1.00
C1156  C     0.83254   0.57921   0.83337   0.00000  Uiso   1.00
O1157  O     0.75828   0.50000   0.86379   0.00000  Uiso   1.00
O1158  O     0.90839   0.50000   0.80288   0.00000  Uiso   1.00
O1159  O     0.75828   0.49999   0.78460   0.00000  Uiso   1.00
O1160  O     0.90839   0.50001   0.88207   0.00000  Uiso   1.00
C1161  C     0.73459   0.49994   0.82118   0.00000  Uiso   1.00
C1162  C     0.93207   0.50003   0.84548   0.00000  Uiso   1.00
Cu1163 Cu    0.83333   0.50001   0.88022   0.00000  Uiso   1.00
Cu1164 Cu    0.83333   0.49999   0.78645   0.00000  Uiso   1.00
N1165  N     0.83335   0.50001   0.95069   0.00000  Uiso   1.00
N1166  N     0.83332   0.49999   0.71597   0.00000  Uiso   1.00
C1167  C     0.67918   0.49996   0.81459   0.00000  Uiso   1.00
C1168  C     0.98749   0.49996   0.85205   0.00000  Uiso   1.00
H1169  H     0.99224   0.50002   0.77876   0.00000  Uiso   1.00
H1170  H     0.67445   0.49989   0.88786   0.00000  Uiso   1.00
C1171  C     0.81529   0.35420   0.79243   0.00000  Uiso   1.00
C1172  C     0.85231   0.64574   0.87409   0.00000  Uiso   1.00
H1173  H     0.79970   0.37019   0.76115   0.00000  Uiso   1.00
H1174  H     0.86832   0.62961   0.90513   0.00000  Uiso   1.00
C1175  C     0.81370   0.64475   0.79167   0.00000  Uiso   1.00
C1176  C     0.85374   0.35523   0.87491   0.00000  Uiso   1.00
C1177  C     0.83200   0.62386   0.83316   0.00000  Uiso   1.00
C1178  C     0.83523   0.37612   0.83346   0.00000  Uiso   1.00
C1179  C     0.79383   0.48139   0.68524   0.00000  Uiso   1.00
C1180  C     0.87229   0.51926   0.98132   0.00000  Uiso   1.00
C1181  C     0.79434   0.48130   0.96933   0.00000  Uiso   1.00
C1182  C     0.87212   0.51899   0.69728   0.00000  Uiso   1.00
H1183  H     0.76322   0.46611   0.94612   0.00000  Uiso   1.00
H1184  H     0.90302   0.53451   0.72043   0.00000  Uiso   1.00
O1185  O     0.78939   0.62325   0.75231   0.00000  Uiso   1.00
C1186  C     0.81707   0.62917   0.71423   0.00000  Uiso   1.00
H1187  H     0.80323   0.60595   0.68637   0.00000  Uiso   1.00
H1188  H     0.85927   0.62473   0.72448   0.00000  Uiso   1.00
H1189  H     0.80968   0.65996   0.69883   0.00000  Uiso   1.00
O1190  O     0.87814   0.37683   0.91417   0.00000  Uiso   1.00
C1191  C     0.85158   0.37001   0.95280   0.00000  Uiso   1.00
H1192  H     0.80906   0.37314   0.94323   0.00000  Uiso   1.00
H1193  H     0.86481   0.39359   0.98043   0.00000  Uiso   1.00
H1194  H     0.86081   0.33948   0.96824   0.00000  Uiso   1.00
N1195  N     0.75046   0.46260   0.70189   0.00000  Uiso   1.00
O1196  O     0.70462   0.47638   0.68793   0.00000  Uiso   1.00
O1197  O     0.75469   0.42640   0.72023   0.00000  Uiso   1.00
N1198  N     0.91374   0.54048   0.96433   0.00000  Uiso   1.00
O1199  O     0.91133   0.58007   0.95974   0.00000  Uiso   1.00
O1200  O     0.95881   0.52373   0.96936   0.00000  Uiso   1.00
O1201  O     0.16666   0.77322   0.87291   0.00000  Uiso   1.00
O1202  O     0.16667   0.89345   0.79375   0.00000  Uiso   1.00
O1203  O     0.16666   0.77321   0.79372   0.00000  Uiso   1.00
O1204  O     0.16667   0.89346   0.87294   0.00000  Uiso   1.00
C1205  C     0.16764   0.75412   0.83330   0.00000  Uiso   1.00
C1206  C     0.16587   0.91254   0.83337   0.00000  Uiso   1.00
O1207  O     0.09161   0.83334   0.86379   0.00000  Uiso   1.00
O1208  O     0.24172   0.83333   0.80288   0.00000  Uiso   1.00
O1209  O     0.09161   0.83333   0.78460   0.00000  Uiso   1.00
O1210  O     0.24172   0.83334   0.88207   0.00000  Uiso   1.00
C1211  C     0.06793   0.83327   0.82118   0.00000  Uiso   1.00
C1212  C     0.26541   0.83337   0.84548   0.00000  Uiso   1.00
Cu1213 Cu    0.16667   0.83334   0.88022   0.00000  Uiso   1.00
Cu1214 Cu    0.16667   0.83333   0.78645   0.00000  Uiso   1.00
N1215  N     0.16668   0.83334   0.95069   0.00000  Uiso   1.00
N1216  N     0.16665   0.83332   0.71597   0.00000  Uiso   1.00
C1217  C     0.01251   0.83330   0.81459   0.00000  Uiso   1.00
C1218  C     0.32083   0.83330   0.85205   0.00000  Uiso   1.00
H1219  H     0.32557   0.83335   0.77876   0.00000  Uiso   1.00
H1220  H     0.00778   0.83322   0.88786   0.00000  Uiso   1.00
C1221  C     0.14862   0.68754   0.79243   0.00000  Uiso   1.00
C1222  C     0.18564   0.97907   0.87409   0.00000  Uiso   1.00
H1223  H     0.13303   0.70352   0.76115   0.00000  Uiso   1.00
H1224  H     0.20165   0.96294   0.90513   0.00000  Uiso   1.00
C1225  C     0.14703   0.97808   0.79167   0.00000  Uiso   1.00
C1226  C     0.18708   0.68856   0.87491   0.00000  Uiso   1.00
C1227  C     0.16533   0.95719   0.83316   0.00000  Uiso   1.00
C1228  C     0.16857   0.70945   0.83346   0.00000  Uiso   1.00
C1229  C     0.12716   0.81472   0.68524   0.00000  Uiso   1.00
C1230  C     0.20563   0.85260   0.98132   0.00000  Uiso   1.00
C1231  C     0.12767   0.81464   0.96933   0.00000  Uiso   1.00
C1232  C     0.20545   0.85232   0.69728   0.00000  Uiso   1.00
H1233  H     0.09655   0.79944   0.94612   0.00000  Uiso   1.00
H1234  H     0.23636   0.86785   0.72043   0.00000  Uiso   1.00
O1235  O     0.12272   0.95658   0.75231   0.00000  Uiso   1.00
C1236  C     0.15041   0.96250   0.71423   0.00000  Uiso   1.00
H1237  H     0.13657   0.93928   0.68637   0.00000  Uiso   1.00
H1238  H     0.19261   0.95806   0.72448   0.00000  Uiso   1.00
H1239  H     0.14301   0.99329   0.69883   0.00000  Uiso   1.00
O1240  O     0.21147   0.71016   0.91417   0.00000  Uiso   1.00
C1241  C     0.18491   0.70335   0.95280   0.00000  Uiso   1.00
H1242  H     0.14239   0.70648   0.94323   0.00000  Uiso   1.00
H1243  H     0.19815   0.72692   0.98043   0.00000  Uiso   1.00
H1244  H     0.19414   0.67282   0.96824   0.00000  Uiso   1.00
N1245  N     0.08379   0.79594   0.70189   0.00000  Uiso   1.00
O1246  O     0.03795   0.80972   0.68793   0.00000  Uiso   1.00
O1247  O     0.08802   0.75974   0.72023   0.00000  Uiso   1.00
N1248  N     0.24707   0.87381   0.96433   0.00000  Uiso   1.00
O1249  O     0.24466   0.91340   0.95974   0.00000  Uiso   1.00
O1250  O     0.29215   0.85706   0.96936   0.00000  Uiso   1.00
O1251  O     0.50000   0.77322   0.87291   0.00000  Uiso   1.00
O1252  O     0.50000   0.89345   0.79375   0.00000  Uiso   1.00
O1253  O     0.50000   0.77321   0.79372   0.00000  Uiso   1.00
O1254  O     0.50000   0.89346   0.87294   0.00000  Uiso   1.00
C1255  C     0.50098   0.75412   0.83330   0.00000  Uiso   1.00
C1256  C     0.49921   0.91254   0.83337   0.00000  Uiso   1.00
O1257  O     0.42495   0.83334   0.86379   0.00000  Uiso   1.00
O1258  O     0.57505   0.83333   0.80288   0.00000  Uiso   1.00
O1259  O     0.42494   0.83333   0.78460   0.00000  Uiso   1.00
O1260  O     0.57506   0.83334   0.88207   0.00000  Uiso   1.00
C1261  C     0.40126   0.83327   0.82118   0.00000  Uiso   1.00
C1262  C     0.59874   0.83337   0.84548   0.00000  Uiso   1.00
Cu1263 Cu    0.50000   0.83334   0.88022   0.00000  Uiso   1.00
Cu1264 Cu    0.50000   0.83333   0.78645   0.00000  Uiso   1.00
N1265  N     0.50001   0.83334   0.95069   0.00000  Uiso   1.00
N1266  N     0.49999   0.83332   0.71597   0.00000  Uiso   1.00
C1267  C     0.34584   0.83330   0.81459   0.00000  Uiso   1.00
C1268  C     0.65416   0.83330   0.85205   0.00000  Uiso   1.00
H1269  H     0.65891   0.83335   0.77876   0.00000  Uiso   1.00
H1270  H     0.34111   0.83322   0.88786   0.00000  Uiso   1.00
C1271  C     0.48195   0.68754   0.79243   0.00000  Uiso   1.00
C1272  C     0.51898   0.97907   0.87409   0.00000  Uiso   1.00
H1273  H     0.46637   0.70352   0.76115   0.00000  Uiso   1.00
H1274  H     0.53499   0.96294   0.90513   0.00000  Uiso   1.00
C1275  C     0.48037   0.97808   0.79167   0.00000  Uiso   1.00
C1276  C     0.52041   0.68856   0.87491   0.00000  Uiso   1.00
C1277  C     0.49867   0.95719   0.83316   0.00000  Uiso   1.00
C1278  C     0.50190   0.70945   0.83346   0.00000  Uiso   1.00
C1279  C     0.46050   0.81472   0.68524   0.00000  Uiso   1.00
C1280  C     0.53896   0.85260   0.98132   0.00000  Uiso   1.00
C1281  C     0.46100   0.81464   0.96933   0.00000  Uiso   1.00
C1282  C     0.53878   0.85232   0.69728   0.00000  Uiso   1.00
H1283  H     0.42988   0.79944   0.94612   0.00000  Uiso   1.00
H1284  H     0.56969   0.86785   0.72043   0.00000  Uiso   1.00
O1285  O     0.45606   0.95658   0.75231   0.00000  Uiso   1.00
C1286  C     0.48374   0.96250   0.71423   0.00000  Uiso   1.00
H1287  H     0.46990   0.93928   0.68637   0.00000  Uiso   1.00
H1288  H     0.52594   0.95806   0.72448   0.00000  Uiso   1.00
H1289  H     0.47635   0.99329   0.69883   0.00000  Uiso   1.00
O1290  O     0.54480   0.71016   0.91417   0.00000  Uiso   1.00
C1291  C     0.51824   0.70335   0.95280   0.00000  Uiso   1.00
H1292  H     0.47573   0.70648   0.94323   0.00000  Uiso   1.00
H1293  H     0.53148   0.72692   0.98043   0.00000  Uiso   1.00
H1294  H     0.52748   0.67282   0.96824   0.00000  Uiso   1.00
N1295  N     0.41713   0.79594   0.70189   0.00000  Uiso   1.00
O1296  O     0.37128   0.80972   0.68793   0.00000  Uiso   1.00
O1297  O     0.42136   0.75974   0.72023   0.00000  Uiso   1.00
N1298  N     0.58040   0.87381   0.96433   0.00000  Uiso   1.00
O1299  O     0.57799   0.91340   0.95974   0.00000  Uiso   1.00
O1300  O     0.62548   0.85706   0.96936   0.00000  Uiso   1.00
O1301  O     0.83333   0.77322   0.87291   0.00000  Uiso   1.00
O1302  O     0.83334   0.89345   0.79375   0.00000  Uiso   1.00
O1303  O     0.83333   0.77321   0.79372   0.00000  Uiso   1.00
O1304  O     0.83334   0.89346   0.87294   0.00000  Uiso   1.00
C1305  C     0.83431   0.75412   0.83330   0.00000  Uiso   1.00
C1306  C     0.83254   0.91254   0.83337   0.00000  Uiso   1.00
O1307  O     0.75828   0.83334   0.86379   0.00000  Uiso   1.00
O1308  O     0.90839   0.83333   0.80288   0.00000  Uiso   1.00
O1309  O     0.75828   0.83333   0.78460   0.00000  Uiso   1.00
O1310  O     0.90839   0.83334   0.88207   0.00000  Uiso   1.00
C1311  C     0.73459   0.83327   0.82118   0.00000  Uiso   1.00
C1312  C     0.93207   0.83337   0.84548   0.00000  Uiso   1.00
Cu1313 Cu    0.83333   0.83334   0.88022   0.00000  Uiso   1.00
Cu1314 Cu    0.83333   0.83333   0.78645   0.00000  Uiso   1.00
N1315  N     0.83335   0.83334   0.95069   0.00000  Uiso   1.00
N1316  N     0.83332   0.83332   0.71597   0.00000  Uiso   1.00
C1317  C     0.67918   0.83330   0.81459   0.00000  Uiso   1.00
C1318  C     0.98749   0.83330   0.85205   0.00000  Uiso   1.00
H1319  H     0.99224   0.83335   0.77876   0.00000  Uiso   1.00
H1320  H     0.67445   0.83322   0.88786   0.00000  Uiso   1.00
C1321  C     0.81529   0.68754   0.79243   0.00000  Uiso   1.00
C1322  C     0.85231   0.97907   0.87409   0.00000  Uiso   1.00
H1323  H     0.79970   0.70352   0.76115   0.00000  Uiso   1.00
H1324  H     0.86832   0.96294   0.90513   0.00000  Uiso   1.00
C1325  C     0.81370   0.97808   0.79167   0.00000  Uiso   1.00
C1326  C     0.85374   0.68856   0.87491   0.00000  Uiso   1.00
C1327  C     0.83200   0.95719   0.83316   0.00000  Uiso   1.00
C1328  C     0.83523   0.70945   0.83346   0.00000  Uiso   1.00
C1329  C     0.79383   0.81472   0.68524   0.00000  Uiso   1.00
C1330  C     0.87229   0.85260   0.98132   0.00000  Uiso   1.00
C1331  C     0.79434   0.81464   0.96933   0.00000  Uiso   1.00
C1332  C     0.87212   0.85232   0.69728   0.00000  Uiso   1.00
H1333  H     0.76322   0.79944   0.94612   0.00000  Uiso   1.00
H1334  H     0.90302   0.86785   0.72043   0.00000  Uiso   1.00
O1335  O     0.78939   0.95658   0.75231   0.00000  Uiso   1.00
C1336  C     0.81707   0.96250   0.71423   0.00000  Uiso   1.00
H1337  H     0.80323   0.93928   0.68637   0.00000  Uiso   1.00
H1338  H     0.85927   0.95806   0.72448   0.00000  Uiso   1.00
H1339  H     0.80968   0.99329   0.69883   0.00000  Uiso   1.00
O1340  O     0.87814   0.71016   0.91417   0.00000  Uiso   1.00
C1341  C     0.85158   0.70335   0.95280   0.00000  Uiso   1.00
H1342  H     0.80906   0.70648   0.94323   0.00000  Uiso   1.00
H1343  H     0.86481   0.72692   0.98043   0.00000  Uiso   1.00
H1344  H     0.86081   0.67282   0.96824   0.00000  Uiso   1.00
N1345  N     0.75046   0.79594   0.70189   0.00000  Uiso   1.00
O1346  O     0.70462   0.80972   0.68793   0.00000  Uiso   1.00
O1347  O     0.75469   0.75974   0.72023   0.00000  Uiso   1.00
N1348  N     0.91374   0.87381   0.96433   0.00000  Uiso   1.00
O1349  O     0.91133   0.91340   0.95974   0.00000  Uiso   1.00
O1350  O     0.95881   0.85706   0.96936   0.00000  Uiso   1.00
loop_
_geom_bond_atom_site_label_1
_geom_bond_atom_site_label_2
_geom_bond_distance
_geom_bond_site_symmetry_2
_ccdc_geom_bond_type
O1     C5      1.293   .     A
O1     Cu13    1.965   .     S
O2     C6      1.292   .     A
O2     Cu14    1.965   .     S
O3     Cu14    1.970   .     S
O3     C5      1.300   .     A
O4     C6      1.300   .     A
O4     Cu13    1.970   .     S
C5     C28     1.454   .     S
C6     C27     1.453   .     S
O7     C11     1.289   .     A
O7     Cu13    1.954   .     S
O8     C12     1.289   .     A
O8     Cu14    1.954   .     S
O9     Cu14    1.959   .     S
O9     C11     1.296   .     A
O10    C12     1.296   .     A
O10    Cu13    1.959   .     S
C11    C17     1.437   .     S
C12    C18     1.437   .     S
Cu13   N15     2.024   .     S
Cu13   Cu14    2.694   .     S
Cu14   N16     2.024   .     S
N15    C31     1.359   .     A
N15    C30     1.380   .     A
N16    C32     1.359   .     A
N16    C29     1.382   .     A
C17    C118    1.339   1_455 S
C17    H119    1.087   1_455 S
C18    C67     1.339   .     S
C18    H70     1.087   .     S
H19    C67     1.087   .     S
H20    C118    1.087   1_455 S
C21    C28     1.398   .     A
C21    H23     1.076   .     S
C21    C325    1.392   1_545 S
C22    C27     1.397   .     A
C22    H24     1.077   .     S
C22    C176    1.393   .     S
C25    C27     1.407   .     A
C25    O35     1.387   .     S
C25    C171    1.392   .     S
C26    C28     1.408   .     A
C26    O40     1.387   .     S
C26    C322    1.393   1_545 S
C29    N45     1.426   .     S
C29    C931    1.417   1_554 S
C30    N48     1.424   .     S
C30    C482    1.417   .     S
C31    H33     1.082   .     S
C31    C479    1.417   .     S
C32    H34     1.082   .     S
C32    C930    1.417   1_554 S
O35    C36     1.411   .     S
C36    H37     1.110   .     S
C36    H38     1.115   .     S
C36    H39     1.110   .     S
O40    C41     1.411   .     S
C41    H43     1.110   .     S
C41    H42     1.115   .     S
C41    H44     1.110   .     S
N45    O46     1.300   .     A
N45    O47     1.297   .     A
N48    O50     1.300   .     A
N48    O49     1.299   .     A
O51    C55     1.293   .     A
O51    Cu63    1.965   .     S
O52    C56     1.292   .     A
O52    Cu64    1.965   .     S
O53    Cu64    1.970   .     S
O53    C55     1.300   .     A
O54    C56     1.300   .     A
O54    Cu63    1.970   .     S
C55    C78     1.454   .     S
C56    C77     1.453   .     S
O57    C61     1.289   .     A
O57    Cu63    1.954   .     S
O58    C62     1.289   .     A
O58    Cu64    1.954   .     S
O59    Cu64    1.959   .     S
O59    C61     1.296   .     A
O60    C62     1.296   .     A
O60    Cu63    1.959   .     S
C61    C67     1.437   .     S
C62    C68     1.437   .     S
Cu63   N65     2.024   .     S
Cu63   Cu64    2.694   .     S
Cu64   N66     2.024   .     S
N65    C81     1.359   .     A
N65    C80     1.380   .     A
N66    C82     1.359   .     A
N66    C79     1.382   .     A
C68    C117    1.339   .     S
C68    H120    1.087   .     S
H69    C117    1.087   .     S
C71    C78     1.398   .     A
C71    H73     1.076   .     S
C71    C375    1.392   1_545 S
C72    C77     1.397   .     A
C72    H74     1.077   .     S
C72    C226    1.393   .     S
C75    C77     1.407   .     A
C75    O85     1.387   .     S
C75    C221    1.392   .     S
C76    C78     1.408   .     A
C76    O90     1.387   .     S
C76    C372    1.393   1_545 S
C79    N95     1.426   .     S
C79    C981    1.417   1_554 S
C80    N98     1.424   .     S
C80    C532    1.417   .     S
C81    H83     1.082   .     S
C81    C529    1.417   .     S
C82    H84     1.082   .     S
C82    C980    1.417   1_554 S
O85    C86     1.411   .     S
C86    H87     1.110   .     S
C86    H88     1.115   .     S
C86    H89     1.110   .     S
O90    C91     1.411   .     S
C91    H93     1.110   .     S
C91    H92     1.115   .     S
C91    H94     1.110   .     S
N95    O96     1.300   .     A
N95    O97     1.297   .     A
N98    O100    1.300   .     A
N98    O99     1.299   .     A
O101   C105    1.293   .     A
O101   Cu113   1.965   .     S
O102   C106    1.292   .     A
O102   Cu114   1.965   .     S
O103   Cu114   1.970   .     S
O103   C105    1.300   .     A
O104   C106    1.300   .     A
O104   Cu113   1.970   .     S
C105   C128    1.454   .     S
C106   C127    1.453   .     S
O107   C111    1.289   .     A
O107   Cu113   1.954   .     S
O108   C112    1.289   .     A
O108   Cu114   1.954   .     S
O109   Cu114   1.959   .     S
O109   C111    1.296   .     A
O110   C112    1.296   .     A
O110   Cu113   1.959   .     S
C111   C117    1.437   .     S
C112   C118    1.437   .     S
Cu113  N115    2.024   .     S
Cu113  Cu114   2.694   .     S
Cu114  N116    2.024   .     S
N115   C131    1.359   .     A
N115   C130    1.380   .     A
N116   C132    1.359   .     A
N116   C129    1.382   .     A
C118   C17     1.339   1_655 S
C118   H20     1.087   1_655 S
H119   C17     1.087   1_655 S
C121   C128    1.398   .     A
C121   H123    1.076   .     S
C121   C425    1.392   1_545 S
C122   C127    1.397   .     A
C122   H124    1.077   .     S
C122   C276    1.393   .     S
C125   C127    1.407   .     A
C125   O135    1.387   .     S
C125   C271    1.392   .     S
C126   C128    1.408   .     A
C126   O140    1.387   .     S
C126   C422    1.393   1_545 S
C129   N145    1.426   .     S
C129   C1031   1.417   1_554 S
C130   N148    1.424   .     S
C130   C582    1.417   .     S
C131   H133    1.082   .     S
C131   C579    1.417   .     S
C132   H134    1.082   .     S
C132   C1030   1.417   1_554 S
O135   C136    1.411   .     S
C136   H137    1.110   .     S
C136   H138    1.115   .     S
C136   H139    1.110   .     S
O140   C141    1.411   .     S
C141   H143    1.110   .     S
C141   H142    1.115   .     S
C141   H144    1.110   .     S
N145   O146    1.300   .     A
N145   O147    1.297   .     A
N148   O150    1.300   .     A
N148   O149    1.299   .     A
O151   C155    1.293   .     A
O151   Cu163   1.965   .     S
O152   C156    1.292   .     A
O152   Cu164   1.965   .     S
O153   Cu164   1.970   .     S
O153   C155    1.300   .     A
O154   C156    1.300   .     A
O154   Cu163   1.970   .     S
C155   C178    1.454   .     S
C156   C177    1.453   .     S
O157   C161    1.289   .     A
O157   Cu163   1.954   .     S
O158   C162    1.289   .     A
O158   Cu164   1.954   .     S
O159   Cu164   1.959   .     S
O159   C161    1.296   .     A
O160   C162    1.296   .     A
O160   Cu163   1.959   .     S
C161   C167    1.437   .     S
C162   C168    1.437   .     S
Cu163  N165    2.024   .     S
Cu163  Cu164   2.694   .     S
Cu164  N166    2.024   .     S
N165   C181    1.359   .     A
N165   C180    1.380   .     A
N166   C182    1.359   .     A
N166   C179    1.382   .     A
C167   C268    1.339   1_455 S
C167   H269    1.087   1_455 S
C168   C217    1.339   .     S
C168   H220    1.087   .     S
H169   C217    1.087   .     S
H170   C268    1.087   1_455 S
C171   C178    1.398   .     A
C171   H173    1.076   .     S
C172   C177    1.397   .     A
C172   H174    1.077   .     S
C172   C326    1.393   .     S
C175   C177    1.407   .     A
C175   O185    1.387   .     S
C175   C321    1.392   .     S
C176   C178    1.408   .     A
C176   O190    1.387   .     S
C179   N195    1.426   .     S
C179   C1081   1.417   1_554 S
C180   N198    1.424   .     S
C180   C632    1.417   .     S
C181   H183    1.082   .     S
C181   C629    1.417   .     S
C182   H184    1.082   .     S
C182   C1080   1.417   1_554 S
O185   C186    1.411   .     S
C186   H187    1.110   .     S
C186   H188    1.115   .     S
C186   H189    1.110   .     S
O190   C191    1.411   .     S
C191   H193    1.110   .     S
C191   H192    1.115   .     S
C191   H194    1.110   .     S
N195   O196    1.300   .     A
N195   O197    1.297   .     A
N198   O200    1.300   .     A
N198   O199    1.299   .     A
O201   C205    1.293   .     A
O201   Cu213   1.965   .     S
O202   C206    1.292   .     A
O202   Cu214   1.965   .     S
O203   Cu214   1.970   .     S
O203   C205    1.300   .     A
O204   C206    1.300   .     A
O204   Cu213   1.970   .     S
C205   C228    1.454   .     S
C206   C227    1.453   .     S
O207   C211    1.289   .     A
O207   Cu213   1.954   .     S
O208   C212    1.289   .     A
O208   Cu214   1.954   .     S
O209   Cu214   1.959   .     S
O209   C211    1.296   .     A
O210   C212    1.296   .     A
O210   Cu213   1.959   .     S
C211   C217    1.437   .     S
C212   C218    1.437   .     S
Cu213  N215    2.024   .     S
Cu213  Cu214   2.694   .     S
Cu214  N216    2.024   .     S
N215   C231    1.359   .     A
N215   C230    1.380   .     A
N216   C232    1.359   .     A
N216   C229    1.382   .     A
C218   C267    1.339   .     S
C218   H270    1.087   .     S
H219   C267    1.087   .     S
C221   C228    1.398   .     A
C221   H223    1.076   .     S
C222   C227    1.397   .     A
C222   H224    1.077   .     S
C222   C376    1.393   .     S
C225   C227    1.407   .     A
C225   O235    1.387   .     S
C225   C371    1.392   .     S
C226   C228    1.408   .     A
C226   O240    1.387   .     S
C229   N245    1.426   .     S
C229   C1131   1.417   1_554 S
C230   N248    1.424   .     S
C230   C682    1.417   .     S
C231   H233    1.082   .     S
C231   C679    1.417   .     S
C232   H234    1.082   .     S
C232   C1130   1.417   1_554 S
O235   C236    1.411   .     S
C236   H237    1.110   .     S
C236   H238    1.115   .     S
C236   H239    1.110   .     S
O240   C241    1.411   .     S
C241   H243    1.110   .     S
C241   H242    1.115   .     S
C241   H244    1.110   .     S
N245   O246    1.300   .     A
N245   O247    1.297   .     A
N248   O250    1.300   .     A
N248   O249    1.299   .     A
O251   C255    1.293   .     A
O251   Cu263   1.965   .     S
O252   C256    1.292   .     A
O252   Cu264   1.965   .     S
O253   Cu264   1.970   .     S
O253   C255    1.300   .     A
O254   C256    1.300   .     A
O254   Cu263   1.970   .     S
C255   C278    1.454   .     S
C256   C277    1.453   .     S
O257   C261    1.289   .     A
O257   Cu263   1.954   .     S
O258   C262    1.289   .     A
O258   Cu264   1.954   .     S
O259   Cu264   1.959   .     S
O259   C261    1.296   .     A
O260   C262    1.296   .     A
O260   Cu263   1.959   .     S
C261   C267    1.437   .     S
C262   C268    1.437   .     S
Cu263  N265    2.024   .     S
Cu263  Cu264   2.694   .     S
Cu264  N266    2.024   .     S
N265   C281    1.359   .     A
N265   C280    1.380   .     A
N266   C282    1.359   .     A
N266   C279    1.382   .     A
C268   C167    1.339   1_655 S
C268   H170    1.087   1_655 S
H269   C167    1.087   1_655 S
C271   C278    1.398   .     A
C271   H273    1.076   .     S
C272   C277    1.397   .     A
C272   H274    1.077   .     S
C272   C426    1.393   .     S
C275   C277    1.407   .     A
C275   O285    1.387   .     S
C275   C421    1.392   .     S
C276   C278    1.408   .     A
C276   O290    1.387   .     S
C279   N295    1.426   .     S
C279   C1181   1.417   1_554 S
C280   N298    1.424   .     S
C280   C732    1.417   .     S
C281   H283    1.082   .     S
C281   C729    1.417   .     S
C282   H284    1.082   .     S
C282   C1180   1.417   1_554 S
O285   C286    1.411   .     S
C286   H287    1.110   .     S
C286   H288    1.115   .     S
C286   H289    1.110   .     S
O290   C291    1.411   .     S
C291   H293    1.110   .     S
C291   H292    1.115   .     S
C291   H294    1.110   .     S
N295   O296    1.300   .     A
N295   O297    1.297   .     A
N298   O300    1.300   .     A
N298   O299    1.299   .     A
O301   C305    1.293   .     A
O301   Cu313   1.965   .     S
O302   C306    1.292   .     A
O302   Cu314   1.965   .     S
O303   Cu314   1.970   .     S
O303   C305    1.300   .     A
O304   C306    1.300   .     A
O304   Cu313   1.970   .     S
C305   C328    1.454   .     S
C306   C327    1.453   .     S
O307   C311    1.289   .     A
O307   Cu313   1.954   .     S
O308   C312    1.289   .     A
O308   Cu314   1.954   .     S
O309   Cu314   1.959   .     S
O309   C311    1.296   .     A
O310   C312    1.296   .     A
O310   Cu313   1.959   .     S
C311   C317    1.437   .     S
C312   C318    1.437   .     S
Cu313  N315    2.024   .     S
Cu313  Cu314   2.694   .     S
Cu314  N316    2.024   .     S
N315   C331    1.359   .     A
N315   C330    1.380   .     A
N316   C332    1.359   .     A
N316   C329    1.382   .     A
C317   C418    1.339   1_455 S
C317   H419    1.087   1_455 S
C318   C367    1.339   .     S
C318   H370    1.087   .     S
H319   C367    1.087   .     S
H320   C418    1.087   1_455 S
C321   C328    1.398   .     A
C321   H323    1.076   .     S
C322   C327    1.397   .     A
C322   H324    1.077   .     S
C322   C26     1.393   1_565 S
C325   C327    1.407   .     A
C325   O335    1.387   .     S
C325   C21     1.392   1_565 S
C326   C328    1.408   .     A
C326   O340    1.387   .     S
C329   N345    1.426   .     S
C329   C1231   1.417   1_554 S
C330   N348    1.424   .     S
C330   C782    1.417   .     S
C331   H333    1.082   .     S
C331   C779    1.417   .     S
C332   H334    1.082   .     S
C332   C1230   1.417   1_554 S
O335   C336    1.411   .     S
C336   H337    1.110   .     S
C336   H338    1.115   .     S
C336   H339    1.110   .     S
O340   C341    1.411   .     S
C341   H343    1.110   .     S
C341   H342    1.115   .     S
C341   H344    1.110   .     S
N345   O346    1.300   .     A
N345   O347    1.297   .     A
N348   O350    1.300   .     A
N348   O349    1.299   .     A
O351   C355    1.293   .     A
O351   Cu363   1.965   .     S
O352   C356    1.292   .     A
O352   Cu364   1.965   .     S
O353   Cu364   1.970   .     S
O353   C355    1.300   .     A
O354   C356    1.300   .     A
O354   Cu363   1.970   .     S
C355   C378    1.454   .     S
C356   C377    1.453   .     S
O357   C361    1.289   .     A
O357   Cu363   1.954   .     S
O358   C362    1.289   .     A
O358   Cu364   1.954   .     S
O359   Cu364   1.959   .     S
O359   C361    1.296   .     A
O360   C362    1.296   .     A
O360   Cu363   1.959   .     S
C361   C367    1.437   .     S
C362   C368    1.437   .     S
Cu363  N365    2.024   .     S
Cu363  Cu364   2.694   .     S
Cu364  N366    2.024   .     S
N365   C381    1.359   .     A
N365   C380    1.380   .     A
N366   C382    1.359   .     A
N366   C379    1.382   .     A
C368   C417    1.339   .     S
C368   H420    1.087   .     S
H369   C417    1.087   .     S
C371   C378    1.398   .     A
C371   H373    1.076   .     S
C372   C377    1.397   .     A
C372   H374    1.077   .     S
C372   C76     1.393   1_565 S
C375   C377    1.407   .     A
C375   O385    1.387   .     S
C375   C71     1.392   1_565 S
C376   C378    1.408   .     A
C376   O390    1.387   .     S
C379   N395    1.426   .     S
C379   C1281   1.417   1_554 S
C380   N398    1.424   .     S
C380   C832    1.417   .     S
C381   H383    1.082   .     S
C381   C829    1.417   .     S
C382   H384    1.082   .     S
C382   C1280   1.417   1_554 S
O385   C386    1.411   .     S
C386   H387    1.110   .     S
C386   H388    1.115   .     S
C386   H389    1.110   .     S
O390   C391    1.411   .     S
C391   H393    1.110   .     S
C391   H392    1.115   .     S
C391   H394    1.110   .     S
N395   O396    1.300   .     A
N395   O397    1.297   .     A
N398   O400    1.300   .     A
N398   O399    1.299   .     A
O401   C405    1.293   .     A
O401   Cu413   1.965   .     S
O402   C406    1.292   .     A
O402   Cu414   1.965   .     S
O403   Cu414   1.970   .     S
O403   C405    1.300   .     A
O404   C406    1.300   .     A
O404   Cu413   1.970   .     S
C405   C428    1.454   .     S
C406   C427    1.453   .     S
O407   C411    1.289   .     A
O407   Cu413   1.954   .     S
O408   C412    1.289   .     A
O408   Cu414   1.954   .     S
O409   Cu414   1.959   .     S
O409   C411    1.296   .     A
O410   C412    1.296   .     A
O410   Cu413   1.959   .     S
C411   C417    1.437   .     S
C412   C418    1.437   .     S
Cu413  N415    2.024   .     S
Cu413  Cu414   2.694   .     S
Cu414  N416    2.024   .     S
N415   C431    1.359   .     A
N415   C430    1.380   .     A
N416   C432    1.359   .     A
N416   C429    1.382   .     A
C418   C317    1.339   1_655 S
C418   H320    1.087   1_655 S
H419   C317    1.087   1_655 S
C421   C428    1.398   .     A
C421   H423    1.076   .     S
C422   C427    1.397   .     A
C422   H424    1.077   .     S
C422   C126    1.393   1_565 S
C425   C427    1.407   .     A
C425   O435    1.387   .     S
C425   C121    1.392   1_565 S
C426   C428    1.408   .     A
C426   O440    1.387   .     S
C429   N445    1.426   .     S
C429   C1331   1.417   1_554 S
C430   N448    1.424   .     S
C430   C882    1.417   .     S
C431   H433    1.082   .     S
C431   C879    1.417   .     S
C432   H434    1.082   .     S
C432   C1330   1.417   1_554 S
O435   C436    1.411   .     S
C436   H437    1.110   .     S
C436   H438    1.115   .     S
C436   H439    1.110   .     S
O440   C441    1.411   .     S
C441   H443    1.110   .     S
C441   H442    1.115   .     S
C441   H444    1.110   .     S
N445   O446    1.300   .     A
N445   O447    1.297   .     A
N448   O450    1.300   .     A
N448   O449    1.299   .     A
O451   C455    1.293   .     A
O451   Cu463   1.965   .     S
O452   C456    1.292   .     A
O452   Cu464   1.965   .     S
O453   Cu464   1.970   .     S
O453   C455    1.300   .     A
O454   C456    1.300   .     A
O454   Cu463   1.970   .     S
C455   C478    1.454   .     S
C456   C477    1.453   .     S
O457   C461    1.289   .     A
O457   Cu463   1.954   .     S
O458   C462    1.289   .     A
O458   Cu464   1.954   .     S
O459   Cu464   1.959   .     S
O459   C461    1.296   .     A
O460   C462    1.296   .     A
O460   Cu463   1.959   .     S
C461   C467    1.437   .     S
C462   C468    1.437   .     S
Cu463  N465    2.024   .     S
Cu463  Cu464   2.694   .     S
Cu464  N466    2.024   .     S
N465   C481    1.359   .     A
N465   C480    1.380   .     A
N466   C482    1.359   .     A
N466   C479    1.382   .     A
C467   C568    1.339   1_455 S
C467   H569    1.087   1_455 S
C468   C517    1.339   .     S
C468   H520    1.087   .     S
H469   C517    1.087   .     S
H470   C568    1.087   1_455 S
C471   C478    1.398   .     A
C471   H473    1.076   .     S
C471   C775    1.392   1_545 S
C472   C477    1.397   .     A
C472   H474    1.077   .     S
C472   C626    1.393   .     S
C475   C477    1.407   .     A
C475   O485    1.387   .     S
C475   C621    1.392   .     S
C476   C478    1.408   .     A
C476   O490    1.387   .     S
C476   C772    1.393   1_545 S
C479   N495    1.426   .     S
C480   N498    1.424   .     S
C480   C932    1.417   .     S
C481   H483    1.082   .     S
C481   C929    1.417   .     S
C482   H484    1.082   .     S
O485   C486    1.411   .     S
C486   H487    1.110   .     S
C486   H488    1.115   .     S
C486   H489    1.110   .     S
O490   C491    1.411   .     S
C491   H493    1.110   .     S
C491   H492    1.115   .     S
C491   H494    1.110   .     S
N495   O496    1.300   .     A
N495   O497    1.297   .     A
N498   O500    1.300   .     A
N498   O499    1.299   .     A
O501   C505    1.293   .     A
O501   Cu513   1.965   .     S
O502   C506    1.292   .     A
O502   Cu514   1.965   .     S
O503   Cu514   1.970   .     S
O503   C505    1.300   .     A
O504   C506    1.300   .     A
O504   Cu513   1.970   .     S
C505   C528    1.454   .     S
C506   C527    1.453   .     S
O507   C511    1.289   .     A
O507   Cu513   1.954   .     S
O508   C512    1.289   .     A
O508   Cu514   1.954   .     S
O509   Cu514   1.959   .     S
O509   C511    1.296   .     A
O510   C512    1.296   .     A
O510   Cu513   1.959   .     S
C511   C517    1.437   .     S
C512   C518    1.437   .     S
Cu513  N515    2.024   .     S
Cu513  Cu514   2.694   .     S
Cu514  N516    2.024   .     S
N515   C531    1.359   .     A
N515   C530    1.380   .     A
N516   C532    1.359   .     A
N516   C529    1.382   .     A
C518   C567    1.339   .     S
C518   H570    1.087   .     S
H519   C567    1.087   .     S
C521   C528    1.398   .     A
C521   H523    1.076   .     S
C521   C825    1.392   1_545 S
C522   C527    1.397   .     A
C522   H524    1.077   .     S
C522   C676    1.393   .     S
C525   C527    1.407   .     A
C525   O535    1.387   .     S
C525   C671    1.392   .     S
C526   C528    1.408   .     A
C526   O540    1.387   .     S
C526   C822    1.393   1_545 S
C529   N545    1.426   .     S
C530   N548    1.424   .     S
C530   C982    1.417   .     S
C531   H533    1.082   .     S
C531   C979    1.417   .     S
C532   H534    1.082   .     S
O535   C536    1.411   .     S
C536   H537    1.110   .     S
C536   H538    1.115   .     S
C536   H539    1.110   .     S
O540   C541    1.411   .     S
C541   H543    1.110   .     S
C541   H542    1.115   .     S
C541   H544    1.110   .     S
N545   O546    1.300   .     A
N545   O547    1.297   .     A
N548   O550    1.300   .     A
N548   O549    1.299   .     A
O551   C555    1.293   .     A
O551   Cu563   1.965   .     S
O552   C556    1.292   .     A
O552   Cu564   1.965   .     S
O553   Cu564   1.970   .     S
O553   C555    1.300   .     A
O554   C556    1.300   .     A
O554   Cu563   1.970   .     S
C555   C578    1.454   .     S
C556   C577    1.453   .     S
O557   C561    1.289   .     A
O557   Cu563   1.954   .     S
O558   C562    1.289   .     A
O558   Cu564   1.954   .     S
O559   Cu564   1.959   .     S
O559   C561    1.296   .     A
O560   C562    1.296   .     A
O560   Cu563   1.959   .     S
C561   C567    1.437   .     S
C562   C568    1.437   .     S
Cu563  N565    2.024   .     S
Cu563  Cu564   2.694   .     S
Cu564  N566    2.024   .     S
N565   C581    1.359   .     A
N565   C580    1.380   .     A
N566   C582    1.359   .     A
N566   C579    1.382   .     A
C568   C467    1.339   1_655 S
C568   H470    1.087   1_655 S
H569   C467    1.087   1_655 S
C571   C578    1.398   .     A
C571   H573    1.076   .     S
C571   C875    1.392   1_545 S
C572   C577    1.397   .     A
C572   H574    1.077   .     S
C572   C726    1.393   .     S
C575   C577    1.407   .     A
C575   O585    1.387   .     S
C575   C721    1.392   .     S
C576   C578    1.408   .     A
C576   O590    1.387   .     S
C576   C872    1.393   1_545 S
C579   N595    1.426   .     S
C580   N598    1.424   .     S
C580   C1032   1.417   .     S
C581   H583    1.082   .     S
C581   C1029   1.417   .     S
C582   H584    1.082   .     S
O585   C586    1.411   .     S
C586   H587    1.110   .     S
C586   H588    1.115   .     S
C586   H589    1.110   .     S
O590   C591    1.411   .     S
C591   H593    1.110   .     S
C591   H592    1.115   .     S
C591   H594    1.110   .     S
N595   O596    1.300   .     A
N595   O597    1.297   .     A
N598   O600    1.300   .     A
N598   O599    1.299   .     A
O601   C605    1.293   .     A
O601   Cu613   1.965   .     S
O602   C606    1.292   .     A
O602   Cu614   1.965   .     S
O603   Cu614   1.970   .     S
O603   C605    1.300   .     A
O604   C606    1.300   .     A
O604   Cu613   1.970   .     S
C605   C628    1.454   .     S
C606   C627    1.453   .     S
O607   C611    1.289   .     A
O607   Cu613   1.954   .     S
O608   C612    1.289   .     A
O608   Cu614   1.954   .     S
O609   Cu614   1.959   .     S
O609   C611    1.296   .     A
O610   C612    1.296   .     A
O610   Cu613   1.959   .     S
C611   C617    1.437   .     S
C612   C618    1.437   .     S
Cu613  N615    2.024   .     S
Cu613  Cu614   2.694   .     S
Cu614  N616    2.024   .     S
N615   C631    1.359   .     A
N615   C630    1.380   .     A
N616   C632    1.359   .     A
N616   C629    1.382   .     A
C617   C718    1.339   1_455 S
C617   H719    1.087   1_455 S
C618   C667    1.339   .     S
C618   H670    1.087   .     S
H619   C667    1.087   .     S
H620   C718    1.087   1_455 S
C621   C628    1.398   .     A
C621   H623    1.076   .     S
C622   C627    1.397   .     A
C622   H624    1.077   .     S
C622   C776    1.393   .     S
C625   C627    1.407   .     A
C625   O635    1.387   .     S
C625   C771    1.392   .     S
C626   C628    1.408   .     A
C626   O640    1.387   .     S
C629   N645    1.426   .     S
C630   N648    1.424   .     S
C630   C1082   1.417   .     S
C631   H633    1.082   .     S
C631   C1079   1.417   .     S
C632   H634    1.082   .     S
O635   C636    1.411   .     S
C636   H637    1.110   .     S
C636   H638    1.115   .     S
C636   H639    1.110   .     S
O640   C641    1.411   .     S
C641   H643    1.110   .     S
C641   H642    1.115   .     S
C641   H644    1.110   .     S
N645   O646    1.300   .     A
N645   O647    1.297   .     A
N648   O650    1.300   .     A
N648   O649    1.299   .     A
O651   C655    1.293   .     A
O651   Cu663   1.965   .     S
O652   C656    1.292   .     A
O652   Cu664   1.965   .     S
O653   Cu664   1.970   .     S
O653   C655    1.300   .     A
O654   C656    1.300   .     A
O654   Cu663   1.970   .     S
C655   C678    1.454   .     S
C656   C677    1.453   .     S
O657   C661    1.289   .     A
O657   Cu663   1.954   .     S
O658   C662    1.289   .     A
O658   Cu664   1.954   .     S
O659   Cu664   1.959   .     S
O659   C661    1.296   .     A
O660   C662    1.296   .     A
O660   Cu663   1.959   .     S
C661   C667    1.437   .     S
C662   C668    1.437   .     S
Cu663  N665    2.024   .     S
Cu663  Cu664   2.694   .     S
Cu664  N666    2.024   .     S
N665   C681    1.359   .     A
N665   C680    1.380   .     A
N666   C682    1.359   .     A
N666   C679    1.382   .     A
C668   C717    1.339   .     S
C668   H720    1.087   .     S
H669   C717    1.087   .     S
C671   C678    1.398   .     A
C671   H673    1.076   .     S
C672   C677    1.397   .     A
C672   H674    1.077   .     S
C672   C826    1.393   .     S
C675   C677    1.407   .     A
C675   O685    1.387   .     S
C675   C821    1.392   .     S
C676   C678    1.408   .     A
C676   O690    1.387   .     S
C679   N695    1.426   .     S
C680   N698    1.424   .     S
C680   C1132   1.417   .     S
C681   H683    1.082   .     S
C681   C1129   1.417   .     S
C682   H684    1.082   .     S
O685   C686    1.411   .     S
C686   H687    1.110   .     S
C686   H688    1.115   .     S
C686   H689    1.110   .     S
O690   C691    1.411   .     S
C691   H693    1.110   .     S
C691   H692    1.115   .     S
C691   H694    1.110   .     S
N695   O696    1.300   .     A
N695   O697    1.297   .     A
N698   O700    1.300   .     A
N698   O699    1.299   .     A
O701   C705    1.293   .     A
O701   Cu713   1.965   .     S
O702   C706    1.292   .     A
O702   Cu714   1.965   .     S
O703   Cu714   1.970   .     S
O703   C705    1.300   .     A
O704   C706    1.300   .     A
O704   Cu713   1.970   .     S
C705   C728    1.454   .     S
C706   C727    1.453   .     S
O707   C711    1.289   .     A
O707   Cu713   1.954   .     S
O708   C712    1.289   .     A
O708   Cu714   1.954   .     S
O709   Cu714   1.959   .     S
O709   C711    1.296   .     A
O710   C712    1.296   .     A
O710   Cu713   1.959   .     S
C711   C717    1.437   .     S
C712   C718    1.437   .     S
Cu713  N715    2.024   .     S
Cu713  Cu714   2.694   .     S
Cu714  N716    2.024   .     S
N715   C731    1.359   .     A
N715   C730    1.380   .     A
N716   C732    1.359   .     A
N716   C729    1.382   .     A
C718   C617    1.339   1_655 S
C718   H620    1.087   1_655 S
H719   C617    1.087   1_655 S
C721   C728    1.398   .     A
C721   H723    1.076   .     S
C722   C727    1.397   .     A
C722   H724    1.077   .     S
C722   C876    1.393   .     S
C725   C727    1.407   .     A
C725   O735    1.387   .     S
C725   C871    1.392   .     S
C726   C728    1.408   .     A
C726   O740    1.387   .     S
C729   N745    1.426   .     S
C730   N748    1.424   .     S
C730   C1182   1.417   .     S
C731   H733    1.082   .     S
C731   C1179   1.417   .     S
C732   H734    1.082   .     S
O735   C736    1.411   .     S
C736   H737    1.110   .     S
C736   H738    1.115   .     S
C736   H739    1.110   .     S
O740   C741    1.411   .     S
C741   H743    1.110   .     S
C741   H742    1.115   .     S
C741   H744    1.110   .     S
N745   O746    1.300   .     A
N745   O747    1.297   .     A
N748   O750    1.300   .     A
N748   O749    1.299   .     A
O751   C755    1.293   .     A
O751   Cu763   1.965   .     S
O752   C756    1.292   .     A
O752   Cu764   1.965   .     S
O753   Cu764   1.970   .     S
O753   C755    1.300   .     A
O754   C756    1.300   .     A
O754   Cu763   1.970   .     S
C755   C778    1.454   .     S
C756   C777    1.453   .     S
O757   C761    1.289   .     A
O757   Cu763   1.954   .     S
O758   C762    1.289   .     A
O758   Cu764   1.954   .     S
O759   Cu764   1.959   .     S
O759   C761    1.296   .     A
O760   C762    1.296   .     A
O760   Cu763   1.959   .     S
C761   C767    1.437   .     S
C762   C768    1.437   .     S
Cu763  N765    2.024   .     S
Cu763  Cu764   2.694   .     S
Cu764  N766    2.024   .     S
N765   C781    1.359   .     A
N765   C780    1.380   .     A
N766   C782    1.359   .     A
N766   C779    1.382   .     A
C767   C868    1.339   1_455 S
C767   H869    1.087   1_455 S
C768   C817    1.339   .     S
C768   H820    1.087   .     S
H769   C817    1.087   .     S
H770   C868    1.087   1_455 S
C771   C778    1.398   .     A
C771   H773    1.076   .     S
C772   C777    1.397   .     A
C772   H774    1.077   .     S
C772   C476    1.393   1_565 S
C775   C777    1.407   .     A
C775   O785    1.387   .     S
C775   C471    1.392   1_565 S
C776   C778    1.408   .     A
C776   O790    1.387   .     S
C779   N795    1.426   .     S
C780   N798    1.424   .     S
C780   C1232   1.417   .     S
C781   H783    1.082   .     S
C781   C1229   1.417   .     S
C782   H784    1.082   .     S
O785   C786    1.411   .     S
C786   H787    1.110   .     S
C786   H788    1.115   .     S
C786   H789    1.110   .     S
O790   C791    1.411   .     S
C791   H793    1.110   .     S
C791   H792    1.115   .     S
C791   H794    1.110   .     S
N795   O796    1.300   .     A
N795   O797    1.297   .     A
N798   O800    1.300   .     A
N798   O799    1.299   .     A
O801   C805    1.293   .     A
O801   Cu813   1.965   .     S
O802   C806    1.292   .     A
O802   Cu814   1.965   .     S
O803   Cu814   1.970   .     S
O803   C805    1.300   .     A
O804   C806    1.300   .     A
O804   Cu813   1.970   .     S
C805   C828    1.454   .     S
C806   C827    1.453   .     S
O807   C811    1.289   .     A
O807   Cu813   1.954   .     S
O808   C812    1.289   .     A
O808   Cu814   1.954   .     S
O809   Cu814   1.959   .     S
O809   C811    1.296   .     A
O810   C812    1.296   .     A
O810   Cu813   1.959   .     S
C811   C817    1.437   .     S
C812   C818    1.437   .     S
Cu813  N815    2.024   .     S
Cu813  Cu814   2.694   .     S
Cu814  N816    2.024   .     S
N815   C831    1.359   .     A
N815   C830    1.380   .     A
N816   C832    1.359   .     A
N816   C829    1.382   .     A
C818   C867    1.339   .     S
C818   H870    1.087   .     S
H819   C867    1.087   .     S
C821   C828    1.398   .     A
C821   H823    1.076   .     S
C822   C827    1.397   .     A
C822   H824    1.077   .     S
C822   C526    1.393   1_565 S
C825   C827    1.407   .     A
C825   O835    1.387   .     S
C825   C521    1.392   1_565 S
C826   C828    1.408   .     A
C826   O840    1.387   .     S
C829   N845    1.426   .     S
C830   N848    1.424   .     S
C830   C1282   1.417   .     S
C831   H833    1.082   .     S
C831   C1279   1.417   .     S
C832   H834    1.082   .     S
O835   C836    1.411   .     S
C836   H837    1.110   .     S
C836   H838    1.115   .     S
C836   H839    1.110   .     S
O840   C841    1.411   .     S
C841   H843    1.110   .     S
C841   H842    1.115   .     S
C841   H844    1.110   .     S
N845   O846    1.300   .     A
N845   O847    1.297   .     A
N848   O850    1.300   .     A
N848   O849    1.299   .     A
O851   C855    1.293   .     A
O851   Cu863   1.965   .     S
O852   C856    1.292   .     A
O852   Cu864   1.965   .     S
O853   Cu864   1.970   .     S
O853   C855    1.300   .     A
O854   C856    1.300   .     A
O854   Cu863   1.970   .     S
C855   C878    1.454   .     S
C856   C877    1.453   .     S
O857   C861    1.289   .     A
O857   Cu863   1.954   .     S
O858   C862    1.289   .     A
O858   Cu864   1.954   .     S
O859   Cu864   1.959   .     S
O859   C861    1.296   .     A
O860   C862    1.296   .     A
O860   Cu863   1.959   .     S
C861   C867    1.437   .     S
C862   C868    1.437   .     S
Cu863  N865    2.024   .     S
Cu863  Cu864   2.694   .     S
Cu864  N866    2.024   .     S
N865   C881    1.359   .     A
N865   C880    1.380   .     A
N866   C882    1.359   .     A
N866   C879    1.382   .     A
C868   C767    1.339   1_655 S
C868   H770    1.087   1_655 S
H869   C767    1.087   1_655 S
C871   C878    1.398   .     A
C871   H873    1.076   .     S
C872   C877    1.397   .     A
C872   H874    1.077   .     S
C872   C576    1.393   1_565 S
C875   C877    1.407   .     A
C875   O885    1.387   .     S
C875   C571    1.392   1_565 S
C876   C878    1.408   .     A
C876   O890    1.387   .     S
C879   N895    1.426   .     S
C880   N898    1.424   .     S
C880   C1332   1.417   .     S
C881   H883    1.082   .     S
C881   C1329   1.417   .     S
C882   H884    1.082   .     S
O885   C886    1.411   .     S
C886   H887    1.110   .     S
C886   H888    1.115   .     S
C886   H889    1.110   .     S
O890   C891    1.411   .     S
C891   H893    1.110   .     S
C891   H892    1.115   .     S
C891   H894    1.110   .     S
N895   O896    1.300   .     A
N895   O897    1.297   .     A
N898   O900    1.300   .     A
N898   O899    1.299   .     A
O901   C905    1.293   .     A
O901   Cu913   1.965   .     S
O902   C906    1.292   .     A
O902   Cu914   1.965   .     S
O903   Cu914   1.970   .     S
O903   C905    1.300   .     A
O904   C906    1.300   .     A
O904   Cu913   1.970   .     S
C905   C928    1.454   .     S
C906   C927    1.453   .     S
O907   C911    1.289   .     A
O907   Cu913   1.954   .     S
O908   C912    1.289   .     A
O908   Cu914   1.954   .     S
O909   Cu914   1.959   .     S
O909   C911    1.296   .     A
O910   C912    1.296   .     A
O910   Cu913   1.959   .     S
C911   C917    1.437   .     S
C912   C918    1.437   .     S
Cu913  N915    2.024   .     S
Cu913  Cu914   2.694   .     S
Cu914  N916    2.024   .     S
N915   C931    1.359   .     A
N915   C930    1.380   .     A
N916   C932    1.359   .     A
N916   C929    1.382   .     A
C917   C1018   1.339   1_455 S
C917   H1019   1.087   1_455 S
C918   C967    1.339   .     S
C918   H970    1.087   .     S
H919   C967    1.087   .     S
H920   C1018   1.087   1_455 S
C921   C928    1.398   .     A
C921   H923    1.076   .     S
C921   C1225   1.392   1_545 S
C922   C927    1.397   .     A
C922   H924    1.077   .     S
C922   C1076   1.393   .     S
C925   C927    1.407   .     A
C925   O935    1.387   .     S
C925   C1071   1.392   .     S
C926   C928    1.408   .     A
C926   O940    1.387   .     S
C926   C1222   1.393   1_545 S
C929   N945    1.426   .     S
C930   N948    1.424   .     S
C930   C32     1.417   1_556 S
C931   H933    1.082   .     S
C931   C29     1.417   1_556 S
C932   H934    1.082   .     S
O935   C936    1.411   .     S
C936   H937    1.110   .     S
C936   H938    1.115   .     S
C936   H939    1.110   .     S
O940   C941    1.411   .     S
C941   H943    1.110   .     S
C941   H942    1.115   .     S
C941   H944    1.110   .     S
N945   O946    1.300   .     A
N945   O947    1.297   .     A
N948   O950    1.300   .     A
N948   O949    1.299   .     A
O951   C955    1.293   .     A
O951   Cu963   1.965   .     S
O952   C956    1.292   .     A
O952   Cu964   1.965   .     S
O953   Cu964   1.970   .     S
O953   C955    1.300   .     A
O954   C956    1.300   .     A
O954   Cu963   1.970   .     S
C955   C978    1.454   .     S
C956   C977    1.453   .     S
O957   C961    1.289   .     A
O957   Cu963   1.954   .     S
O958   C962    1.289   .     A
O958   Cu964   1.954   .     S
O959   Cu964   1.959   .     S
O959   C961    1.296   .     A
O960   C962    1.296   .     A
O960   Cu963   1.959   .     S
C961   C967    1.437   .     S
C962   C968    1.437   .     S
Cu963  N965    2.024   .     S
Cu963  Cu964   2.694   .     S
Cu964  N966    2.024   .     S
N965   C981    1.359   .     A
N965   C980    1.380   .     A
N966   C982    1.359   .     A
N966   C979    1.382   .     A
C968   C1017   1.339   .     S
C968   H1020   1.087   .     S
H969   C1017   1.087   .     S
C971   C978    1.398   .     A
C971   H973    1.076   .     S
C971   C1275   1.392   1_545 S
C972   C977    1.397   .     A
C972   H974    1.077   .     S
C972   C1126   1.393   .     S
C975   C977    1.407   .     A
C975   O985    1.387   .     S
C975   C1121   1.392   .     S
C976   C978    1.408   .     A
C976   O990    1.387   .     S
C976   C1272   1.393   1_545 S
C979   N995    1.426   .     S
C980   N998    1.424   .     S
C980   C82     1.417   1_556 S
C981   H983    1.082   .     S
C981   C79     1.417   1_556 S
C982   H984    1.082   .     S
O985   C986    1.411   .     S
C986   H987    1.110   .     S
C986   H988    1.115   .     S
C986   H989    1.110   .     S
O990   C991    1.411   .     S
C991   H993    1.110   .     S
C991   H992    1.115   .     S
C991   H994    1.110   .     S
N995   O996    1.300   .     A
N995   O997    1.297   .     A
N998   O1000   1.300   .     A
N998   O999    1.299   .     A
O1001  C1005   1.293   .     A
O1001  Cu1013  1.965   .     S
O1002  C1006   1.292   .     A
O1002  Cu1014  1.965   .     S
O1003  Cu1014  1.970   .     S
O1003  C1005   1.300   .     A
O1004  C1006   1.300   .     A
O1004  Cu1013  1.970   .     S
C1005  C1028   1.454   .     S
C1006  C1027   1.453   .     S
O1007  C1011   1.289   .     A
O1007  Cu1013  1.954   .     S
O1008  C1012   1.289   .     A
O1008  Cu1014  1.954   .     S
O1009  Cu1014  1.959   .     S
O1009  C1011   1.296   .     A
O1010  C1012   1.296   .     A
O1010  Cu1013  1.959   .     S
C1011  C1017   1.437   .     S
C1012  C1018   1.437   .     S
Cu1013 N1015   2.024   .     S
Cu1013 Cu1014  2.694   .     S
Cu1014 N1016   2.024   .     S
N1015  C1031   1.359   .     A
N1015  C1030   1.380   .     A
N1016  C1032   1.359   .     A
N1016  C1029   1.382   .     A
C1018  C917    1.339   1_655 S
C1018  H920    1.087   1_655 S
H1019  C917    1.087   1_655 S
C1021  C1028   1.398   .     A
C1021  H1023   1.076   .     S
C1021  C1325   1.392   1_545 S
C1022  C1027   1.397   .     A
C1022  H1024   1.077   .     S
C1022  C1176   1.393   .     S
C1025  C1027   1.407   .     A
C1025  O1035   1.387   .     S
C1025  C1171   1.392   .     S
C1026  C1028   1.408   .     A
C1026  O1040   1.387   .     S
C1026  C1322   1.393   1_545 S
C1029  N1045   1.426   .     S
C1030  N1048   1.424   .     S
C1030  C132    1.417   1_556 S
C1031  H1033   1.082   .     S
C1031  C129    1.417   1_556 S
C1032  H1034   1.082   .     S
O1035  C1036   1.411   .     S
C1036  H1037   1.110   .     S
C1036  H1038   1.115   .     S
C1036  H1039   1.110   .     S
O1040  C1041   1.411   .     S
C1041  H1043   1.110   .     S
C1041  H1042   1.115   .     S
C1041  H1044   1.110   .     S
N1045  O1046   1.300   .     A
N1045  O1047   1.297   .     A
N1048  O1050   1.300   .     A
N1048  O1049   1.299   .     A
O1051  C1055   1.293   .     A
O1051  Cu1063  1.965   .     S
O1052  C1056   1.292   .     A
O1052  Cu1064  1.965   .     S
O1053  Cu1064  1.970   .     S
O1053  C1055   1.300   .     A
O1054  C1056   1.300   .     A
O1054  Cu1063  1.970   .     S
C1055  C1078   1.454   .     S
C1056  C1077   1.453   .     S
O1057  C1061   1.289   .     A
O1057  Cu1063  1.954   .     S
O1058  C1062   1.289   .     A
O1058  Cu1064  1.954   .     S
O1059  Cu1064  1.959   .     S
O1059  C1061   1.296   .     A
O1060  C1062   1.296   .     A
O1060  Cu1063  1.959   .     S
C1061  C1067   1.437   .     S
C1062  C1068   1.437   .     S
Cu1063 N1065   2.024   .     S
Cu1063 Cu1064  2.694   .     S
Cu1064 N1066   2.024   .     S
N1065  C1081   1.359   .     A
N1065  C1080   1.380   .     A
N1066  C1082   1.359   .     A
N1066  C1079   1.382   .     A
C1067  C1168   1.339   1_455 S
C1067  H1169   1.087   1_455 S
C1068  C1117   1.339   .     S
C1068  H1120   1.087   .     S
H1069  C1117   1.087   .     S
H1070  C1168   1.087   1_455 S
C1071  C1078   1.398   .     A
C1071  H1073   1.076   .     S
C1072  C1077   1.397   .     A
C1072  H1074   1.077   .     S
C1072  C1226   1.393   .     S
C1075  C1077   1.407   .     A
C1075  O1085   1.387   .     S
C1075  C1221   1.392   .     S
C1076  C1078   1.408   .     A
C1076  O1090   1.387   .     S
C1079  N1095   1.426   .     S
C1080  N1098   1.424   .     S
C1080  C182    1.417   1_556 S
C1081  H1083   1.082   .     S
C1081  C179    1.417   1_556 S
C1082  H1084   1.082   .     S
O1085  C1086   1.411   .     S
C1086  H1087   1.110   .     S
C1086  H1088   1.115   .     S
C1086  H1089   1.110   .     S
O1090  C1091   1.411   .     S
C1091  H1093   1.110   .     S
C1091  H1092   1.115   .     S
C1091  H1094   1.110   .     S
N1095  O1096   1.300   .     A
N1095  O1097   1.297   .     A
N1098  O1100   1.300   .     A
N1098  O1099   1.299   .     A
O1101  C1105   1.293   .     A
O1101  Cu1113  1.965   .     S
O1102  C1106   1.292   .     A
O1102  Cu1114  1.965   .     S
O1103  Cu1114  1.970   .     S
O1103  C1105   1.300   .     A
O1104  C1106   1.300   .     A
O1104  Cu1113  1.970   .     S
C1105  C1128   1.454   .     S
C1106  C1127   1.453   .     S
O1107  C1111   1.289   .     A
O1107  Cu1113  1.954   .     S
O1108  C1112   1.289   .     A
O1108  Cu1114  1.954   .     S
O1109  Cu1114  1.959   .     S
O1109  C1111   1.296   .     A
O1110  C1112   1.296   .     A
O1110  Cu1113  1.959   .     S
C1111  C1117   1.437   .     S
C1112  C1118   1.437   .     S
Cu1113 N1115   2.024   .     S
Cu1113 Cu1114  2.694   .     S
Cu1114 N1116   2.024   .     S
N1115  C1131   1.359   .     A
N1115  C1130   1.380   .     A
N1116  C1132   1.359   .     A
N1116  C1129   1.382   .     A
C1118  C1167   1.339   .     S
C1118  H1170   1.087   .     S
H1119  C1167   1.087   .     S
C1121  C1128   1.398   .     A
C1121  H1123   1.076   .     S
C1122  C1127   1.397   .     A
C1122  H1124   1.077   .     S
C1122  C1276   1.393   .     S
C1125  C1127   1.407   .     A
C1125  O1135   1.387   .     S
C1125  C1271   1.392   .     S
C1126  C1128   1.408   .     A
C1126  O1140   1.387   .     S
C1129  N1145   1.426   .     S
C1130  N1148   1.424   .     S
C1130  C232    1.417   1_556 S
C1131  H1133   1.082   .     S
C1131  C229    1.417   1_556 S
C1132  H1134   1.082   .     S
O1135  C1136   1.411   .     S
C1136  H1137   1.110   .     S
C1136  H1138   1.115   .     S
C1136  H1139   1.110   .     S
O1140  C1141   1.411   .     S
C1141  H1143   1.110   .     S
C1141  H1142   1.115   .     S
C1141  H1144   1.110   .     S
N1145  O1146   1.300   .     A
N1145  O1147   1.297   .     A
N1148  O1150   1.300   .     A
N1148  O1149   1.299   .     A
O1151  C1155   1.293   .     A
O1151  Cu1163  1.965   .     S
O1152  C1156   1.292   .     A
O1152  Cu1164  1.965   .     S
O1153  Cu1164  1.970   .     S
O1153  C1155   1.300   .     A
O1154  C1156   1.300   .     A
O1154  Cu1163  1.970   .     S
C1155  C1178   1.454   .     S
C1156  C1177   1.453   .     S
O1157  C1161   1.289   .     A
O1157  Cu1163  1.954   .     S
O1158  C1162   1.289   .     A
O1158  Cu1164  1.954   .     S
O1159  Cu1164  1.959   .     S
O1159  C1161   1.296   .     A
O1160  C1162   1.296   .     A
O1160  Cu1163  1.959   .     S
C1161  C1167   1.437   .     S
C1162  C1168   1.437   .     S
Cu1163 N1165   2.024   .     S
Cu1163 Cu1164  2.694   .     S
Cu1164 N1166   2.024   .     S
N1165  C1181   1.359   .     A
N1165  C1180   1.380   .     A
N1166  C1182   1.359   .     A
N1166  C1179   1.382   .     A
C1168  C1067   1.339   1_655 S
C1168  H1070   1.087   1_655 S
H1169  C1067   1.087   1_655 S
C1171  C1178   1.398   .     A
C1171  H1173   1.076   .     S
C1172  C1177   1.397   .     A
C1172  H1174   1.077   .     S
C1172  C1326   1.393   .     S
C1175  C1177   1.407   .     A
C1175  O1185   1.387   .     S
C1175  C1321   1.392   .     S
C1176  C1178   1.408   .     A
C1176  O1190   1.387   .     S
C1179  N1195   1.426   .     S
C1180  N1198   1.424   .     S
C1180  C282    1.417   1_556 S
C1181  H1183   1.082   .     S
C1181  C279    1.417   1_556 S
C1182  H1184   1.082   .     S
O1185  C1186   1.411   .     S
C1186  H1187   1.110   .     S
C1186  H1188   1.115   .     S
C1186  H1189   1.110   .     S
O1190  C1191   1.411   .     S
C1191  H1193   1.110   .     S
C1191  H1192   1.115   .     S
C1191  H1194   1.110   .     S
N1195  O1196   1.300   .     A
N1195  O1197   1.297   .     A
N1198  O1200   1.300   .     A
N1198  O1199   1.299   .     A
O1201  C1205   1.293   .     A
O1201  Cu1213  1.965   .     S
O1202  C1206   1.292   .     A
O1202  Cu1214  1.965   .     S
O1203  Cu1214  1.970   .     S
O1203  C1205   1.300   .     A
O1204  C1206   1.300   .     A
O1204  Cu1213  1.970   .     S
C1205  C1228   1.454   .     S
C1206  C1227   1.453   .     S
O1207  C1211   1.289   .     A
O1207  Cu1213  1.954   .     S
O1208  C1212   1.289   .     A
O1208  Cu1214  1.954   .     S
O1209  Cu1214  1.959   .     S
O1209  C1211   1.296   .     A
O1210  C1212   1.296   .     A
O1210  Cu1213  1.959   .     S
C1211  C1217   1.437   .     S
C1212  C1218   1.437   .     S
Cu1213 N1215   2.024   .     S
Cu1213 Cu1214  2.694   .     S
Cu1214 N1216   2.024   .     S
N1215  C1231   1.359   .     A
N1215  C1230   1.380   .     A
N1216  C1232   1.359   .     A
N1216  C1229   1.382   .     A
C1217  C1318   1.339   1_455 S
C1217  H1319   1.087   1_455 S
C1218  C1267   1.339   .     S
C1218  H1270   1.087   .     S
H1219  C1267   1.087   .     S
H1220  C1318   1.087   1_455 S
C1221  C1228   1.398   .     A
C1221  H1223   1.076   .     S
C1222  C1227   1.397   .     A
C1222  H1224   1.077   .     S
C1222  C926    1.393   1_565 S
C1225  C1227   1.407   .     A
C1225  O1235   1.387   .     S
C1225  C921    1.392   1_565 S
C1226  C1228   1.408   .     A
C1226  O1240   1.387   .     S
C1229  N1245   1.426   .     S
C1230  N1248   1.424   .     S
C1230  C332    1.417   1_556 S
C1231  H1233   1.082   .     S
C1231  C329    1.417   1_556 S
C1232  H1234   1.082   .     S
O1235  C1236   1.411   .     S
C1236  H1237   1.110   .     S
C1236  H1238   1.115   .     S
C1236  H1239   1.110   .     S
O1240  C1241   1.411   .     S
C1241  H1243   1.110   .     S
C1241  H1242   1.115   .     S
C1241  H1244   1.110   .     S
N1245  O1246   1.300   .     A
N1245  O1247   1.297   .     A
N1248  O1250   1.300   .     A
N1248  O1249   1.299   .     A
O1251  C1255   1.293   .     A
O1251  Cu1263  1.965   .     S
O1252  C1256   1.292   .     A
O1252  Cu1264  1.965   .     S
O1253  Cu1264  1.970   .     S
O1253  C1255   1.300   .     A
O1254  C1256   1.300   .     A
O1254  Cu1263  1.970   .     S
C1255  C1278   1.454   .     S
C1256  C1277   1.453   .     S
O1257  C1261   1.289   .     A
O1257  Cu1263  1.954   .     S
O1258  C1262   1.289   .     A
O1258  Cu1264  1.954   .     S
O1259  Cu1264  1.959   .     S
O1259  C1261   1.296   .     A
O1260  C1262   1.296   .     A
O1260  Cu1263  1.959   .     S
C1261  C1267   1.437   .     S
C1262  C1268   1.437   .     S
Cu1263 N1265   2.024   .     S
Cu1263 Cu1264  2.694   .     S
Cu1264 N1266   2.024   .     S
N1265  C1281   1.359   .     A
N1265  C1280   1.380   .     A
N1266  C1282   1.359   .     A
N1266  C1279   1.382   .     A
C1268  C1317   1.339   .     S
C1268  H1320   1.087   .     S
H1269  C1317   1.087   .     S
C1271  C1278   1.398   .     A
C1271  H1273   1.076   .     S
C1272  C1277   1.397   .     A
C1272  H1274   1.077   .     S
C1272  C976    1.393   1_565 S
C1275  C1277   1.407   .     A
C1275  O1285   1.387   .     S
C1275  C971    1.392   1_565 S
C1276  C1278   1.408   .     A
C1276  O1290   1.387   .     S
C1279  N1295   1.426   .     S
C1280  N1298   1.424   .     S
C1280  C382    1.417   1_556 S
C1281  H1283   1.082   .     S
C1281  C379    1.417   1_556 S
C1282  H1284   1.082   .     S
O1285  C1286   1.411   .     S
C1286  H1287   1.110   .     S
C1286  H1288   1.115   .     S
C1286  H1289   1.110   .     S
O1290  C1291   1.411   .     S
C1291  H1293   1.110   .     S
C1291  H1292   1.115   .     S
C1291  H1294   1.110   .     S
N1295  O1296   1.300   .     A
N1295  O1297   1.297   .     A
N1298  O1300   1.300   .     A
N1298  O1299   1.299   .     A
O1301  C1305   1.293   .     A
O1301  Cu1313  1.965   .     S
O1302  C1306   1.292   .     A
O1302  Cu1314  1.965   .     S
O1303  Cu1314  1.970   .     S
O1303  C1305   1.300   .     A
O1304  C1306   1.300   .     A
O1304  Cu1313  1.970   .     S
C1305  C1328   1.454   .     S
C1306  C1327   1.453   .     S
O1307  C1311   1.289   .     A
O1307  Cu1313  1.954   .     S
O1308  C1312   1.289   .     A
O1308  Cu1314  1.954   .     S
O1309  Cu1314  1.959   .     S
O1309  C1311   1.296   .     A
O1310  C1312   1.296   .     A
O1310  Cu1313  1.959   .     S
C1311  C1317   1.437   .     S
C1312  C1318   1.437   .     S
Cu1313 N1315   2.024   .     S
Cu1313 Cu1314  2.694   .     S
Cu1314 N1316   2.024   .     S
N1315  C1331   1.359   .     A
N1315  C1330   1.380   .     A
N1316  C1332   1.359   .     A
N1316  C1329   1.382   .     A
C1318  C1217   1.339   1_655 S
C1318  H1220   1.087   1_655 S
H1319  C1217   1.087   1_655 S
C1321  C1328   1.398   .     A
C1321  H1323   1.076   .     S
C1322  C1327   1.397   .     A
C1322  H1324   1.077   .     S
C1322  C1026   1.393   1_565 S
C1325  C1327   1.407   .     A
C1325  O1335   1.387   .     S
C1325  C1021   1.392   1_565 S
C1326  C1328   1.408   .     A
C1326  O1340   1.387   .     S
C1329  N1345   1.426   .     S
C1330  N1348   1.424   .     S
C1330  C432    1.417   1_556 S
C1331  H1333   1.082   .     S
C1331  C429    1.417   1_556 S
C1332  H1334   1.082   .     S
O1335  C1336   1.411   .     S
C1336  H1337   1.110   .     S
C1336  H1338   1.115   .     S
C1336  H1339   1.110   .     S
O1340  C1341   1.411   .     S
C1341  H1343   1.110   .     S
C1341  H1342   1.115   .     S
C1341  H1344   1.110   .     S
N1345  O1346   1.300   .     A
N1345  O1347   1.297   .     A
N1348  O1350   1.300   .     A
N1348  O1349   1.299   .     A
