data_str_m2_o2_o5_pcu_sym.126
_audit_creation_date              2020-01-03
_audit_creation_method            'Materials Studio'
_symmetry_space_group_name_H-M    'P1'
_symmetry_Int_Tables_number       1
_symmetry_cell_setting            triclinic
loop_
_symmetry_equiv_pos_as_xyz
  x,y,z
_cell_length_a                    30.2327
_cell_length_b                    27.9765
_cell_length_c                    27.2463
_cell_angle_alpha                 90.0000
_cell_angle_beta                  92.4508
_cell_angle_gamma                 90.0000
loop_
_atom_site_label
_atom_site_type_symbol
_atom_site_fract_x
_atom_site_fract_y
_atom_site_fract_z
_atom_site_U_iso_or_equiv
_atom_site_adp_type
_atom_site_occupancy
C1     C     0.16503   0.24999   0.16654   0.00000  Uiso   1.00
C2     C     0.33497   0.24999   0.16679   0.00000  Uiso   1.00
C3     C     0.27117   0.10376   0.20431   0.00000  Uiso   1.00
C4     C     0.21625   0.39629   0.14287   0.00000  Uiso   1.00
C5     C     0.22883   0.10376   0.12902   0.00000  Uiso   1.00
C6     C     0.28375   0.39629   0.19046   0.00000  Uiso   1.00
C7     C     0.27004   0.05343   0.20533   0.00000  Uiso   1.00
C8     C     0.21534   0.44662   0.14412   0.00000  Uiso   1.00
C9     C     0.22996   0.05343   0.12801   0.00000  Uiso   1.00
C10    C     0.28466   0.44662   0.18922   0.00000  Uiso   1.00
C11    C     0.24989   0.25000   0.07359   0.00000  Uiso   1.00
C12    C     0.25011   0.25000   0.25974   0.00000  Uiso   1.00
C13    C     0.25000   0.02712   0.16667   0.00000  Uiso   1.00
C14    C     0.25000   0.47293   0.16667   0.00000  Uiso   1.00
C15    C     0.24996   0.24999   0.02185   0.00000  Uiso   1.00
C16    C     0.25004   0.24999   0.31148   0.00000  Uiso   1.00
C17    C     0.04663   0.28798   0.14545   0.00000  Uiso   1.00
C18    C     0.45157   0.21139   0.14570   0.00000  Uiso   1.00
C19    C     0.45337   0.28798   0.18789   0.00000  Uiso   1.00
C20    C     0.04843   0.21139   0.18763   0.00000  Uiso   1.00
C21    C     0.09265   0.28825   0.14592   0.00000  Uiso   1.00
C22    C     0.40557   0.21135   0.14623   0.00000  Uiso   1.00
C23    C     0.40735   0.28825   0.18741   0.00000  Uiso   1.00
C24    C     0.09443   0.21135   0.18711   0.00000  Uiso   1.00
C25    C     0.11674   0.24989   0.16654   0.00000  Uiso   1.00
C26    C     0.38326   0.24989   0.16680   0.00000  Uiso   1.00
C27    C     0.02425   0.24964   0.16659   0.00000  Uiso   1.00
C28    C     0.47575   0.24964   0.16675   0.00000  Uiso   1.00
Cu29   Cu    0.25000   0.29822   0.16667   0.00000  Uiso   1.00
Cu30   Cu    0.25000   0.20179   0.16667   0.00000  Uiso   1.00
H31    H     0.10938   0.31799   0.12935   0.00000  Uiso   1.00
H32    H     0.38737   0.18165   0.12974   0.00000  Uiso   1.00
H33    H     0.39062   0.31799   0.20399   0.00000  Uiso   1.00
H34    H     0.11263   0.18165   0.20359   0.00000  Uiso   1.00
H35    H     0.28561   0.03518   0.23655   0.00000  Uiso   1.00
H36    H     0.18733   0.46487   0.12657   0.00000  Uiso   1.00
H37    H     0.21439   0.03518   0.09679   0.00000  Uiso   1.00
H38    H     0.31267   0.46487   0.20676   0.00000  Uiso   1.00
N39    N     0.25000   0.12935   0.16667   0.00000  Uiso   1.00
N40    N     0.25000   0.37066   0.16667   0.00000  Uiso   1.00
O41    O     0.18573   0.29072   0.16667   0.00000  Uiso   1.00
O42    O     0.31427   0.20929   0.16666   0.00000  Uiso   1.00
O43    O     0.31427   0.29072   0.16666   0.00000  Uiso   1.00
O44    O     0.18573   0.20929   0.16667   0.00000  Uiso   1.00
O45    O     0.25000   0.29071   0.09613   0.00000  Uiso   1.00
O46    O     0.25000   0.20929   0.23720   0.00000  Uiso   1.00
O47    O     0.25000   0.29071   0.23720   0.00000  Uiso   1.00
O48    O     0.25000   0.20929   0.09613   0.00000  Uiso   1.00
O49    O     0.29414   0.12566   0.24263   0.00000  Uiso   1.00
H50    H     0.30856   0.15413   0.22949   0.00000  Uiso   1.00
O51    O     0.18186   0.37450   0.11706   0.00000  Uiso   1.00
H52    H     0.19355   0.34564   0.10170   0.00000  Uiso   1.00
O53    O     0.20586   0.12566   0.09071   0.00000  Uiso   1.00
H54    H     0.19144   0.15413   0.10385   0.00000  Uiso   1.00
O55    O     0.31814   0.37450   0.21627   0.00000  Uiso   1.00
H56    H     0.30645   0.34564   0.23164   0.00000  Uiso   1.00
F57    F     0.02392   0.32466   0.12361   0.00000  Uiso   1.00
F58    F     0.47243   0.17459   0.12386   0.00000  Uiso   1.00
F59    F     0.47608   0.32466   0.20972   0.00000  Uiso   1.00
F60    F     0.02757   0.17459   0.20948   0.00000  Uiso   1.00
C61    C     0.66503   0.24999   0.16654   0.00000  Uiso   1.00
C62    C     0.83497   0.24999   0.16679   0.00000  Uiso   1.00
C63    C     0.77117   0.10376   0.20431   0.00000  Uiso   1.00
C64    C     0.71625   0.39629   0.14287   0.00000  Uiso   1.00
C65    C     0.72883   0.10376   0.12902   0.00000  Uiso   1.00
C66    C     0.78375   0.39629   0.19046   0.00000  Uiso   1.00
C67    C     0.77004   0.05343   0.20533   0.00000  Uiso   1.00
C68    C     0.71534   0.44662   0.14412   0.00000  Uiso   1.00
C69    C     0.72996   0.05343   0.12801   0.00000  Uiso   1.00
C70    C     0.78466   0.44662   0.18922   0.00000  Uiso   1.00
C71    C     0.74989   0.25000   0.07359   0.00000  Uiso   1.00
C72    C     0.75011   0.25000   0.25974   0.00000  Uiso   1.00
C73    C     0.75000   0.02712   0.16667   0.00000  Uiso   1.00
C74    C     0.75000   0.47293   0.16667   0.00000  Uiso   1.00
C75    C     0.74996   0.24999   0.02185   0.00000  Uiso   1.00
C76    C     0.75004   0.24999   0.31148   0.00000  Uiso   1.00
C77    C     0.54663   0.28798   0.14545   0.00000  Uiso   1.00
C78    C     0.95157   0.21139   0.14570   0.00000  Uiso   1.00
C79    C     0.95337   0.28798   0.18789   0.00000  Uiso   1.00
C80    C     0.54843   0.21139   0.18763   0.00000  Uiso   1.00
C81    C     0.59265   0.28825   0.14592   0.00000  Uiso   1.00
C82    C     0.90557   0.21135   0.14623   0.00000  Uiso   1.00
C83    C     0.90735   0.28825   0.18741   0.00000  Uiso   1.00
C84    C     0.59443   0.21135   0.18711   0.00000  Uiso   1.00
C85    C     0.61674   0.24989   0.16654   0.00000  Uiso   1.00
C86    C     0.88326   0.24989   0.16680   0.00000  Uiso   1.00
C87    C     0.52425   0.24964   0.16659   0.00000  Uiso   1.00
C88    C     0.97575   0.24964   0.16675   0.00000  Uiso   1.00
Cu89   Cu    0.75000   0.29822   0.16667   0.00000  Uiso   1.00
Cu90   Cu    0.75000   0.20179   0.16667   0.00000  Uiso   1.00
H91    H     0.60938   0.31799   0.12935   0.00000  Uiso   1.00
H92    H     0.88737   0.18165   0.12974   0.00000  Uiso   1.00
H93    H     0.89062   0.31799   0.20399   0.00000  Uiso   1.00
H94    H     0.61263   0.18165   0.20359   0.00000  Uiso   1.00
H95    H     0.78561   0.03518   0.23655   0.00000  Uiso   1.00
H96    H     0.68733   0.46487   0.12657   0.00000  Uiso   1.00
H97    H     0.71439   0.03518   0.09679   0.00000  Uiso   1.00
H98    H     0.81267   0.46487   0.20676   0.00000  Uiso   1.00
N99    N     0.75000   0.12935   0.16667   0.00000  Uiso   1.00
N100   N     0.75000   0.37066   0.16667   0.00000  Uiso   1.00
O101   O     0.68573   0.29072   0.16667   0.00000  Uiso   1.00
O102   O     0.81427   0.20929   0.16666   0.00000  Uiso   1.00
O103   O     0.81427   0.29072   0.16666   0.00000  Uiso   1.00
O104   O     0.68573   0.20929   0.16667   0.00000  Uiso   1.00
O105   O     0.75000   0.29071   0.09613   0.00000  Uiso   1.00
O106   O     0.75000   0.20929   0.23720   0.00000  Uiso   1.00
O107   O     0.75000   0.29071   0.23720   0.00000  Uiso   1.00
O108   O     0.75000   0.20929   0.09613   0.00000  Uiso   1.00
O109   O     0.79414   0.12566   0.24263   0.00000  Uiso   1.00
H110   H     0.80856   0.15413   0.22949   0.00000  Uiso   1.00
O111   O     0.68186   0.37450   0.11706   0.00000  Uiso   1.00
H112   H     0.69355   0.34564   0.10170   0.00000  Uiso   1.00
O113   O     0.70586   0.12566   0.09071   0.00000  Uiso   1.00
H114   H     0.69144   0.15413   0.10385   0.00000  Uiso   1.00
O115   O     0.81814   0.37450   0.21627   0.00000  Uiso   1.00
H116   H     0.80645   0.34564   0.23164   0.00000  Uiso   1.00
F117   F     0.52392   0.32466   0.12361   0.00000  Uiso   1.00
F118   F     0.97243   0.17459   0.12386   0.00000  Uiso   1.00
F119   F     0.97608   0.32466   0.20972   0.00000  Uiso   1.00
F120   F     0.52757   0.17459   0.20948   0.00000  Uiso   1.00
C121   C     0.16503   0.74999   0.16654   0.00000  Uiso   1.00
C122   C     0.33497   0.74999   0.16679   0.00000  Uiso   1.00
C123   C     0.27117   0.60376   0.20431   0.00000  Uiso   1.00
C124   C     0.21625   0.89629   0.14287   0.00000  Uiso   1.00
C125   C     0.22883   0.60376   0.12902   0.00000  Uiso   1.00
C126   C     0.28375   0.89629   0.19046   0.00000  Uiso   1.00
C127   C     0.27004   0.55343   0.20533   0.00000  Uiso   1.00
C128   C     0.21534   0.94662   0.14412   0.00000  Uiso   1.00
C129   C     0.22996   0.55343   0.12801   0.00000  Uiso   1.00
C130   C     0.28466   0.94662   0.18922   0.00000  Uiso   1.00
C131   C     0.24989   0.75000   0.07359   0.00000  Uiso   1.00
C132   C     0.25011   0.75000   0.25974   0.00000  Uiso   1.00
C133   C     0.25000   0.52712   0.16667   0.00000  Uiso   1.00
C134   C     0.25000   0.97293   0.16667   0.00000  Uiso   1.00
C135   C     0.24996   0.74999   0.02185   0.00000  Uiso   1.00
C136   C     0.25004   0.74999   0.31148   0.00000  Uiso   1.00
C137   C     0.04663   0.78798   0.14545   0.00000  Uiso   1.00
C138   C     0.45157   0.71139   0.14570   0.00000  Uiso   1.00
C139   C     0.45337   0.78798   0.18789   0.00000  Uiso   1.00
C140   C     0.04843   0.71139   0.18763   0.00000  Uiso   1.00
C141   C     0.09265   0.78825   0.14592   0.00000  Uiso   1.00
C142   C     0.40557   0.71135   0.14623   0.00000  Uiso   1.00
C143   C     0.40735   0.78825   0.18741   0.00000  Uiso   1.00
C144   C     0.09443   0.71135   0.18711   0.00000  Uiso   1.00
C145   C     0.11674   0.74989   0.16654   0.00000  Uiso   1.00
C146   C     0.38326   0.74989   0.16680   0.00000  Uiso   1.00
C147   C     0.02425   0.74964   0.16659   0.00000  Uiso   1.00
C148   C     0.47575   0.74964   0.16675   0.00000  Uiso   1.00
Cu149  Cu    0.25000   0.79822   0.16667   0.00000  Uiso   1.00
Cu150  Cu    0.25000   0.70179   0.16667   0.00000  Uiso   1.00
H151   H     0.10938   0.81799   0.12935   0.00000  Uiso   1.00
H152   H     0.38737   0.68165   0.12974   0.00000  Uiso   1.00
H153   H     0.39062   0.81799   0.20399   0.00000  Uiso   1.00
H154   H     0.11263   0.68165   0.20359   0.00000  Uiso   1.00
H155   H     0.28561   0.53518   0.23655   0.00000  Uiso   1.00
H156   H     0.18733   0.96487   0.12657   0.00000  Uiso   1.00
H157   H     0.21439   0.53518   0.09679   0.00000  Uiso   1.00
H158   H     0.31267   0.96487   0.20676   0.00000  Uiso   1.00
N159   N     0.25000   0.62935   0.16667   0.00000  Uiso   1.00
N160   N     0.25000   0.87066   0.16667   0.00000  Uiso   1.00
O161   O     0.18573   0.79072   0.16667   0.00000  Uiso   1.00
O162   O     0.31427   0.70929   0.16666   0.00000  Uiso   1.00
O163   O     0.31427   0.79072   0.16666   0.00000  Uiso   1.00
O164   O     0.18573   0.70929   0.16667   0.00000  Uiso   1.00
O165   O     0.25000   0.79071   0.09613   0.00000  Uiso   1.00
O166   O     0.25000   0.70929   0.23720   0.00000  Uiso   1.00
O167   O     0.25000   0.79071   0.23720   0.00000  Uiso   1.00
O168   O     0.25000   0.70929   0.09613   0.00000  Uiso   1.00
O169   O     0.29414   0.62566   0.24263   0.00000  Uiso   1.00
H170   H     0.30856   0.65413   0.22949   0.00000  Uiso   1.00
O171   O     0.18186   0.87450   0.11706   0.00000  Uiso   1.00
H172   H     0.19355   0.84564   0.10170   0.00000  Uiso   1.00
O173   O     0.20586   0.62566   0.09071   0.00000  Uiso   1.00
H174   H     0.19144   0.65413   0.10385   0.00000  Uiso   1.00
O175   O     0.31814   0.87450   0.21627   0.00000  Uiso   1.00
H176   H     0.30645   0.84564   0.23164   0.00000  Uiso   1.00
F177   F     0.02392   0.82466   0.12361   0.00000  Uiso   1.00
F178   F     0.47243   0.67459   0.12386   0.00000  Uiso   1.00
F179   F     0.47608   0.82466   0.20972   0.00000  Uiso   1.00
F180   F     0.02757   0.67459   0.20948   0.00000  Uiso   1.00
C181   C     0.66503   0.74999   0.16654   0.00000  Uiso   1.00
C182   C     0.83497   0.74999   0.16679   0.00000  Uiso   1.00
C183   C     0.77117   0.60376   0.20431   0.00000  Uiso   1.00
C184   C     0.71625   0.89629   0.14287   0.00000  Uiso   1.00
C185   C     0.72883   0.60376   0.12902   0.00000  Uiso   1.00
C186   C     0.78375   0.89629   0.19046   0.00000  Uiso   1.00
C187   C     0.77004   0.55343   0.20533   0.00000  Uiso   1.00
C188   C     0.71534   0.94662   0.14412   0.00000  Uiso   1.00
C189   C     0.72996   0.55343   0.12801   0.00000  Uiso   1.00
C190   C     0.78466   0.94662   0.18922   0.00000  Uiso   1.00
C191   C     0.74989   0.75000   0.07359   0.00000  Uiso   1.00
C192   C     0.75011   0.75000   0.25974   0.00000  Uiso   1.00
C193   C     0.75000   0.52712   0.16667   0.00000  Uiso   1.00
C194   C     0.75000   0.97293   0.16667   0.00000  Uiso   1.00
C195   C     0.74996   0.74999   0.02185   0.00000  Uiso   1.00
C196   C     0.75004   0.74999   0.31148   0.00000  Uiso   1.00
C197   C     0.54663   0.78798   0.14545   0.00000  Uiso   1.00
C198   C     0.95157   0.71139   0.14570   0.00000  Uiso   1.00
C199   C     0.95337   0.78798   0.18789   0.00000  Uiso   1.00
C200   C     0.54843   0.71139   0.18763   0.00000  Uiso   1.00
C201   C     0.59265   0.78825   0.14592   0.00000  Uiso   1.00
C202   C     0.90557   0.71135   0.14623   0.00000  Uiso   1.00
C203   C     0.90735   0.78825   0.18741   0.00000  Uiso   1.00
C204   C     0.59443   0.71135   0.18711   0.00000  Uiso   1.00
C205   C     0.61674   0.74989   0.16654   0.00000  Uiso   1.00
C206   C     0.88326   0.74989   0.16680   0.00000  Uiso   1.00
C207   C     0.52425   0.74964   0.16659   0.00000  Uiso   1.00
C208   C     0.97575   0.74964   0.16675   0.00000  Uiso   1.00
Cu209  Cu    0.75000   0.79822   0.16667   0.00000  Uiso   1.00
Cu210  Cu    0.75000   0.70179   0.16667   0.00000  Uiso   1.00
H211   H     0.60938   0.81799   0.12935   0.00000  Uiso   1.00
H212   H     0.88737   0.68165   0.12974   0.00000  Uiso   1.00
H213   H     0.89062   0.81799   0.20399   0.00000  Uiso   1.00
H214   H     0.61263   0.68165   0.20359   0.00000  Uiso   1.00
H215   H     0.78561   0.53518   0.23655   0.00000  Uiso   1.00
H216   H     0.68733   0.96487   0.12657   0.00000  Uiso   1.00
H217   H     0.71439   0.53518   0.09679   0.00000  Uiso   1.00
H218   H     0.81267   0.96487   0.20676   0.00000  Uiso   1.00
N219   N     0.75000   0.62935   0.16667   0.00000  Uiso   1.00
N220   N     0.75000   0.87066   0.16667   0.00000  Uiso   1.00
O221   O     0.68573   0.79072   0.16667   0.00000  Uiso   1.00
O222   O     0.81427   0.70929   0.16666   0.00000  Uiso   1.00
O223   O     0.81427   0.79072   0.16666   0.00000  Uiso   1.00
O224   O     0.68573   0.70929   0.16667   0.00000  Uiso   1.00
O225   O     0.75000   0.79071   0.09613   0.00000  Uiso   1.00
O226   O     0.75000   0.70929   0.23720   0.00000  Uiso   1.00
O227   O     0.75000   0.79071   0.23720   0.00000  Uiso   1.00
O228   O     0.75000   0.70929   0.09613   0.00000  Uiso   1.00
O229   O     0.79414   0.62566   0.24263   0.00000  Uiso   1.00
H230   H     0.80856   0.65413   0.22949   0.00000  Uiso   1.00
O231   O     0.68186   0.87450   0.11706   0.00000  Uiso   1.00
H232   H     0.69355   0.84564   0.10170   0.00000  Uiso   1.00
O233   O     0.70586   0.62566   0.09071   0.00000  Uiso   1.00
H234   H     0.69144   0.65413   0.10385   0.00000  Uiso   1.00
O235   O     0.81814   0.87450   0.21627   0.00000  Uiso   1.00
H236   H     0.80645   0.84564   0.23164   0.00000  Uiso   1.00
F237   F     0.52392   0.82466   0.12361   0.00000  Uiso   1.00
F238   F     0.97243   0.67459   0.12386   0.00000  Uiso   1.00
F239   F     0.97608   0.82466   0.20972   0.00000  Uiso   1.00
F240   F     0.52757   0.67459   0.20948   0.00000  Uiso   1.00
C241   C     0.16503   0.24999   0.49987   0.00000  Uiso   1.00
C242   C     0.33497   0.24999   0.50013   0.00000  Uiso   1.00
C243   C     0.27117   0.10376   0.53764   0.00000  Uiso   1.00
C244   C     0.21625   0.39629   0.47620   0.00000  Uiso   1.00
C245   C     0.22883   0.10376   0.46236   0.00000  Uiso   1.00
C246   C     0.28375   0.39629   0.52380   0.00000  Uiso   1.00
C247   C     0.27004   0.05343   0.53866   0.00000  Uiso   1.00
C248   C     0.21534   0.44662   0.47745   0.00000  Uiso   1.00
C249   C     0.22996   0.05343   0.46134   0.00000  Uiso   1.00
C250   C     0.28466   0.44662   0.52255   0.00000  Uiso   1.00
C251   C     0.24989   0.25000   0.40693   0.00000  Uiso   1.00
C252   C     0.25011   0.25000   0.59307   0.00000  Uiso   1.00
C253   C     0.25000   0.02712   0.50000   0.00000  Uiso   1.00
C254   C     0.25000   0.47293   0.50000   0.00000  Uiso   1.00
C255   C     0.24996   0.24999   0.35519   0.00000  Uiso   1.00
C256   C     0.25004   0.24999   0.64481   0.00000  Uiso   1.00
C257   C     0.04663   0.28798   0.47878   0.00000  Uiso   1.00
C258   C     0.45157   0.21139   0.47904   0.00000  Uiso   1.00
C259   C     0.45337   0.28798   0.52122   0.00000  Uiso   1.00
C260   C     0.04843   0.21139   0.52096   0.00000  Uiso   1.00
C261   C     0.09265   0.28825   0.47925   0.00000  Uiso   1.00
C262   C     0.40557   0.21135   0.47956   0.00000  Uiso   1.00
C263   C     0.40735   0.28825   0.52075   0.00000  Uiso   1.00
C264   C     0.09443   0.21135   0.52044   0.00000  Uiso   1.00
C265   C     0.11674   0.24989   0.49987   0.00000  Uiso   1.00
C266   C     0.38326   0.24989   0.50013   0.00000  Uiso   1.00
C267   C     0.02425   0.24964   0.49992   0.00000  Uiso   1.00
C268   C     0.47575   0.24964   0.50008   0.00000  Uiso   1.00
Cu269  Cu    0.25000   0.29822   0.50000   0.00000  Uiso   1.00
Cu270  Cu    0.25000   0.20179   0.50000   0.00000  Uiso   1.00
H271   H     0.10938   0.31799   0.46268   0.00000  Uiso   1.00
H272   H     0.38737   0.18165   0.46308   0.00000  Uiso   1.00
H273   H     0.39062   0.31799   0.53732   0.00000  Uiso   1.00
H274   H     0.11263   0.18165   0.53693   0.00000  Uiso   1.00
H275   H     0.28561   0.03518   0.56988   0.00000  Uiso   1.00
H276   H     0.18733   0.46487   0.45991   0.00000  Uiso   1.00
H277   H     0.21439   0.03518   0.43012   0.00000  Uiso   1.00
H278   H     0.31267   0.46487   0.54009   0.00000  Uiso   1.00
N279   N     0.25000   0.12935   0.50000   0.00000  Uiso   1.00
N280   N     0.25000   0.37066   0.50000   0.00000  Uiso   1.00
O281   O     0.18573   0.29072   0.50000   0.00000  Uiso   1.00
O282   O     0.31427   0.20929   0.50000   0.00000  Uiso   1.00
O283   O     0.31427   0.29072   0.50000   0.00000  Uiso   1.00
O284   O     0.18573   0.20929   0.50000   0.00000  Uiso   1.00
O285   O     0.25000   0.29071   0.42946   0.00000  Uiso   1.00
O286   O     0.25000   0.20929   0.57054   0.00000  Uiso   1.00
O287   O     0.25000   0.29071   0.57054   0.00000  Uiso   1.00
O288   O     0.25000   0.20929   0.42946   0.00000  Uiso   1.00
O289   O     0.29414   0.12566   0.57596   0.00000  Uiso   1.00
H290   H     0.30856   0.15413   0.56282   0.00000  Uiso   1.00
O291   O     0.18186   0.37450   0.45039   0.00000  Uiso   1.00
H292   H     0.19355   0.34564   0.43503   0.00000  Uiso   1.00
O293   O     0.20586   0.12566   0.42404   0.00000  Uiso   1.00
H294   H     0.19144   0.15413   0.43718   0.00000  Uiso   1.00
O295   O     0.31814   0.37450   0.54961   0.00000  Uiso   1.00
H296   H     0.30645   0.34564   0.56497   0.00000  Uiso   1.00
F297   F     0.02392   0.32466   0.45694   0.00000  Uiso   1.00
F298   F     0.47243   0.17459   0.45719   0.00000  Uiso   1.00
F299   F     0.47608   0.32466   0.54305   0.00000  Uiso   1.00
F300   F     0.02757   0.17459   0.54281   0.00000  Uiso   1.00
C301   C     0.66503   0.24999   0.49987   0.00000  Uiso   1.00
C302   C     0.83497   0.24999   0.50013   0.00000  Uiso   1.00
C303   C     0.77117   0.10376   0.53764   0.00000  Uiso   1.00
C304   C     0.71625   0.39629   0.47620   0.00000  Uiso   1.00
C305   C     0.72883   0.10376   0.46236   0.00000  Uiso   1.00
C306   C     0.78375   0.39629   0.52380   0.00000  Uiso   1.00
C307   C     0.77004   0.05343   0.53866   0.00000  Uiso   1.00
C308   C     0.71534   0.44662   0.47745   0.00000  Uiso   1.00
C309   C     0.72996   0.05343   0.46134   0.00000  Uiso   1.00
C310   C     0.78466   0.44662   0.52255   0.00000  Uiso   1.00
C311   C     0.74989   0.25000   0.40693   0.00000  Uiso   1.00
C312   C     0.75011   0.25000   0.59307   0.00000  Uiso   1.00
C313   C     0.75000   0.02712   0.50000   0.00000  Uiso   1.00
C314   C     0.75000   0.47293   0.50000   0.00000  Uiso   1.00
C315   C     0.74996   0.24999   0.35519   0.00000  Uiso   1.00
C316   C     0.75004   0.24999   0.64481   0.00000  Uiso   1.00
C317   C     0.54663   0.28798   0.47878   0.00000  Uiso   1.00
C318   C     0.95157   0.21139   0.47904   0.00000  Uiso   1.00
C319   C     0.95337   0.28798   0.52122   0.00000  Uiso   1.00
C320   C     0.54843   0.21139   0.52096   0.00000  Uiso   1.00
C321   C     0.59265   0.28825   0.47925   0.00000  Uiso   1.00
C322   C     0.90557   0.21135   0.47956   0.00000  Uiso   1.00
C323   C     0.90735   0.28825   0.52075   0.00000  Uiso   1.00
C324   C     0.59443   0.21135   0.52044   0.00000  Uiso   1.00
C325   C     0.61674   0.24989   0.49987   0.00000  Uiso   1.00
C326   C     0.88326   0.24989   0.50013   0.00000  Uiso   1.00
C327   C     0.52425   0.24964   0.49992   0.00000  Uiso   1.00
C328   C     0.97575   0.24964   0.50008   0.00000  Uiso   1.00
Cu329  Cu    0.75000   0.29822   0.50000   0.00000  Uiso   1.00
Cu330  Cu    0.75000   0.20179   0.50000   0.00000  Uiso   1.00
H331   H     0.60938   0.31799   0.46268   0.00000  Uiso   1.00
H332   H     0.88737   0.18165   0.46308   0.00000  Uiso   1.00
H333   H     0.89062   0.31799   0.53732   0.00000  Uiso   1.00
H334   H     0.61263   0.18165   0.53693   0.00000  Uiso   1.00
H335   H     0.78561   0.03518   0.56988   0.00000  Uiso   1.00
H336   H     0.68733   0.46487   0.45991   0.00000  Uiso   1.00
H337   H     0.71439   0.03518   0.43012   0.00000  Uiso   1.00
H338   H     0.81267   0.46487   0.54009   0.00000  Uiso   1.00
N339   N     0.75000   0.12935   0.50000   0.00000  Uiso   1.00
N340   N     0.75000   0.37066   0.50000   0.00000  Uiso   1.00
O341   O     0.68573   0.29072   0.50000   0.00000  Uiso   1.00
O342   O     0.81427   0.20929   0.50000   0.00000  Uiso   1.00
O343   O     0.81427   0.29072   0.50000   0.00000  Uiso   1.00
O344   O     0.68573   0.20929   0.50000   0.00000  Uiso   1.00
O345   O     0.75000   0.29071   0.42946   0.00000  Uiso   1.00
O346   O     0.75000   0.20929   0.57054   0.00000  Uiso   1.00
O347   O     0.75000   0.29071   0.57054   0.00000  Uiso   1.00
O348   O     0.75000   0.20929   0.42946   0.00000  Uiso   1.00
O349   O     0.79414   0.12566   0.57596   0.00000  Uiso   1.00
H350   H     0.80856   0.15413   0.56282   0.00000  Uiso   1.00
O351   O     0.68186   0.37450   0.45039   0.00000  Uiso   1.00
H352   H     0.69355   0.34564   0.43503   0.00000  Uiso   1.00
O353   O     0.70586   0.12566   0.42404   0.00000  Uiso   1.00
H354   H     0.69144   0.15413   0.43718   0.00000  Uiso   1.00
O355   O     0.81814   0.37450   0.54961   0.00000  Uiso   1.00
H356   H     0.80645   0.34564   0.56497   0.00000  Uiso   1.00
F357   F     0.52392   0.32466   0.45694   0.00000  Uiso   1.00
F358   F     0.97243   0.17459   0.45719   0.00000  Uiso   1.00
F359   F     0.97608   0.32466   0.54305   0.00000  Uiso   1.00
F360   F     0.52757   0.17459   0.54281   0.00000  Uiso   1.00
C361   C     0.16503   0.74999   0.49987   0.00000  Uiso   1.00
C362   C     0.33497   0.74999   0.50013   0.00000  Uiso   1.00
C363   C     0.27117   0.60376   0.53764   0.00000  Uiso   1.00
C364   C     0.21625   0.89629   0.47620   0.00000  Uiso   1.00
C365   C     0.22883   0.60376   0.46236   0.00000  Uiso   1.00
C366   C     0.28375   0.89629   0.52380   0.00000  Uiso   1.00
C367   C     0.27004   0.55343   0.53866   0.00000  Uiso   1.00
C368   C     0.21534   0.94662   0.47745   0.00000  Uiso   1.00
C369   C     0.22996   0.55343   0.46134   0.00000  Uiso   1.00
C370   C     0.28466   0.94662   0.52255   0.00000  Uiso   1.00
C371   C     0.24989   0.75000   0.40693   0.00000  Uiso   1.00
C372   C     0.25011   0.75000   0.59307   0.00000  Uiso   1.00
C373   C     0.25000   0.52712   0.50000   0.00000  Uiso   1.00
C374   C     0.25000   0.97293   0.50000   0.00000  Uiso   1.00
C375   C     0.24996   0.74999   0.35519   0.00000  Uiso   1.00
C376   C     0.25004   0.74999   0.64481   0.00000  Uiso   1.00
C377   C     0.04663   0.78798   0.47878   0.00000  Uiso   1.00
C378   C     0.45157   0.71139   0.47904   0.00000  Uiso   1.00
C379   C     0.45337   0.78798   0.52122   0.00000  Uiso   1.00
C380   C     0.04843   0.71139   0.52096   0.00000  Uiso   1.00
C381   C     0.09265   0.78825   0.47925   0.00000  Uiso   1.00
C382   C     0.40557   0.71135   0.47956   0.00000  Uiso   1.00
C383   C     0.40735   0.78825   0.52075   0.00000  Uiso   1.00
C384   C     0.09443   0.71135   0.52044   0.00000  Uiso   1.00
C385   C     0.11674   0.74989   0.49987   0.00000  Uiso   1.00
C386   C     0.38326   0.74989   0.50013   0.00000  Uiso   1.00
C387   C     0.02425   0.74964   0.49992   0.00000  Uiso   1.00
C388   C     0.47575   0.74964   0.50008   0.00000  Uiso   1.00
Cu389  Cu    0.25000   0.79822   0.50000   0.00000  Uiso   1.00
Cu390  Cu    0.25000   0.70179   0.50000   0.00000  Uiso   1.00
H391   H     0.10938   0.81799   0.46268   0.00000  Uiso   1.00
H392   H     0.38737   0.68165   0.46308   0.00000  Uiso   1.00
H393   H     0.39062   0.81799   0.53732   0.00000  Uiso   1.00
H394   H     0.11263   0.68165   0.53693   0.00000  Uiso   1.00
H395   H     0.28561   0.53518   0.56988   0.00000  Uiso   1.00
H396   H     0.18733   0.96487   0.45991   0.00000  Uiso   1.00
H397   H     0.21439   0.53518   0.43012   0.00000  Uiso   1.00
H398   H     0.31267   0.96487   0.54009   0.00000  Uiso   1.00
N399   N     0.25000   0.62935   0.50000   0.00000  Uiso   1.00
N400   N     0.25000   0.87066   0.50000   0.00000  Uiso   1.00
O401   O     0.18573   0.79072   0.50000   0.00000  Uiso   1.00
O402   O     0.31427   0.70929   0.50000   0.00000  Uiso   1.00
O403   O     0.31427   0.79072   0.50000   0.00000  Uiso   1.00
O404   O     0.18573   0.70929   0.50000   0.00000  Uiso   1.00
O405   O     0.25000   0.79071   0.42946   0.00000  Uiso   1.00
O406   O     0.25000   0.70929   0.57054   0.00000  Uiso   1.00
O407   O     0.25000   0.79071   0.57054   0.00000  Uiso   1.00
O408   O     0.25000   0.70929   0.42946   0.00000  Uiso   1.00
O409   O     0.29414   0.62566   0.57596   0.00000  Uiso   1.00
H410   H     0.30856   0.65413   0.56282   0.00000  Uiso   1.00
O411   O     0.18186   0.87450   0.45039   0.00000  Uiso   1.00
H412   H     0.19355   0.84564   0.43503   0.00000  Uiso   1.00
O413   O     0.20586   0.62566   0.42404   0.00000  Uiso   1.00
H414   H     0.19144   0.65413   0.43718   0.00000  Uiso   1.00
O415   O     0.31814   0.87450   0.54961   0.00000  Uiso   1.00
H416   H     0.30645   0.84564   0.56497   0.00000  Uiso   1.00
F417   F     0.02392   0.82466   0.45694   0.00000  Uiso   1.00
F418   F     0.47243   0.67459   0.45719   0.00000  Uiso   1.00
F419   F     0.47608   0.82466   0.54305   0.00000  Uiso   1.00
F420   F     0.02757   0.67459   0.54281   0.00000  Uiso   1.00
C421   C     0.66503   0.74999   0.49987   0.00000  Uiso   1.00
C422   C     0.83497   0.74999   0.50013   0.00000  Uiso   1.00
C423   C     0.77117   0.60376   0.53764   0.00000  Uiso   1.00
C424   C     0.71625   0.89629   0.47620   0.00000  Uiso   1.00
C425   C     0.72883   0.60376   0.46236   0.00000  Uiso   1.00
C426   C     0.78375   0.89629   0.52380   0.00000  Uiso   1.00
C427   C     0.77004   0.55343   0.53866   0.00000  Uiso   1.00
C428   C     0.71534   0.94662   0.47745   0.00000  Uiso   1.00
C429   C     0.72996   0.55343   0.46134   0.00000  Uiso   1.00
C430   C     0.78466   0.94662   0.52255   0.00000  Uiso   1.00
C431   C     0.74989   0.75000   0.40693   0.00000  Uiso   1.00
C432   C     0.75011   0.75000   0.59307   0.00000  Uiso   1.00
C433   C     0.75000   0.52712   0.50000   0.00000  Uiso   1.00
C434   C     0.75000   0.97293   0.50000   0.00000  Uiso   1.00
C435   C     0.74996   0.74999   0.35519   0.00000  Uiso   1.00
C436   C     0.75004   0.74999   0.64481   0.00000  Uiso   1.00
C437   C     0.54663   0.78798   0.47878   0.00000  Uiso   1.00
C438   C     0.95157   0.71139   0.47904   0.00000  Uiso   1.00
C439   C     0.95337   0.78798   0.52122   0.00000  Uiso   1.00
C440   C     0.54843   0.71139   0.52096   0.00000  Uiso   1.00
C441   C     0.59265   0.78825   0.47925   0.00000  Uiso   1.00
C442   C     0.90557   0.71135   0.47956   0.00000  Uiso   1.00
C443   C     0.90735   0.78825   0.52075   0.00000  Uiso   1.00
C444   C     0.59443   0.71135   0.52044   0.00000  Uiso   1.00
C445   C     0.61674   0.74989   0.49987   0.00000  Uiso   1.00
C446   C     0.88326   0.74989   0.50013   0.00000  Uiso   1.00
C447   C     0.52425   0.74964   0.49992   0.00000  Uiso   1.00
C448   C     0.97575   0.74964   0.50008   0.00000  Uiso   1.00
Cu449  Cu    0.75000   0.79822   0.50000   0.00000  Uiso   1.00
Cu450  Cu    0.75000   0.70179   0.50000   0.00000  Uiso   1.00
H451   H     0.60938   0.81799   0.46268   0.00000  Uiso   1.00
H452   H     0.88737   0.68165   0.46308   0.00000  Uiso   1.00
H453   H     0.89062   0.81799   0.53732   0.00000  Uiso   1.00
H454   H     0.61263   0.68165   0.53693   0.00000  Uiso   1.00
H455   H     0.78561   0.53518   0.56988   0.00000  Uiso   1.00
H456   H     0.68733   0.96487   0.45991   0.00000  Uiso   1.00
H457   H     0.71439   0.53518   0.43012   0.00000  Uiso   1.00
H458   H     0.81267   0.96487   0.54009   0.00000  Uiso   1.00
N459   N     0.75000   0.62935   0.50000   0.00000  Uiso   1.00
N460   N     0.75000   0.87066   0.50000   0.00000  Uiso   1.00
O461   O     0.68573   0.79072   0.50000   0.00000  Uiso   1.00
O462   O     0.81427   0.70929   0.50000   0.00000  Uiso   1.00
O463   O     0.81427   0.79072   0.50000   0.00000  Uiso   1.00
O464   O     0.68573   0.70929   0.50000   0.00000  Uiso   1.00
O465   O     0.75000   0.79071   0.42946   0.00000  Uiso   1.00
O466   O     0.75000   0.70929   0.57054   0.00000  Uiso   1.00
O467   O     0.75000   0.79071   0.57054   0.00000  Uiso   1.00
O468   O     0.75000   0.70929   0.42946   0.00000  Uiso   1.00
O469   O     0.79414   0.62566   0.57596   0.00000  Uiso   1.00
H470   H     0.80856   0.65413   0.56282   0.00000  Uiso   1.00
O471   O     0.68186   0.87450   0.45039   0.00000  Uiso   1.00
H472   H     0.69355   0.84564   0.43503   0.00000  Uiso   1.00
O473   O     0.70586   0.62566   0.42404   0.00000  Uiso   1.00
H474   H     0.69144   0.65413   0.43718   0.00000  Uiso   1.00
O475   O     0.81814   0.87450   0.54961   0.00000  Uiso   1.00
H476   H     0.80645   0.84564   0.56497   0.00000  Uiso   1.00
F477   F     0.52392   0.82466   0.45694   0.00000  Uiso   1.00
F478   F     0.97243   0.67459   0.45719   0.00000  Uiso   1.00
F479   F     0.97608   0.82466   0.54305   0.00000  Uiso   1.00
F480   F     0.52757   0.67459   0.54281   0.00000  Uiso   1.00
C481   C     0.16503   0.24999   0.83321   0.00000  Uiso   1.00
C482   C     0.33497   0.24999   0.83346   0.00000  Uiso   1.00
C483   C     0.27117   0.10376   0.87098   0.00000  Uiso   1.00
C484   C     0.21625   0.39629   0.80954   0.00000  Uiso   1.00
C485   C     0.22883   0.10376   0.79569   0.00000  Uiso   1.00
C486   C     0.28375   0.39629   0.85713   0.00000  Uiso   1.00
C487   C     0.27004   0.05343   0.87199   0.00000  Uiso   1.00
C488   C     0.21534   0.44662   0.81078   0.00000  Uiso   1.00
C489   C     0.22996   0.05343   0.79467   0.00000  Uiso   1.00
C490   C     0.28466   0.44662   0.85588   0.00000  Uiso   1.00
C491   C     0.24989   0.25000   0.74026   0.00000  Uiso   1.00
C492   C     0.25011   0.25000   0.92641   0.00000  Uiso   1.00
C493   C     0.25000   0.02712   0.83333   0.00000  Uiso   1.00
C494   C     0.25000   0.47293   0.83333   0.00000  Uiso   1.00
C495   C     0.24996   0.24999   0.68852   0.00000  Uiso   1.00
C496   C     0.25004   0.24999   0.97815   0.00000  Uiso   1.00
C497   C     0.04663   0.28798   0.81211   0.00000  Uiso   1.00
C498   C     0.45157   0.21139   0.81237   0.00000  Uiso   1.00
C499   C     0.45337   0.28798   0.85455   0.00000  Uiso   1.00
C500   C     0.04843   0.21139   0.85430   0.00000  Uiso   1.00
C501   C     0.09265   0.28825   0.81258   0.00000  Uiso   1.00
C502   C     0.40557   0.21135   0.81289   0.00000  Uiso   1.00
C503   C     0.40735   0.28825   0.85408   0.00000  Uiso   1.00
C504   C     0.09443   0.21135   0.85377   0.00000  Uiso   1.00
C505   C     0.11674   0.24989   0.83320   0.00000  Uiso   1.00
C506   C     0.38326   0.24989   0.83346   0.00000  Uiso   1.00
C507   C     0.02425   0.24964   0.83325   0.00000  Uiso   1.00
C508   C     0.47575   0.24964   0.83341   0.00000  Uiso   1.00
Cu509  Cu    0.25000   0.29822   0.83333   0.00000  Uiso   1.00
Cu510  Cu    0.25000   0.20179   0.83333   0.00000  Uiso   1.00
H511   H     0.10938   0.31799   0.79601   0.00000  Uiso   1.00
H512   H     0.38737   0.18165   0.79641   0.00000  Uiso   1.00
H513   H     0.39062   0.31799   0.87065   0.00000  Uiso   1.00
H514   H     0.11263   0.18165   0.87026   0.00000  Uiso   1.00
H515   H     0.28561   0.03518   0.90321   0.00000  Uiso   1.00
H516   H     0.18733   0.46487   0.79324   0.00000  Uiso   1.00
H517   H     0.21439   0.03518   0.76345   0.00000  Uiso   1.00
H518   H     0.31267   0.46487   0.87343   0.00000  Uiso   1.00
N519   N     0.25000   0.12935   0.83333   0.00000  Uiso   1.00
N520   N     0.25000   0.37066   0.83333   0.00000  Uiso   1.00
O521   O     0.18573   0.29072   0.83334   0.00000  Uiso   1.00
O522   O     0.31427   0.20929   0.83333   0.00000  Uiso   1.00
O523   O     0.31427   0.29072   0.83333   0.00000  Uiso   1.00
O524   O     0.18573   0.20929   0.83334   0.00000  Uiso   1.00
O525   O     0.25000   0.29071   0.76280   0.00000  Uiso   1.00
O526   O     0.25000   0.20929   0.90387   0.00000  Uiso   1.00
O527   O     0.25000   0.29071   0.90387   0.00000  Uiso   1.00
O528   O     0.25000   0.20929   0.76280   0.00000  Uiso   1.00
O529   O     0.29414   0.12566   0.90929   0.00000  Uiso   1.00
H530   H     0.30856   0.15413   0.89615   0.00000  Uiso   1.00
O531   O     0.18186   0.37450   0.78373   0.00000  Uiso   1.00
H532   H     0.19355   0.34564   0.76836   0.00000  Uiso   1.00
O533   O     0.20586   0.12566   0.75737   0.00000  Uiso   1.00
H534   H     0.19144   0.15413   0.77051   0.00000  Uiso   1.00
O535   O     0.31814   0.37450   0.88294   0.00000  Uiso   1.00
H536   H     0.30645   0.34564   0.89830   0.00000  Uiso   1.00
F537   F     0.02392   0.32466   0.79028   0.00000  Uiso   1.00
F538   F     0.47243   0.17459   0.79052   0.00000  Uiso   1.00
F539   F     0.47608   0.32466   0.87639   0.00000  Uiso   1.00
F540   F     0.02757   0.17459   0.87614   0.00000  Uiso   1.00
C541   C     0.66503   0.24999   0.83321   0.00000  Uiso   1.00
C542   C     0.83497   0.24999   0.83346   0.00000  Uiso   1.00
C543   C     0.77117   0.10376   0.87098   0.00000  Uiso   1.00
C544   C     0.71625   0.39629   0.80954   0.00000  Uiso   1.00
C545   C     0.72883   0.10376   0.79569   0.00000  Uiso   1.00
C546   C     0.78375   0.39629   0.85713   0.00000  Uiso   1.00
C547   C     0.77004   0.05343   0.87199   0.00000  Uiso   1.00
C548   C     0.71534   0.44662   0.81078   0.00000  Uiso   1.00
C549   C     0.72996   0.05343   0.79467   0.00000  Uiso   1.00
C550   C     0.78466   0.44662   0.85588   0.00000  Uiso   1.00
C551   C     0.74989   0.25000   0.74026   0.00000  Uiso   1.00
C552   C     0.75011   0.25000   0.92641   0.00000  Uiso   1.00
C553   C     0.75000   0.02712   0.83333   0.00000  Uiso   1.00
C554   C     0.75000   0.47293   0.83333   0.00000  Uiso   1.00
C555   C     0.74996   0.24999   0.68852   0.00000  Uiso   1.00
C556   C     0.75004   0.24999   0.97815   0.00000  Uiso   1.00
C557   C     0.54663   0.28798   0.81211   0.00000  Uiso   1.00
C558   C     0.95157   0.21139   0.81237   0.00000  Uiso   1.00
C559   C     0.95337   0.28798   0.85455   0.00000  Uiso   1.00
C560   C     0.54843   0.21139   0.85430   0.00000  Uiso   1.00
C561   C     0.59265   0.28825   0.81258   0.00000  Uiso   1.00
C562   C     0.90557   0.21135   0.81289   0.00000  Uiso   1.00
C563   C     0.90735   0.28825   0.85408   0.00000  Uiso   1.00
C564   C     0.59443   0.21135   0.85377   0.00000  Uiso   1.00
C565   C     0.61674   0.24989   0.83320   0.00000  Uiso   1.00
C566   C     0.88326   0.24989   0.83346   0.00000  Uiso   1.00
C567   C     0.52425   0.24964   0.83325   0.00000  Uiso   1.00
C568   C     0.97575   0.24964   0.83341   0.00000  Uiso   1.00
Cu569  Cu    0.75000   0.29822   0.83333   0.00000  Uiso   1.00
Cu570  Cu    0.75000   0.20179   0.83333   0.00000  Uiso   1.00
H571   H     0.60938   0.31799   0.79601   0.00000  Uiso   1.00
H572   H     0.88737   0.18165   0.79641   0.00000  Uiso   1.00
H573   H     0.89062   0.31799   0.87065   0.00000  Uiso   1.00
H574   H     0.61263   0.18165   0.87026   0.00000  Uiso   1.00
H575   H     0.78561   0.03518   0.90321   0.00000  Uiso   1.00
H576   H     0.68733   0.46487   0.79324   0.00000  Uiso   1.00
H577   H     0.71439   0.03518   0.76345   0.00000  Uiso   1.00
H578   H     0.81267   0.46487   0.87343   0.00000  Uiso   1.00
N579   N     0.75000   0.12935   0.83333   0.00000  Uiso   1.00
N580   N     0.75000   0.37066   0.83333   0.00000  Uiso   1.00
O581   O     0.68573   0.29072   0.83334   0.00000  Uiso   1.00
O582   O     0.81427   0.20929   0.83333   0.00000  Uiso   1.00
O583   O     0.81427   0.29072   0.83333   0.00000  Uiso   1.00
O584   O     0.68573   0.20929   0.83334   0.00000  Uiso   1.00
O585   O     0.75000   0.29071   0.76280   0.00000  Uiso   1.00
O586   O     0.75000   0.20929   0.90387   0.00000  Uiso   1.00
O587   O     0.75000   0.29071   0.90387   0.00000  Uiso   1.00
O588   O     0.75000   0.20929   0.76280   0.00000  Uiso   1.00
O589   O     0.79414   0.12566   0.90929   0.00000  Uiso   1.00
H590   H     0.80856   0.15413   0.89615   0.00000  Uiso   1.00
O591   O     0.68186   0.37450   0.78373   0.00000  Uiso   1.00
H592   H     0.69355   0.34564   0.76836   0.00000  Uiso   1.00
O593   O     0.70586   0.12566   0.75737   0.00000  Uiso   1.00
H594   H     0.69144   0.15413   0.77051   0.00000  Uiso   1.00
O595   O     0.81814   0.37450   0.88294   0.00000  Uiso   1.00
H596   H     0.80645   0.34564   0.89830   0.00000  Uiso   1.00
F597   F     0.52392   0.32466   0.79028   0.00000  Uiso   1.00
F598   F     0.97243   0.17459   0.79052   0.00000  Uiso   1.00
F599   F     0.97608   0.32466   0.87639   0.00000  Uiso   1.00
F600   F     0.52757   0.17459   0.87614   0.00000  Uiso   1.00
C601   C     0.16503   0.74999   0.83321   0.00000  Uiso   1.00
C602   C     0.33497   0.74999   0.83346   0.00000  Uiso   1.00
C603   C     0.27117   0.60376   0.87098   0.00000  Uiso   1.00
C604   C     0.21625   0.89629   0.80954   0.00000  Uiso   1.00
C605   C     0.22883   0.60376   0.79569   0.00000  Uiso   1.00
C606   C     0.28375   0.89629   0.85713   0.00000  Uiso   1.00
C607   C     0.27004   0.55343   0.87199   0.00000  Uiso   1.00
C608   C     0.21534   0.94662   0.81078   0.00000  Uiso   1.00
C609   C     0.22996   0.55343   0.79467   0.00000  Uiso   1.00
C610   C     0.28466   0.94662   0.85588   0.00000  Uiso   1.00
C611   C     0.24989   0.75000   0.74026   0.00000  Uiso   1.00
C612   C     0.25011   0.75000   0.92641   0.00000  Uiso   1.00
C613   C     0.25000   0.52712   0.83333   0.00000  Uiso   1.00
C614   C     0.25000   0.97293   0.83333   0.00000  Uiso   1.00
C615   C     0.24996   0.74999   0.68852   0.00000  Uiso   1.00
C616   C     0.25004   0.74999   0.97815   0.00000  Uiso   1.00
C617   C     0.04663   0.78798   0.81211   0.00000  Uiso   1.00
C618   C     0.45157   0.71139   0.81237   0.00000  Uiso   1.00
C619   C     0.45337   0.78798   0.85455   0.00000  Uiso   1.00
C620   C     0.04843   0.71139   0.85430   0.00000  Uiso   1.00
C621   C     0.09265   0.78825   0.81258   0.00000  Uiso   1.00
C622   C     0.40557   0.71135   0.81289   0.00000  Uiso   1.00
C623   C     0.40735   0.78825   0.85408   0.00000  Uiso   1.00
C624   C     0.09443   0.71135   0.85377   0.00000  Uiso   1.00
C625   C     0.11674   0.74989   0.83320   0.00000  Uiso   1.00
C626   C     0.38326   0.74989   0.83346   0.00000  Uiso   1.00
C627   C     0.02425   0.74964   0.83325   0.00000  Uiso   1.00
C628   C     0.47575   0.74964   0.83341   0.00000  Uiso   1.00
Cu629  Cu    0.25000   0.79822   0.83333   0.00000  Uiso   1.00
Cu630  Cu    0.25000   0.70179   0.83333   0.00000  Uiso   1.00
H631   H     0.10938   0.81799   0.79601   0.00000  Uiso   1.00
H632   H     0.38737   0.68165   0.79641   0.00000  Uiso   1.00
H633   H     0.39062   0.81799   0.87065   0.00000  Uiso   1.00
H634   H     0.11263   0.68165   0.87026   0.00000  Uiso   1.00
H635   H     0.28561   0.53518   0.90321   0.00000  Uiso   1.00
H636   H     0.18733   0.96487   0.79324   0.00000  Uiso   1.00
H637   H     0.21439   0.53518   0.76345   0.00000  Uiso   1.00
H638   H     0.31267   0.96487   0.87343   0.00000  Uiso   1.00
N639   N     0.25000   0.62935   0.83333   0.00000  Uiso   1.00
N640   N     0.25000   0.87066   0.83333   0.00000  Uiso   1.00
O641   O     0.18573   0.79072   0.83334   0.00000  Uiso   1.00
O642   O     0.31427   0.70929   0.83333   0.00000  Uiso   1.00
O643   O     0.31427   0.79072   0.83333   0.00000  Uiso   1.00
O644   O     0.18573   0.70929   0.83334   0.00000  Uiso   1.00
O645   O     0.25000   0.79071   0.76280   0.00000  Uiso   1.00
O646   O     0.25000   0.70929   0.90387   0.00000  Uiso   1.00
O647   O     0.25000   0.79071   0.90387   0.00000  Uiso   1.00
O648   O     0.25000   0.70929   0.76280   0.00000  Uiso   1.00
O649   O     0.29414   0.62566   0.90929   0.00000  Uiso   1.00
H650   H     0.30856   0.65413   0.89615   0.00000  Uiso   1.00
O651   O     0.18186   0.87450   0.78373   0.00000  Uiso   1.00
H652   H     0.19355   0.84564   0.76836   0.00000  Uiso   1.00
O653   O     0.20586   0.62566   0.75737   0.00000  Uiso   1.00
H654   H     0.19144   0.65413   0.77051   0.00000  Uiso   1.00
O655   O     0.31814   0.87450   0.88294   0.00000  Uiso   1.00
H656   H     0.30645   0.84564   0.89830   0.00000  Uiso   1.00
F657   F     0.02392   0.82466   0.79028   0.00000  Uiso   1.00
F658   F     0.47243   0.67459   0.79052   0.00000  Uiso   1.00
F659   F     0.47608   0.82466   0.87639   0.00000  Uiso   1.00
F660   F     0.02757   0.67459   0.87614   0.00000  Uiso   1.00
C661   C     0.66503   0.74999   0.83321   0.00000  Uiso   1.00
C662   C     0.83497   0.74999   0.83346   0.00000  Uiso   1.00
C663   C     0.77117   0.60376   0.87098   0.00000  Uiso   1.00
C664   C     0.71625   0.89629   0.80954   0.00000  Uiso   1.00
C665   C     0.72883   0.60376   0.79569   0.00000  Uiso   1.00
C666   C     0.78375   0.89629   0.85713   0.00000  Uiso   1.00
C667   C     0.77004   0.55343   0.87199   0.00000  Uiso   1.00
C668   C     0.71534   0.94662   0.81078   0.00000  Uiso   1.00
C669   C     0.72996   0.55343   0.79467   0.00000  Uiso   1.00
C670   C     0.78466   0.94662   0.85588   0.00000  Uiso   1.00
C671   C     0.74989   0.75000   0.74026   0.00000  Uiso   1.00
C672   C     0.75011   0.75000   0.92641   0.00000  Uiso   1.00
C673   C     0.75000   0.52712   0.83333   0.00000  Uiso   1.00
C674   C     0.75000   0.97293   0.83333   0.00000  Uiso   1.00
C675   C     0.74996   0.74999   0.68852   0.00000  Uiso   1.00
C676   C     0.75004   0.74999   0.97815   0.00000  Uiso   1.00
C677   C     0.54663   0.78798   0.81211   0.00000  Uiso   1.00
C678   C     0.95157   0.71139   0.81237   0.00000  Uiso   1.00
C679   C     0.95337   0.78798   0.85455   0.00000  Uiso   1.00
C680   C     0.54843   0.71139   0.85430   0.00000  Uiso   1.00
C681   C     0.59265   0.78825   0.81258   0.00000  Uiso   1.00
C682   C     0.90557   0.71135   0.81289   0.00000  Uiso   1.00
C683   C     0.90735   0.78825   0.85408   0.00000  Uiso   1.00
C684   C     0.59443   0.71135   0.85377   0.00000  Uiso   1.00
C685   C     0.61674   0.74989   0.83320   0.00000  Uiso   1.00
C686   C     0.88326   0.74989   0.83346   0.00000  Uiso   1.00
C687   C     0.52425   0.74964   0.83325   0.00000  Uiso   1.00
C688   C     0.97575   0.74964   0.83341   0.00000  Uiso   1.00
Cu689  Cu    0.75000   0.79822   0.83333   0.00000  Uiso   1.00
Cu690  Cu    0.75000   0.70179   0.83333   0.00000  Uiso   1.00
H691   H     0.60938   0.81799   0.79601   0.00000  Uiso   1.00
H692   H     0.88737   0.68165   0.79641   0.00000  Uiso   1.00
H693   H     0.89062   0.81799   0.87065   0.00000  Uiso   1.00
H694   H     0.61263   0.68165   0.87026   0.00000  Uiso   1.00
H695   H     0.78561   0.53518   0.90321   0.00000  Uiso   1.00
H696   H     0.68733   0.96487   0.79324   0.00000  Uiso   1.00
H697   H     0.71439   0.53518   0.76345   0.00000  Uiso   1.00
H698   H     0.81267   0.96487   0.87343   0.00000  Uiso   1.00
N699   N     0.75000   0.62935   0.83333   0.00000  Uiso   1.00
N700   N     0.75000   0.87066   0.83333   0.00000  Uiso   1.00
O701   O     0.68573   0.79072   0.83334   0.00000  Uiso   1.00
O702   O     0.81427   0.70929   0.83333   0.00000  Uiso   1.00
O703   O     0.81427   0.79072   0.83333   0.00000  Uiso   1.00
O704   O     0.68573   0.70929   0.83334   0.00000  Uiso   1.00
O705   O     0.75000   0.79071   0.76280   0.00000  Uiso   1.00
O706   O     0.75000   0.70929   0.90387   0.00000  Uiso   1.00
O707   O     0.75000   0.79071   0.90387   0.00000  Uiso   1.00
O708   O     0.75000   0.70929   0.76280   0.00000  Uiso   1.00
O709   O     0.79414   0.62566   0.90929   0.00000  Uiso   1.00
H710   H     0.80856   0.65413   0.89615   0.00000  Uiso   1.00
O711   O     0.68186   0.87450   0.78373   0.00000  Uiso   1.00
H712   H     0.69355   0.84564   0.76836   0.00000  Uiso   1.00
O713   O     0.70586   0.62566   0.75737   0.00000  Uiso   1.00
H714   H     0.69144   0.65413   0.77051   0.00000  Uiso   1.00
O715   O     0.81814   0.87450   0.88294   0.00000  Uiso   1.00
H716   H     0.80645   0.84564   0.89830   0.00000  Uiso   1.00
F717   F     0.52392   0.82466   0.79028   0.00000  Uiso   1.00
F718   F     0.97243   0.67459   0.79052   0.00000  Uiso   1.00
F719   F     0.97608   0.82466   0.87639   0.00000  Uiso   1.00
F720   F     0.52757   0.67459   0.87614   0.00000  Uiso   1.00
loop_
_geom_bond_atom_site_label_1
_geom_bond_atom_site_label_2
_geom_bond_distance
_geom_bond_site_symmetry_2
_ccdc_geom_bond_type
C1     O44     1.299   .     A
C1     C25     1.460   .     S
C1     O41     1.300   .     A
C2     O43     1.300   .     A
C2     C26     1.460   .     S
C2     O42     1.299   .     A
C3     O49     1.373   .     S
C3     N39     1.385   .     A
C3     C7      1.409   .     A
C4     C8      1.409   .     A
C4     O51     1.373   .     S
C4     N40     1.385   .     A
C5     C9      1.409   .     A
C5     N39     1.385   .     A
C5     O53     1.373   .     S
C6     C10     1.409   .     A
C6     O55     1.373   .     S
C6     N40     1.385   .     A
C7     C13     1.401   .     A
C7     H35     1.082   .     S
C8     H36     1.082   .     S
C8     C14     1.401   .     A
C9     H37     1.082   .     S
C9     C13     1.401   .     A
C10    H38     1.082   .     S
C10    C14     1.401   .     A
C11    C15     1.410   .     S
C11    O48     1.294   .     A
C11    O45     1.294   .     A
C12    O47     1.294   .     A
C12    C16     1.410   .     S
C12    O46     1.294   .     A
C13    C134    1.516   1_545 S
C14    C133    1.516   .     S
C15    C496    1.191   1_554 S
C16    C255    1.191   .     S
C17    F57     1.358   .     S
C17    C27     1.405   .     A
C17    C21     1.391   .     A
C18    C28     1.405   .     A
C18    C22     1.391   .     A
C18    F58     1.358   .     S
C19    C23     1.391   .     A
C19    F59     1.358   .     S
C19    C28     1.405   .     A
C20    C27     1.405   .     A
C20    F60     1.358   .     S
C20    C24     1.391   .     A
C21    H31     1.082   .     S
C21    C25     1.401   .     A
C22    H32     1.083   .     S
C22    C26     1.401   .     A
C23    C26     1.401   .     A
C23    H33     1.082   .     S
C24    C25     1.401   .     A
C24    H34     1.083   .     S
C27    C88     1.467   1_455 S
C28    C87     1.467   .     S
Cu29   Cu30    2.698   .     S
Cu29   O43     1.954   .     S
Cu29   O47     1.933   .     S
Cu29   N40     2.027   .     S
Cu29   O41     1.954   .     S
Cu29   O45     1.933   .     S
Cu30   O44     1.954   .     S
Cu30   O48     1.933   .     S
Cu30   N39     2.027   .     S
Cu30   O46     1.933   .     S
Cu30   O42     1.954   .     S
O49    H50     0.983   .     S
O51    H52     0.982   .     S
O53    H54     0.983   .     S
O55    H56     0.982   .     S
C61    O104    1.299   .     A
C61    C85     1.460   .     S
C61    O101    1.300   .     A
C62    O103    1.300   .     A
C62    C86     1.460   .     S
C62    O102    1.299   .     A
C63    O109    1.373   .     S
C63    N99     1.385   .     A
C63    C67     1.409   .     A
C64    C68     1.409   .     A
C64    O111    1.373   .     S
C64    N100    1.385   .     A
C65    C69     1.409   .     A
C65    N99     1.385   .     A
C65    O113    1.373   .     S
C66    C70     1.409   .     A
C66    O115    1.373   .     S
C66    N100    1.385   .     A
C67    C73     1.401   .     A
C67    H95     1.082   .     S
C68    H96     1.082   .     S
C68    C74     1.401   .     A
C69    H97     1.082   .     S
C69    C73     1.401   .     A
C70    H98     1.082   .     S
C70    C74     1.401   .     A
C71    C75     1.410   .     S
C71    O108    1.294   .     A
C71    O105    1.294   .     A
C72    O107    1.294   .     A
C72    C76     1.410   .     S
C72    O106    1.294   .     A
C73    C194    1.516   1_545 S
C74    C193    1.516   .     S
C75    C556    1.191   1_554 S
C76    C315    1.191   .     S
C77    F117    1.358   .     S
C77    C87     1.405   .     A
C77    C81     1.391   .     A
C78    C88     1.405   .     A
C78    C82     1.391   .     A
C78    F118    1.358   .     S
C79    C83     1.391   .     A
C79    F119    1.358   .     S
C79    C88     1.405   .     A
C80    C87     1.405   .     A
C80    F120    1.358   .     S
C80    C84     1.391   .     A
C81    H91     1.082   .     S
C81    C85     1.401   .     A
C82    H92     1.083   .     S
C82    C86     1.401   .     A
C83    C86     1.401   .     A
C83    H93     1.082   .     S
C84    C85     1.401   .     A
C84    H94     1.083   .     S
C88    C27     1.467   1_655 S
Cu89   Cu90    2.698   .     S
Cu89   O103    1.954   .     S
Cu89   O107    1.933   .     S
Cu89   N100    2.027   .     S
Cu89   O101    1.954   .     S
Cu89   O105    1.933   .     S
Cu90   O104    1.954   .     S
Cu90   O108    1.933   .     S
Cu90   N99     2.027   .     S
Cu90   O106    1.933   .     S
Cu90   O102    1.954   .     S
O109   H110    0.983   .     S
O111   H112    0.982   .     S
O113   H114    0.983   .     S
O115   H116    0.982   .     S
C121   O164    1.299   .     A
C121   C145    1.460   .     S
C121   O161    1.300   .     A
C122   O163    1.300   .     A
C122   C146    1.460   .     S
C122   O162    1.299   .     A
C123   O169    1.373   .     S
C123   N159    1.385   .     A
C123   C127    1.409   .     A
C124   C128    1.409   .     A
C124   O171    1.373   .     S
C124   N160    1.385   .     A
C125   C129    1.409   .     A
C125   N159    1.385   .     A
C125   O173    1.373   .     S
C126   C130    1.409   .     A
C126   O175    1.373   .     S
C126   N160    1.385   .     A
C127   C133    1.401   .     A
C127   H155    1.082   .     S
C128   H156    1.082   .     S
C128   C134    1.401   .     A
C129   H157    1.082   .     S
C129   C133    1.401   .     A
C130   H158    1.082   .     S
C130   C134    1.401   .     A
C131   C135    1.410   .     S
C131   O168    1.294   .     A
C131   O165    1.294   .     A
C132   O167    1.294   .     A
C132   C136    1.410   .     S
C132   O166    1.294   .     A
C134   C13     1.516   1_565 S
C135   C616    1.191   1_554 S
C136   C375    1.191   .     S
C137   F177    1.358   .     S
C137   C147    1.405   .     A
C137   C141    1.391   .     A
C138   C148    1.405   .     A
C138   C142    1.391   .     A
C138   F178    1.358   .     S
C139   C143    1.391   .     A
C139   F179    1.358   .     S
C139   C148    1.405   .     A
C140   C147    1.405   .     A
C140   F180    1.358   .     S
C140   C144    1.391   .     A
C141   H151    1.082   .     S
C141   C145    1.401   .     A
C142   H152    1.083   .     S
C142   C146    1.401   .     A
C143   C146    1.401   .     A
C143   H153    1.082   .     S
C144   C145    1.401   .     A
C144   H154    1.083   .     S
C147   C208    1.467   1_455 S
C148   C207    1.467   .     S
Cu149  Cu150   2.698   .     S
Cu149  O163    1.954   .     S
Cu149  O167    1.933   .     S
Cu149  N160    2.027   .     S
Cu149  O161    1.954   .     S
Cu149  O165    1.933   .     S
Cu150  O164    1.954   .     S
Cu150  O168    1.933   .     S
Cu150  N159    2.027   .     S
Cu150  O166    1.933   .     S
Cu150  O162    1.954   .     S
O169   H170    0.983   .     S
O171   H172    0.982   .     S
O173   H174    0.983   .     S
O175   H176    0.982   .     S
C181   O224    1.299   .     A
C181   C205    1.460   .     S
C181   O221    1.300   .     A
C182   O223    1.300   .     A
C182   C206    1.460   .     S
C182   O222    1.299   .     A
C183   O229    1.373   .     S
C183   N219    1.385   .     A
C183   C187    1.409   .     A
C184   C188    1.409   .     A
C184   O231    1.373   .     S
C184   N220    1.385   .     A
C185   C189    1.409   .     A
C185   N219    1.385   .     A
C185   O233    1.373   .     S
C186   C190    1.409   .     A
C186   O235    1.373   .     S
C186   N220    1.385   .     A
C187   C193    1.401   .     A
C187   H215    1.082   .     S
C188   H216    1.082   .     S
C188   C194    1.401   .     A
C189   H217    1.082   .     S
C189   C193    1.401   .     A
C190   H218    1.082   .     S
C190   C194    1.401   .     A
C191   C195    1.410   .     S
C191   O228    1.294   .     A
C191   O225    1.294   .     A
C192   O227    1.294   .     A
C192   C196    1.410   .     S
C192   O226    1.294   .     A
C194   C73     1.516   1_565 S
C195   C676    1.191   1_554 S
C196   C435    1.191   .     S
C197   F237    1.358   .     S
C197   C207    1.405   .     A
C197   C201    1.391   .     A
C198   C208    1.405   .     A
C198   C202    1.391   .     A
C198   F238    1.358   .     S
C199   C203    1.391   .     A
C199   F239    1.358   .     S
C199   C208    1.405   .     A
C200   C207    1.405   .     A
C200   F240    1.358   .     S
C200   C204    1.391   .     A
C201   H211    1.082   .     S
C201   C205    1.401   .     A
C202   H212    1.083   .     S
C202   C206    1.401   .     A
C203   C206    1.401   .     A
C203   H213    1.082   .     S
C204   C205    1.401   .     A
C204   H214    1.083   .     S
C208   C147    1.467   1_655 S
Cu209  Cu210   2.698   .     S
Cu209  O223    1.954   .     S
Cu209  O227    1.933   .     S
Cu209  N220    2.027   .     S
Cu209  O221    1.954   .     S
Cu209  O225    1.933   .     S
Cu210  O224    1.954   .     S
Cu210  O228    1.933   .     S
Cu210  N219    2.027   .     S
Cu210  O226    1.933   .     S
Cu210  O222    1.954   .     S
O229   H230    0.983   .     S
O231   H232    0.982   .     S
O233   H234    0.983   .     S
O235   H236    0.982   .     S
C241   O284    1.299   .     A
C241   C265    1.460   .     S
C241   O281    1.300   .     A
C242   O283    1.300   .     A
C242   C266    1.460   .     S
C242   O282    1.299   .     A
C243   O289    1.373   .     S
C243   N279    1.385   .     A
C243   C247    1.409   .     A
C244   C248    1.409   .     A
C244   O291    1.373   .     S
C244   N280    1.385   .     A
C245   C249    1.409   .     A
C245   N279    1.385   .     A
C245   O293    1.373   .     S
C246   C250    1.409   .     A
C246   O295    1.373   .     S
C246   N280    1.385   .     A
C247   C253    1.401   .     A
C247   H275    1.082   .     S
C248   H276    1.082   .     S
C248   C254    1.401   .     A
C249   H277    1.082   .     S
C249   C253    1.401   .     A
C250   H278    1.082   .     S
C250   C254    1.401   .     A
C251   C255    1.410   .     S
C251   O288    1.294   .     A
C251   O285    1.294   .     A
C252   O287    1.294   .     A
C252   C256    1.410   .     S
C252   O286    1.294   .     A
C253   C374    1.516   1_545 S
C254   C373    1.516   .     S
C256   C495    1.191   .     S
C257   F297    1.358   .     S
C257   C267    1.405   .     A
C257   C261    1.391   .     A
C258   C268    1.405   .     A
C258   C262    1.391   .     A
C258   F298    1.358   .     S
C259   C263    1.391   .     A
C259   F299    1.358   .     S
C259   C268    1.405   .     A
C260   C267    1.405   .     A
C260   F300    1.358   .     S
C260   C264    1.391   .     A
C261   H271    1.082   .     S
C261   C265    1.401   .     A
C262   H272    1.083   .     S
C262   C266    1.401   .     A
C263   C266    1.401   .     A
C263   H273    1.082   .     S
C264   C265    1.401   .     A
C264   H274    1.083   .     S
C267   C328    1.467   1_455 S
C268   C327    1.467   .     S
Cu269  Cu270   2.698   .     S
Cu269  O283    1.954   .     S
Cu269  O287    1.933   .     S
Cu269  N280    2.027   .     S
Cu269  O281    1.954   .     S
Cu269  O285    1.933   .     S
Cu270  O284    1.954   .     S
Cu270  O288    1.933   .     S
Cu270  N279    2.027   .     S
Cu270  O286    1.933   .     S
Cu270  O282    1.954   .     S
O289   H290    0.983   .     S
O291   H292    0.982   .     S
O293   H294    0.983   .     S
O295   H296    0.982   .     S
C301   O344    1.299   .     A
C301   C325    1.460   .     S
C301   O341    1.300   .     A
C302   O343    1.300   .     A
C302   C326    1.460   .     S
C302   O342    1.299   .     A
C303   O349    1.373   .     S
C303   N339    1.385   .     A
C303   C307    1.409   .     A
C304   C308    1.409   .     A
C304   O351    1.373   .     S
C304   N340    1.385   .     A
C305   C309    1.409   .     A
C305   N339    1.385   .     A
C305   O353    1.373   .     S
C306   C310    1.409   .     A
C306   O355    1.373   .     S
C306   N340    1.385   .     A
C307   C313    1.401   .     A
C307   H335    1.082   .     S
C308   H336    1.082   .     S
C308   C314    1.401   .     A
C309   H337    1.082   .     S
C309   C313    1.401   .     A
C310   H338    1.082   .     S
C310   C314    1.401   .     A
C311   C315    1.410   .     S
C311   O348    1.294   .     A
C311   O345    1.294   .     A
C312   O347    1.294   .     A
C312   C316    1.410   .     S
C312   O346    1.294   .     A
C313   C434    1.516   1_545 S
C314   C433    1.516   .     S
C316   C555    1.191   .     S
C317   F357    1.358   .     S
C317   C327    1.405   .     A
C317   C321    1.391   .     A
C318   C328    1.405   .     A
C318   C322    1.391   .     A
C318   F358    1.358   .     S
C319   C323    1.391   .     A
C319   F359    1.358   .     S
C319   C328    1.405   .     A
C320   C327    1.405   .     A
C320   F360    1.358   .     S
C320   C324    1.391   .     A
C321   H331    1.082   .     S
C321   C325    1.401   .     A
C322   H332    1.083   .     S
C322   C326    1.401   .     A
C323   C326    1.401   .     A
C323   H333    1.082   .     S
C324   C325    1.401   .     A
C324   H334    1.083   .     S
C328   C267    1.467   1_655 S
Cu329  Cu330   2.698   .     S
Cu329  O343    1.954   .     S
Cu329  O347    1.933   .     S
Cu329  N340    2.027   .     S
Cu329  O341    1.954   .     S
Cu329  O345    1.933   .     S
Cu330  O344    1.954   .     S
Cu330  O348    1.933   .     S
Cu330  N339    2.027   .     S
Cu330  O346    1.933   .     S
Cu330  O342    1.954   .     S
O349   H350    0.983   .     S
O351   H352    0.982   .     S
O353   H354    0.983   .     S
O355   H356    0.982   .     S
C361   O404    1.299   .     A
C361   C385    1.460   .     S
C361   O401    1.300   .     A
C362   O403    1.300   .     A
C362   C386    1.460   .     S
C362   O402    1.299   .     A
C363   O409    1.373   .     S
C363   N399    1.385   .     A
C363   C367    1.409   .     A
C364   C368    1.409   .     A
C364   O411    1.373   .     S
C364   N400    1.385   .     A
C365   C369    1.409   .     A
C365   N399    1.385   .     A
C365   O413    1.373   .     S
C366   C370    1.409   .     A
C366   O415    1.373   .     S
C366   N400    1.385   .     A
C367   C373    1.401   .     A
C367   H395    1.082   .     S
C368   H396    1.082   .     S
C368   C374    1.401   .     A
C369   H397    1.082   .     S
C369   C373    1.401   .     A
C370   H398    1.082   .     S
C370   C374    1.401   .     A
C371   C375    1.410   .     S
C371   O408    1.294   .     A
C371   O405    1.294   .     A
C372   O407    1.294   .     A
C372   C376    1.410   .     S
C372   O406    1.294   .     A
C374   C253    1.516   1_565 S
C376   C615    1.191   .     S
C377   F417    1.358   .     S
C377   C387    1.405   .     A
C377   C381    1.391   .     A
C378   C388    1.405   .     A
C378   C382    1.391   .     A
C378   F418    1.358   .     S
C379   C383    1.391   .     A
C379   F419    1.358   .     S
C379   C388    1.405   .     A
C380   C387    1.405   .     A
C380   F420    1.358   .     S
C380   C384    1.391   .     A
C381   H391    1.082   .     S
C381   C385    1.401   .     A
C382   H392    1.083   .     S
C382   C386    1.401   .     A
C383   C386    1.401   .     A
C383   H393    1.082   .     S
C384   C385    1.401   .     A
C384   H394    1.083   .     S
C387   C448    1.467   1_455 S
C388   C447    1.467   .     S
Cu389  Cu390   2.698   .     S
Cu389  O403    1.954   .     S
Cu389  O407    1.933   .     S
Cu389  N400    2.027   .     S
Cu389  O401    1.954   .     S
Cu389  O405    1.933   .     S
Cu390  O404    1.954   .     S
Cu390  O408    1.933   .     S
Cu390  N399    2.027   .     S
Cu390  O406    1.933   .     S
Cu390  O402    1.954   .     S
O409   H410    0.983   .     S
O411   H412    0.982   .     S
O413   H414    0.983   .     S
O415   H416    0.982   .     S
C421   O464    1.299   .     A
C421   C445    1.460   .     S
C421   O461    1.300   .     A
C422   O463    1.300   .     A
C422   C446    1.460   .     S
C422   O462    1.299   .     A
C423   O469    1.373   .     S
C423   N459    1.385   .     A
C423   C427    1.409   .     A
C424   C428    1.409   .     A
C424   O471    1.373   .     S
C424   N460    1.385   .     A
C425   C429    1.409   .     A
C425   N459    1.385   .     A
C425   O473    1.373   .     S
C426   C430    1.409   .     A
C426   O475    1.373   .     S
C426   N460    1.385   .     A
C427   C433    1.401   .     A
C427   H455    1.082   .     S
C428   H456    1.082   .     S
C428   C434    1.401   .     A
C429   H457    1.082   .     S
C429   C433    1.401   .     A
C430   H458    1.082   .     S
C430   C434    1.401   .     A
C431   C435    1.410   .     S
C431   O468    1.294   .     A
C431   O465    1.294   .     A
C432   O467    1.294   .     A
C432   C436    1.410   .     S
C432   O466    1.294   .     A
C434   C313    1.516   1_565 S
C436   C675    1.191   .     S
C437   F477    1.358   .     S
C437   C447    1.405   .     A
C437   C441    1.391   .     A
C438   C448    1.405   .     A
C438   C442    1.391   .     A
C438   F478    1.358   .     S
C439   C443    1.391   .     A
C439   F479    1.358   .     S
C439   C448    1.405   .     A
C440   C447    1.405   .     A
C440   F480    1.358   .     S
C440   C444    1.391   .     A
C441   H451    1.082   .     S
C441   C445    1.401   .     A
C442   H452    1.083   .     S
C442   C446    1.401   .     A
C443   C446    1.401   .     A
C443   H453    1.082   .     S
C444   C445    1.401   .     A
C444   H454    1.083   .     S
C448   C387    1.467   1_655 S
Cu449  Cu450   2.698   .     S
Cu449  O463    1.954   .     S
Cu449  O467    1.933   .     S
Cu449  N460    2.027   .     S
Cu449  O461    1.954   .     S
Cu449  O465    1.933   .     S
Cu450  O464    1.954   .     S
Cu450  O468    1.933   .     S
Cu450  N459    2.027   .     S
Cu450  O466    1.933   .     S
Cu450  O462    1.954   .     S
O469   H470    0.983   .     S
O471   H472    0.982   .     S
O473   H474    0.983   .     S
O475   H476    0.982   .     S
C481   O524    1.299   .     A
C481   C505    1.460   .     S
C481   O521    1.300   .     A
C482   O523    1.300   .     A
C482   C506    1.460   .     S
C482   O522    1.299   .     A
C483   O529    1.373   .     S
C483   N519    1.385   .     A
C483   C487    1.409   .     A
C484   C488    1.409   .     A
C484   O531    1.373   .     S
C484   N520    1.385   .     A
C485   C489    1.409   .     A
C485   N519    1.385   .     A
C485   O533    1.373   .     S
C486   C490    1.409   .     A
C486   O535    1.373   .     S
C486   N520    1.385   .     A
C487   C493    1.401   .     A
C487   H515    1.082   .     S
C488   H516    1.082   .     S
C488   C494    1.401   .     A
C489   H517    1.082   .     S
C489   C493    1.401   .     A
C490   H518    1.082   .     S
C490   C494    1.401   .     A
C491   C495    1.410   .     S
C491   O528    1.294   .     A
C491   O525    1.294   .     A
C492   O527    1.294   .     A
C492   C496    1.410   .     S
C492   O526    1.294   .     A
C493   C614    1.516   1_545 S
C494   C613    1.516   .     S
C496   C15     1.191   1_556 S
C497   F537    1.358   .     S
C497   C507    1.405   .     A
C497   C501    1.391   .     A
C498   C508    1.405   .     A
C498   C502    1.391   .     A
C498   F538    1.358   .     S
C499   C503    1.391   .     A
C499   F539    1.358   .     S
C499   C508    1.405   .     A
C500   C507    1.405   .     A
C500   F540    1.358   .     S
C500   C504    1.391   .     A
C501   H511    1.082   .     S
C501   C505    1.401   .     A
C502   H512    1.083   .     S
C502   C506    1.401   .     A
C503   C506    1.401   .     A
C503   H513    1.082   .     S
C504   C505    1.401   .     A
C504   H514    1.083   .     S
C507   C568    1.467   1_455 S
C508   C567    1.467   .     S
Cu509  Cu510   2.698   .     S
Cu509  O523    1.954   .     S
Cu509  O527    1.933   .     S
Cu509  N520    2.027   .     S
Cu509  O521    1.954   .     S
Cu509  O525    1.933   .     S
Cu510  O524    1.954   .     S
Cu510  O528    1.933   .     S
Cu510  N519    2.027   .     S
Cu510  O526    1.933   .     S
Cu510  O522    1.954   .     S
O529   H530    0.983   .     S
O531   H532    0.982   .     S
O533   H534    0.983   .     S
O535   H536    0.982   .     S
C541   O584    1.299   .     A
C541   C565    1.460   .     S
C541   O581    1.300   .     A
C542   O583    1.300   .     A
C542   C566    1.460   .     S
C542   O582    1.299   .     A
C543   O589    1.373   .     S
C543   N579    1.385   .     A
C543   C547    1.409   .     A
C544   C548    1.409   .     A
C544   O591    1.373   .     S
C544   N580    1.385   .     A
C545   C549    1.409   .     A
C545   N579    1.385   .     A
C545   O593    1.373   .     S
C546   C550    1.409   .     A
C546   O595    1.373   .     S
C546   N580    1.385   .     A
C547   C553    1.401   .     A
C547   H575    1.082   .     S
C548   H576    1.082   .     S
C548   C554    1.401   .     A
C549   H577    1.082   .     S
C549   C553    1.401   .     A
C550   H578    1.082   .     S
C550   C554    1.401   .     A
C551   C555    1.410   .     S
C551   O588    1.294   .     A
C551   O585    1.294   .     A
C552   O587    1.294   .     A
C552   C556    1.410   .     S
C552   O586    1.294   .     A
C553   C674    1.516   1_545 S
C554   C673    1.516   .     S
C556   C75     1.191   1_556 S
C557   F597    1.358   .     S
C557   C567    1.405   .     A
C557   C561    1.391   .     A
C558   C568    1.405   .     A
C558   C562    1.391   .     A
C558   F598    1.358   .     S
C559   C563    1.391   .     A
C559   F599    1.358   .     S
C559   C568    1.405   .     A
C560   C567    1.405   .     A
C560   F600    1.358   .     S
C560   C564    1.391   .     A
C561   H571    1.082   .     S
C561   C565    1.401   .     A
C562   H572    1.083   .     S
C562   C566    1.401   .     A
C563   C566    1.401   .     A
C563   H573    1.082   .     S
C564   C565    1.401   .     A
C564   H574    1.083   .     S
C568   C507    1.467   1_655 S
Cu569  Cu570   2.698   .     S
Cu569  O583    1.954   .     S
Cu569  O587    1.933   .     S
Cu569  N580    2.027   .     S
Cu569  O581    1.954   .     S
Cu569  O585    1.933   .     S
Cu570  O584    1.954   .     S
Cu570  O588    1.933   .     S
Cu570  N579    2.027   .     S
Cu570  O586    1.933   .     S
Cu570  O582    1.954   .     S
O589   H590    0.983   .     S
O591   H592    0.982   .     S
O593   H594    0.983   .     S
O595   H596    0.982   .     S
C601   O644    1.299   .     A
C601   C625    1.460   .     S
C601   O641    1.300   .     A
C602   O643    1.300   .     A
C602   C626    1.460   .     S
C602   O642    1.299   .     A
C603   O649    1.373   .     S
C603   N639    1.385   .     A
C603   C607    1.409   .     A
C604   C608    1.409   .     A
C604   O651    1.373   .     S
C604   N640    1.385   .     A
C605   C609    1.409   .     A
C605   N639    1.385   .     A
C605   O653    1.373   .     S
C606   C610    1.409   .     A
C606   O655    1.373   .     S
C606   N640    1.385   .     A
C607   C613    1.401   .     A
C607   H635    1.082   .     S
C608   H636    1.082   .     S
C608   C614    1.401   .     A
C609   H637    1.082   .     S
C609   C613    1.401   .     A
C610   H638    1.082   .     S
C610   C614    1.401   .     A
C611   C615    1.410   .     S
C611   O648    1.294   .     A
C611   O645    1.294   .     A
C612   O647    1.294   .     A
C612   C616    1.410   .     S
C612   O646    1.294   .     A
C614   C493    1.516   1_565 S
C616   C135    1.191   1_556 S
C617   F657    1.358   .     S
C617   C627    1.405   .     A
C617   C621    1.391   .     A
C618   C628    1.405   .     A
C618   C622    1.391   .     A
C618   F658    1.358   .     S
C619   C623    1.391   .     A
C619   F659    1.358   .     S
C619   C628    1.405   .     A
C620   C627    1.405   .     A
C620   F660    1.358   .     S
C620   C624    1.391   .     A
C621   H631    1.082   .     S
C621   C625    1.401   .     A
C622   H632    1.083   .     S
C622   C626    1.401   .     A
C623   C626    1.401   .     A
C623   H633    1.082   .     S
C624   C625    1.401   .     A
C624   H634    1.083   .     S
C627   C688    1.467   1_455 S
C628   C687    1.467   .     S
Cu629  Cu630   2.698   .     S
Cu629  O643    1.954   .     S
Cu629  O647    1.933   .     S
Cu629  N640    2.027   .     S
Cu629  O641    1.954   .     S
Cu629  O645    1.933   .     S
Cu630  O644    1.954   .     S
Cu630  O648    1.933   .     S
Cu630  N639    2.027   .     S
Cu630  O646    1.933   .     S
Cu630  O642    1.954   .     S
O649   H650    0.983   .     S
O651   H652    0.982   .     S
O653   H654    0.983   .     S
O655   H656    0.982   .     S
C661   O704    1.299   .     A
C661   C685    1.460   .     S
C661   O701    1.300   .     A
C662   O703    1.300   .     A
C662   C686    1.460   .     S
C662   O702    1.299   .     A
C663   O709    1.373   .     S
C663   N699    1.385   .     A
C663   C667    1.409   .     A
C664   C668    1.409   .     A
C664   O711    1.373   .     S
C664   N700    1.385   .     A
C665   C669    1.409   .     A
C665   N699    1.385   .     A
C665   O713    1.373   .     S
C666   C670    1.409   .     A
C666   O715    1.373   .     S
C666   N700    1.385   .     A
C667   C673    1.401   .     A
C667   H695    1.082   .     S
C668   H696    1.082   .     S
C668   C674    1.401   .     A
C669   H697    1.082   .     S
C669   C673    1.401   .     A
C670   H698    1.082   .     S
C670   C674    1.401   .     A
C671   C675    1.410   .     S
C671   O708    1.294   .     A
C671   O705    1.294   .     A
C672   O707    1.294   .     A
C672   C676    1.410   .     S
C672   O706    1.294   .     A
C674   C553    1.516   1_565 S
C676   C195    1.191   1_556 S
C677   F717    1.358   .     S
C677   C687    1.405   .     A
C677   C681    1.391   .     A
C678   C688    1.405   .     A
C678   C682    1.391   .     A
C678   F718    1.358   .     S
C679   C683    1.391   .     A
C679   F719    1.358   .     S
C679   C688    1.405   .     A
C680   C687    1.405   .     A
C680   F720    1.358   .     S
C680   C684    1.391   .     A
C681   H691    1.082   .     S
C681   C685    1.401   .     A
C682   H692    1.083   .     S
C682   C686    1.401   .     A
C683   C686    1.401   .     A
C683   H693    1.082   .     S
C684   C685    1.401   .     A
C684   H694    1.083   .     S
C688   C627    1.467   1_655 S
Cu689  Cu690   2.698   .     S
Cu689  O703    1.954   .     S
Cu689  O707    1.933   .     S
Cu689  N700    2.027   .     S
Cu689  O701    1.954   .     S
Cu689  O705    1.933   .     S
Cu690  O704    1.954   .     S
Cu690  O708    1.933   .     S
Cu690  N699    2.027   .     S
Cu690  O706    1.933   .     S
Cu690  O702    1.954   .     S
O709   H710    0.983   .     S
O711   H712    0.982   .     S
O713   H714    0.983   .     S
O715   H716    0.982   .     S
