data_str_m2_o1_o10_pcu_sym.20
_audit_creation_date              2020-01-03
_audit_creation_method            'Materials Studio'
_symmetry_space_group_name_H-M    'P1'
_symmetry_Int_Tables_number       1
_symmetry_cell_setting            triclinic
loop_
_symmetry_equiv_pos_as_xyz
  x,y,z
_cell_length_a                    26.9280
_cell_length_b                    33.0913
_cell_length_c                    28.7345
_cell_angle_alpha                 92.7536
_cell_angle_beta                  99.4518
_cell_angle_gamma                 91.9693
loop_
_atom_site_label
_atom_site_type_symbol
_atom_site_fract_x
_atom_site_fract_y
_atom_site_fract_z
_atom_site_U_iso_or_equiv
_atom_site_adp_type
_atom_site_occupancy
Br1    Br    0.08320   0.27449   0.09165   0.00000  Uiso   1.00
Br2    Br    0.25013   0.05884   0.24168   0.00000  Uiso   1.00
Br3    Br    0.07331   0.12050   0.03402   0.00000  Uiso   1.00
Br4    Br    0.26002   0.21284   0.29931   0.00000  Uiso   1.00
C5     C     0.16634   0.08726   0.16521   0.00000  Uiso   1.00
C6     C     0.19873   0.02484   0.20084   0.00000  Uiso   1.00
C7     C     0.16449   0.29089   0.17040   0.00000  Uiso   1.00
C8     C     0.16884   0.04244   0.16293   0.00000  Uiso   1.00
C9     C     0.13031   0.14565   0.01694   0.00000  Uiso   1.00
C10    C     0.20302   0.18768   0.31639   0.00000  Uiso   1.00
C11    C     0.13111   0.14487   0.30127   0.00000  Uiso   1.00
C12    C     0.20223   0.18846   0.03206   0.00000  Uiso   1.00
C13    C     0.32277   0.13032   0.11146   0.00000  Uiso   1.00
C14    C     0.30504   0.14279   0.06605   0.00000  Uiso   1.00
C15    C     0.28398   0.11423   0.03021   0.00000  Uiso   1.00
C16    C     0.16699   0.24607   0.16813   0.00000  Uiso   1.00
C17    C     0.28095   0.07338   0.03973   0.00000  Uiso   1.00
C18    C     0.29724   0.06101   0.08532   0.00000  Uiso   1.00
C19    C     0.31824   0.08937   0.12119   0.00000  Uiso   1.00
C20    C     0.01056   0.20301   0.22187   0.00000  Uiso   1.00
C21    C     0.01506   0.24396   0.21214   0.00000  Uiso   1.00
C22    C     0.03605   0.27234   0.24801   0.00000  Uiso   1.00
C23    C     0.05234   0.25996   0.29360   0.00000  Uiso   1.00
C24    C     0.04934   0.21911   0.30312   0.00000  Uiso   1.00
C25    C     0.02830   0.19055   0.26728   0.00000  Uiso   1.00
C26    C     0.12322   0.03092   0.07785   0.00000  Uiso   1.00
C27    C     0.06795   0.16621   0.15449   0.00000  Uiso   1.00
C28    C     0.07313   0.02584   0.05433   0.00000  Uiso   1.00
C29    C     0.06165   0.02875   0.00520   0.00000  Uiso   1.00
C30    C     0.09975   0.03802   0.31269   0.00000  Uiso   1.00
C31    C     0.14909   0.04527   0.00270   0.00000  Uiso   1.00
C32    C     0.16076   0.04120   0.05148   0.00000  Uiso   1.00
C33    C     0.21008   0.30241   0.25549   0.00000  Uiso   1.00
C34    C     0.17252   0.29212   0.28184   0.00000  Uiso   1.00
C35    C     0.18417   0.28804   0.33062   0.00000  Uiso   1.00
C36    C     0.23350   0.29530   0.02066   0.00000  Uiso   1.00
C37    C     0.27161   0.30459   0.32818   0.00000  Uiso   1.00
C38    C     0.26538   0.16712   0.17884   0.00000  Uiso   1.00
C39    C     0.26017   0.30750   0.27904   0.00000  Uiso   1.00
C40    C     0.01288   0.16003   0.14922   0.00000  Uiso   1.00
C41    C     0.32046   0.17330   0.18411   0.00000  Uiso   1.00
C42    C     0.13913   0.01712   0.12648   0.00000  Uiso   1.00
C43    C     0.19419   0.31622   0.20686   0.00000  Uiso   1.00
C44    C     0.13460   0.30849   0.13249   0.00000  Uiso   1.00
Cu45   Cu    0.16667   0.16667   0.21355   0.00000  Uiso   1.00
Cu46   Cu    0.16667   0.16666   0.11978   0.00000  Uiso   1.00
H47    H     0.10259   0.12735   0.27694   0.00000  Uiso   1.00
H48    H     0.06770   0.28201   0.32146   0.00000  Uiso   1.00
H49    H     0.06191   0.20982   0.00519   0.00000  Uiso   1.00
H50    H     0.02406   0.15908   0.27511   0.00000  Uiso   1.00
H51    H     0.04350   0.01780   0.07372   0.00000  Uiso   1.00
H52    H     0.02325   0.02491   0.32043   0.00000  Uiso   1.00
H53    H     0.09085   0.04058   0.27485   0.00000  Uiso   1.00
H54    H     0.17838   0.05293   0.31602   0.00000  Uiso   1.00
H55    H     0.19937   0.04401   0.06871   0.00000  Uiso   1.00
H56    H     0.13393   0.28929   0.26459   0.00000  Uiso   1.00
H57    H     0.15487   0.28035   0.01728   0.00000  Uiso   1.00
H58    H     0.23075   0.20599   0.05639   0.00000  Uiso   1.00
H59    H     0.24238   0.29273   0.05850   0.00000  Uiso   1.00
H60    H     0.31000   0.30845   0.01296   0.00000  Uiso   1.00
H61    H     0.28980   0.31556   0.25968   0.00000  Uiso   1.00
H62    H     0.30929   0.17426   0.05822   0.00000  Uiso   1.00
H63    H     0.27141   0.12353   0.32814   0.00000  Uiso   1.00
H64    H     0.26557   0.05134   0.01187   0.00000  Uiso   1.00
H65    H     0.29376   0.02938   0.09278   0.00000  Uiso   1.00
H66    H     0.33134   0.07950   0.15633   0.00000  Uiso   1.00
H67    H     0.00196   0.25384   0.17700   0.00000  Uiso   1.00
H68    H     0.03950   0.30396   0.24056   0.00000  Uiso   1.00
N69    N     0.16668   0.16668   0.28403   0.00000  Uiso   1.00
N70    N     0.16665   0.16666   0.04931   0.00000  Uiso   1.00
O71    O     0.16666   0.10655   0.20625   0.00000  Uiso   1.00
O72    O     0.16667   0.22678   0.12709   0.00000  Uiso   1.00
O73    O     0.16666   0.10654   0.12706   0.00000  Uiso   1.00
O74    O     0.16667   0.22679   0.20628   0.00000  Uiso   1.00
O75    O     0.09161   0.16667   0.19712   0.00000  Uiso   1.00
O76    O     0.24172   0.16666   0.13621   0.00000  Uiso   1.00
O77    O     0.09161   0.16666   0.11793   0.00000  Uiso   1.00
O78    O     0.24172   0.16667   0.21540   0.00000  Uiso   1.00
Br79   Br    0.41654   0.27449   0.09165   0.00000  Uiso   1.00
Br80   Br    0.58346   0.05884   0.24168   0.00000  Uiso   1.00
Br81   Br    0.40664   0.12050   0.03402   0.00000  Uiso   1.00
Br82   Br    0.59335   0.21284   0.29931   0.00000  Uiso   1.00
C83    C     0.49968   0.08726   0.16521   0.00000  Uiso   1.00
C84    C     0.53207   0.02484   0.20084   0.00000  Uiso   1.00
C85    C     0.49782   0.29089   0.17040   0.00000  Uiso   1.00
C86    C     0.50217   0.04244   0.16293   0.00000  Uiso   1.00
C87    C     0.46364   0.14565   0.01694   0.00000  Uiso   1.00
C88    C     0.53636   0.18768   0.31639   0.00000  Uiso   1.00
C89    C     0.46444   0.14487   0.30127   0.00000  Uiso   1.00
C90    C     0.53556   0.18846   0.03206   0.00000  Uiso   1.00
C91    C     0.65611   0.13032   0.11146   0.00000  Uiso   1.00
C92    C     0.63837   0.14279   0.06605   0.00000  Uiso   1.00
C93    C     0.61731   0.11423   0.03021   0.00000  Uiso   1.00
C94    C     0.50032   0.24607   0.16813   0.00000  Uiso   1.00
C95    C     0.61429   0.07338   0.03973   0.00000  Uiso   1.00
C96    C     0.63057   0.06101   0.08532   0.00000  Uiso   1.00
C97    C     0.65158   0.08937   0.12119   0.00000  Uiso   1.00
C98    C     0.34389   0.20301   0.22187   0.00000  Uiso   1.00
C99    C     0.34840   0.24396   0.21214   0.00000  Uiso   1.00
C100   C     0.36938   0.27234   0.24801   0.00000  Uiso   1.00
C101   C     0.38567   0.25996   0.29360   0.00000  Uiso   1.00
C102   C     0.38267   0.21911   0.30312   0.00000  Uiso   1.00
C103   C     0.36163   0.19055   0.26728   0.00000  Uiso   1.00
C104   C     0.45655   0.03092   0.07785   0.00000  Uiso   1.00
C105   C     0.40129   0.16621   0.15449   0.00000  Uiso   1.00
C106   C     0.40646   0.02584   0.05433   0.00000  Uiso   1.00
C107   C     0.39499   0.02875   0.00520   0.00000  Uiso   1.00
C108   C     0.43308   0.03802   0.31269   0.00000  Uiso   1.00
C109   C     0.48243   0.04527   0.00270   0.00000  Uiso   1.00
C110   C     0.49410   0.04120   0.05148   0.00000  Uiso   1.00
C111   C     0.54342   0.30241   0.25549   0.00000  Uiso   1.00
C112   C     0.50586   0.29212   0.28184   0.00000  Uiso   1.00
C113   C     0.51750   0.28804   0.33062   0.00000  Uiso   1.00
C114   C     0.56684   0.29530   0.02066   0.00000  Uiso   1.00
C115   C     0.60494   0.30459   0.32818   0.00000  Uiso   1.00
C116   C     0.59871   0.16712   0.17884   0.00000  Uiso   1.00
C117   C     0.59350   0.30750   0.27904   0.00000  Uiso   1.00
C118   C     0.34621   0.16003   0.14922   0.00000  Uiso   1.00
C119   C     0.65379   0.17330   0.18411   0.00000  Uiso   1.00
C120   C     0.47246   0.01712   0.12648   0.00000  Uiso   1.00
C121   C     0.52753   0.31622   0.20686   0.00000  Uiso   1.00
C122   C     0.46793   0.30849   0.13249   0.00000  Uiso   1.00
Cu123  Cu    0.50000   0.16667   0.21355   0.00000  Uiso   1.00
Cu124  Cu    0.50000   0.16666   0.11978   0.00000  Uiso   1.00
H125   H     0.43592   0.12735   0.27694   0.00000  Uiso   1.00
H126   H     0.40104   0.28201   0.32146   0.00000  Uiso   1.00
H127   H     0.39525   0.20982   0.00519   0.00000  Uiso   1.00
H128   H     0.35739   0.15908   0.27511   0.00000  Uiso   1.00
H129   H     0.37684   0.01780   0.07372   0.00000  Uiso   1.00
H130   H     0.35659   0.02491   0.32043   0.00000  Uiso   1.00
H131   H     0.42418   0.04058   0.27485   0.00000  Uiso   1.00
H132   H     0.51172   0.05293   0.31602   0.00000  Uiso   1.00
H133   H     0.53270   0.04401   0.06871   0.00000  Uiso   1.00
H134   H     0.46726   0.28929   0.26459   0.00000  Uiso   1.00
H135   H     0.48820   0.28035   0.01728   0.00000  Uiso   1.00
H136   H     0.56408   0.20599   0.05639   0.00000  Uiso   1.00
H137   H     0.57571   0.29273   0.05850   0.00000  Uiso   1.00
H138   H     0.64334   0.30845   0.01296   0.00000  Uiso   1.00
H139   H     0.62314   0.31556   0.25968   0.00000  Uiso   1.00
H140   H     0.64262   0.17426   0.05822   0.00000  Uiso   1.00
H141   H     0.60475   0.12353   0.32814   0.00000  Uiso   1.00
H142   H     0.59890   0.05134   0.01187   0.00000  Uiso   1.00
H143   H     0.62710   0.02938   0.09278   0.00000  Uiso   1.00
H144   H     0.66467   0.07950   0.15633   0.00000  Uiso   1.00
H145   H     0.33529   0.25384   0.17700   0.00000  Uiso   1.00
H146   H     0.37284   0.30396   0.24056   0.00000  Uiso   1.00
N147   N     0.50001   0.16668   0.28403   0.00000  Uiso   1.00
N148   N     0.49999   0.16666   0.04931   0.00000  Uiso   1.00
O149   O     0.50000   0.10655   0.20625   0.00000  Uiso   1.00
O150   O     0.50000   0.22678   0.12709   0.00000  Uiso   1.00
O151   O     0.50000   0.10654   0.12706   0.00000  Uiso   1.00
O152   O     0.50000   0.22679   0.20628   0.00000  Uiso   1.00
O153   O     0.42495   0.16667   0.19712   0.00000  Uiso   1.00
O154   O     0.57505   0.16666   0.13621   0.00000  Uiso   1.00
O155   O     0.42494   0.16666   0.11793   0.00000  Uiso   1.00
O156   O     0.57506   0.16667   0.21540   0.00000  Uiso   1.00
Br157  Br    0.74987   0.27449   0.09165   0.00000  Uiso   1.00
Br158  Br    0.91679   0.05884   0.24168   0.00000  Uiso   1.00
Br159  Br    0.73997   0.12050   0.03402   0.00000  Uiso   1.00
Br160  Br    0.92669   0.21284   0.29931   0.00000  Uiso   1.00
C161   C     0.83301   0.08726   0.16521   0.00000  Uiso   1.00
C162   C     0.86540   0.02484   0.20084   0.00000  Uiso   1.00
C163   C     0.83116   0.29089   0.17040   0.00000  Uiso   1.00
C164   C     0.83551   0.04244   0.16293   0.00000  Uiso   1.00
C165   C     0.79698   0.14565   0.01694   0.00000  Uiso   1.00
C166   C     0.86969   0.18768   0.31639   0.00000  Uiso   1.00
C167   C     0.79777   0.14487   0.30127   0.00000  Uiso   1.00
C168   C     0.86889   0.18846   0.03206   0.00000  Uiso   1.00
C169   C     0.98944   0.13032   0.11146   0.00000  Uiso   1.00
C170   C     0.97170   0.14279   0.06605   0.00000  Uiso   1.00
C171   C     0.95065   0.11423   0.03021   0.00000  Uiso   1.00
C172   C     0.83366   0.24607   0.16813   0.00000  Uiso   1.00
C173   C     0.94762   0.07338   0.03973   0.00000  Uiso   1.00
C174   C     0.96390   0.06101   0.08532   0.00000  Uiso   1.00
C175   C     0.98491   0.08937   0.12119   0.00000  Uiso   1.00
C176   C     0.67722   0.20301   0.22187   0.00000  Uiso   1.00
C177   C     0.68173   0.24396   0.21214   0.00000  Uiso   1.00
C178   C     0.70272   0.27234   0.24801   0.00000  Uiso   1.00
C179   C     0.71900   0.25996   0.29360   0.00000  Uiso   1.00
C180   C     0.71601   0.21911   0.30312   0.00000  Uiso   1.00
C181   C     0.69497   0.19055   0.26728   0.00000  Uiso   1.00
C182   C     0.78989   0.03092   0.07785   0.00000  Uiso   1.00
C183   C     0.73462   0.16621   0.15449   0.00000  Uiso   1.00
C184   C     0.73979   0.02584   0.05433   0.00000  Uiso   1.00
C185   C     0.72832   0.02875   0.00520   0.00000  Uiso   1.00
C186   C     0.76641   0.03802   0.31269   0.00000  Uiso   1.00
C187   C     0.81576   0.04527   0.00270   0.00000  Uiso   1.00
C188   C     0.82743   0.04120   0.05148   0.00000  Uiso   1.00
C189   C     0.87675   0.30241   0.25549   0.00000  Uiso   1.00
C190   C     0.83919   0.29212   0.28184   0.00000  Uiso   1.00
C191   C     0.85084   0.28804   0.33062   0.00000  Uiso   1.00
C192   C     0.90017   0.29530   0.02066   0.00000  Uiso   1.00
C193   C     0.93828   0.30459   0.32818   0.00000  Uiso   1.00
C194   C     0.93204   0.16712   0.17884   0.00000  Uiso   1.00
C195   C     0.92683   0.30750   0.27904   0.00000  Uiso   1.00
C196   C     0.67954   0.16003   0.14922   0.00000  Uiso   1.00
C197   C     0.98712   0.17330   0.18411   0.00000  Uiso   1.00
C198   C     0.80580   0.01712   0.12648   0.00000  Uiso   1.00
C199   C     0.86086   0.31622   0.20686   0.00000  Uiso   1.00
C200   C     0.80126   0.30849   0.13249   0.00000  Uiso   1.00
Cu201  Cu    0.83333   0.16667   0.21355   0.00000  Uiso   1.00
Cu202  Cu    0.83333   0.16666   0.11978   0.00000  Uiso   1.00
H203   H     0.76925   0.12735   0.27694   0.00000  Uiso   1.00
H204   H     0.73437   0.28201   0.32146   0.00000  Uiso   1.00
H205   H     0.72858   0.20982   0.00519   0.00000  Uiso   1.00
H206   H     0.69073   0.15908   0.27511   0.00000  Uiso   1.00
H207   H     0.71017   0.01780   0.07372   0.00000  Uiso   1.00
H208   H     0.68992   0.02491   0.32043   0.00000  Uiso   1.00
H209   H     0.75751   0.04058   0.27485   0.00000  Uiso   1.00
H210   H     0.84505   0.05293   0.31602   0.00000  Uiso   1.00
H211   H     0.86603   0.04401   0.06871   0.00000  Uiso   1.00
H212   H     0.80060   0.28929   0.26459   0.00000  Uiso   1.00
H213   H     0.82153   0.28035   0.01728   0.00000  Uiso   1.00
H214   H     0.89742   0.20599   0.05639   0.00000  Uiso   1.00
H215   H     0.90905   0.29273   0.05850   0.00000  Uiso   1.00
H216   H     0.97667   0.30845   0.01296   0.00000  Uiso   1.00
H217   H     0.95647   0.31556   0.25968   0.00000  Uiso   1.00
H218   H     0.97596   0.17426   0.05822   0.00000  Uiso   1.00
H219   H     0.93808   0.12353   0.32814   0.00000  Uiso   1.00
H220   H     0.93224   0.05134   0.01187   0.00000  Uiso   1.00
H221   H     0.96043   0.02938   0.09278   0.00000  Uiso   1.00
H222   H     0.99800   0.07950   0.15633   0.00000  Uiso   1.00
H223   H     0.66863   0.25384   0.17700   0.00000  Uiso   1.00
H224   H     0.70617   0.30396   0.24056   0.00000  Uiso   1.00
N225   N     0.83335   0.16668   0.28403   0.00000  Uiso   1.00
N226   N     0.83332   0.16666   0.04931   0.00000  Uiso   1.00
O227   O     0.83333   0.10655   0.20625   0.00000  Uiso   1.00
O228   O     0.83334   0.22678   0.12709   0.00000  Uiso   1.00
O229   O     0.83333   0.10654   0.12706   0.00000  Uiso   1.00
O230   O     0.83334   0.22679   0.20628   0.00000  Uiso   1.00
O231   O     0.75828   0.16667   0.19712   0.00000  Uiso   1.00
O232   O     0.90839   0.16666   0.13621   0.00000  Uiso   1.00
O233   O     0.75828   0.16666   0.11793   0.00000  Uiso   1.00
O234   O     0.90839   0.16667   0.21540   0.00000  Uiso   1.00
Br235  Br    0.08320   0.60783   0.09165   0.00000  Uiso   1.00
Br236  Br    0.25013   0.39217   0.24168   0.00000  Uiso   1.00
Br237  Br    0.07331   0.45384   0.03402   0.00000  Uiso   1.00
Br238  Br    0.26002   0.54617   0.29931   0.00000  Uiso   1.00
C239   C     0.16634   0.42059   0.16521   0.00000  Uiso   1.00
C240   C     0.19873   0.35818   0.20084   0.00000  Uiso   1.00
C241   C     0.16449   0.62423   0.17040   0.00000  Uiso   1.00
C242   C     0.16884   0.37577   0.16293   0.00000  Uiso   1.00
C243   C     0.13031   0.47899   0.01694   0.00000  Uiso   1.00
C244   C     0.20302   0.52101   0.31639   0.00000  Uiso   1.00
C245   C     0.13111   0.47821   0.30127   0.00000  Uiso   1.00
C246   C     0.20223   0.52179   0.03206   0.00000  Uiso   1.00
C247   C     0.32277   0.46366   0.11146   0.00000  Uiso   1.00
C248   C     0.30504   0.47612   0.06605   0.00000  Uiso   1.00
C249   C     0.28398   0.44757   0.03021   0.00000  Uiso   1.00
C250   C     0.16699   0.57941   0.16813   0.00000  Uiso   1.00
C251   C     0.28095   0.40671   0.03973   0.00000  Uiso   1.00
C252   C     0.29724   0.39434   0.08532   0.00000  Uiso   1.00
C253   C     0.31824   0.42271   0.12119   0.00000  Uiso   1.00
C254   C     0.01056   0.53635   0.22187   0.00000  Uiso   1.00
C255   C     0.01506   0.57730   0.21214   0.00000  Uiso   1.00
C256   C     0.03605   0.60567   0.24801   0.00000  Uiso   1.00
C257   C     0.05234   0.59330   0.29360   0.00000  Uiso   1.00
C258   C     0.04934   0.55244   0.30312   0.00000  Uiso   1.00
C259   C     0.02830   0.52388   0.26728   0.00000  Uiso   1.00
C260   C     0.12322   0.36426   0.07785   0.00000  Uiso   1.00
C261   C     0.06795   0.49955   0.15449   0.00000  Uiso   1.00
C262   C     0.07313   0.35918   0.05433   0.00000  Uiso   1.00
C263   C     0.06165   0.36208   0.00520   0.00000  Uiso   1.00
C264   C     0.09975   0.37136   0.31269   0.00000  Uiso   1.00
C265   C     0.14909   0.37860   0.00270   0.00000  Uiso   1.00
C266   C     0.16076   0.37453   0.05148   0.00000  Uiso   1.00
C267   C     0.21008   0.63575   0.25549   0.00000  Uiso   1.00
C268   C     0.17252   0.62545   0.28184   0.00000  Uiso   1.00
C269   C     0.18417   0.62137   0.33062   0.00000  Uiso   1.00
C270   C     0.23350   0.62863   0.02066   0.00000  Uiso   1.00
C271   C     0.27161   0.63792   0.32818   0.00000  Uiso   1.00
C272   C     0.26538   0.50045   0.17884   0.00000  Uiso   1.00
C273   C     0.26017   0.64084   0.27904   0.00000  Uiso   1.00
C274   C     0.01288   0.49336   0.14922   0.00000  Uiso   1.00
C275   C     0.32046   0.50664   0.18411   0.00000  Uiso   1.00
C276   C     0.13913   0.35045   0.12648   0.00000  Uiso   1.00
C277   C     0.19419   0.64955   0.20686   0.00000  Uiso   1.00
C278   C     0.13460   0.64182   0.13249   0.00000  Uiso   1.00
Cu279  Cu    0.16667   0.50001   0.21355   0.00000  Uiso   1.00
Cu280  Cu    0.16667   0.49999   0.11978   0.00000  Uiso   1.00
H281   H     0.10259   0.46068   0.27694   0.00000  Uiso   1.00
H282   H     0.06770   0.61534   0.32146   0.00000  Uiso   1.00
H283   H     0.06191   0.54315   0.00519   0.00000  Uiso   1.00
H284   H     0.02406   0.49241   0.27511   0.00000  Uiso   1.00
H285   H     0.04350   0.35113   0.07372   0.00000  Uiso   1.00
H286   H     0.02325   0.35824   0.32043   0.00000  Uiso   1.00
H287   H     0.09085   0.37392   0.27485   0.00000  Uiso   1.00
H288   H     0.17838   0.38627   0.31602   0.00000  Uiso   1.00
H289   H     0.19937   0.37734   0.06871   0.00000  Uiso   1.00
H290   H     0.13393   0.62262   0.26459   0.00000  Uiso   1.00
H291   H     0.15487   0.61368   0.01728   0.00000  Uiso   1.00
H292   H     0.23075   0.53932   0.05639   0.00000  Uiso   1.00
H293   H     0.24238   0.62606   0.05850   0.00000  Uiso   1.00
H294   H     0.31000   0.64178   0.01296   0.00000  Uiso   1.00
H295   H     0.28980   0.64889   0.25968   0.00000  Uiso   1.00
H296   H     0.30929   0.50759   0.05822   0.00000  Uiso   1.00
H297   H     0.27141   0.45686   0.32814   0.00000  Uiso   1.00
H298   H     0.26557   0.38468   0.01187   0.00000  Uiso   1.00
H299   H     0.29376   0.36271   0.09278   0.00000  Uiso   1.00
H300   H     0.33134   0.41283   0.15633   0.00000  Uiso   1.00
H301   H     0.00196   0.58717   0.17700   0.00000  Uiso   1.00
H302   H     0.03950   0.63730   0.24056   0.00000  Uiso   1.00
N303   N     0.16668   0.50001   0.28403   0.00000  Uiso   1.00
N304   N     0.16665   0.49999   0.04931   0.00000  Uiso   1.00
O305   O     0.16666   0.43989   0.20625   0.00000  Uiso   1.00
O306   O     0.16667   0.56011   0.12709   0.00000  Uiso   1.00
O307   O     0.16666   0.43988   0.12706   0.00000  Uiso   1.00
O308   O     0.16667   0.56012   0.20628   0.00000  Uiso   1.00
O309   O     0.09161   0.50000   0.19712   0.00000  Uiso   1.00
O310   O     0.24172   0.50000   0.13621   0.00000  Uiso   1.00
O311   O     0.09161   0.49999   0.11793   0.00000  Uiso   1.00
O312   O     0.24172   0.50001   0.21540   0.00000  Uiso   1.00
Br313  Br    0.41654   0.60783   0.09165   0.00000  Uiso   1.00
Br314  Br    0.58346   0.39217   0.24168   0.00000  Uiso   1.00
Br315  Br    0.40664   0.45384   0.03402   0.00000  Uiso   1.00
Br316  Br    0.59335   0.54617   0.29931   0.00000  Uiso   1.00
C317   C     0.49968   0.42059   0.16521   0.00000  Uiso   1.00
C318   C     0.53207   0.35818   0.20084   0.00000  Uiso   1.00
C319   C     0.49782   0.62423   0.17040   0.00000  Uiso   1.00
C320   C     0.50217   0.37577   0.16293   0.00000  Uiso   1.00
C321   C     0.46364   0.47899   0.01694   0.00000  Uiso   1.00
C322   C     0.53636   0.52101   0.31639   0.00000  Uiso   1.00
C323   C     0.46444   0.47821   0.30127   0.00000  Uiso   1.00
C324   C     0.53556   0.52179   0.03206   0.00000  Uiso   1.00
C325   C     0.65611   0.46366   0.11146   0.00000  Uiso   1.00
C326   C     0.63837   0.47612   0.06605   0.00000  Uiso   1.00
C327   C     0.61731   0.44757   0.03021   0.00000  Uiso   1.00
C328   C     0.50032   0.57941   0.16813   0.00000  Uiso   1.00
C329   C     0.61429   0.40671   0.03973   0.00000  Uiso   1.00
C330   C     0.63057   0.39434   0.08532   0.00000  Uiso   1.00
C331   C     0.65158   0.42271   0.12119   0.00000  Uiso   1.00
C332   C     0.34389   0.53635   0.22187   0.00000  Uiso   1.00
C333   C     0.34840   0.57730   0.21214   0.00000  Uiso   1.00
C334   C     0.36938   0.60567   0.24801   0.00000  Uiso   1.00
C335   C     0.38567   0.59330   0.29360   0.00000  Uiso   1.00
C336   C     0.38267   0.55244   0.30312   0.00000  Uiso   1.00
C337   C     0.36163   0.52388   0.26728   0.00000  Uiso   1.00
C338   C     0.45655   0.36426   0.07785   0.00000  Uiso   1.00
C339   C     0.40129   0.49955   0.15449   0.00000  Uiso   1.00
C340   C     0.40646   0.35918   0.05433   0.00000  Uiso   1.00
C341   C     0.39499   0.36208   0.00520   0.00000  Uiso   1.00
C342   C     0.43308   0.37136   0.31269   0.00000  Uiso   1.00
C343   C     0.48243   0.37860   0.00270   0.00000  Uiso   1.00
C344   C     0.49410   0.37453   0.05148   0.00000  Uiso   1.00
C345   C     0.54342   0.63575   0.25549   0.00000  Uiso   1.00
C346   C     0.50586   0.62545   0.28184   0.00000  Uiso   1.00
C347   C     0.51750   0.62137   0.33062   0.00000  Uiso   1.00
C348   C     0.56684   0.62863   0.02066   0.00000  Uiso   1.00
C349   C     0.60494   0.63792   0.32818   0.00000  Uiso   1.00
C350   C     0.59871   0.50045   0.17884   0.00000  Uiso   1.00
C351   C     0.59350   0.64084   0.27904   0.00000  Uiso   1.00
C352   C     0.34621   0.49336   0.14922   0.00000  Uiso   1.00
C353   C     0.65379   0.50664   0.18411   0.00000  Uiso   1.00
C354   C     0.47246   0.35045   0.12648   0.00000  Uiso   1.00
C355   C     0.52753   0.64955   0.20686   0.00000  Uiso   1.00
C356   C     0.46793   0.64182   0.13249   0.00000  Uiso   1.00
Cu357  Cu    0.50000   0.50001   0.21355   0.00000  Uiso   1.00
Cu358  Cu    0.50000   0.49999   0.11978   0.00000  Uiso   1.00
H359   H     0.43592   0.46068   0.27694   0.00000  Uiso   1.00
H360   H     0.40104   0.61534   0.32146   0.00000  Uiso   1.00
H361   H     0.39525   0.54315   0.00519   0.00000  Uiso   1.00
H362   H     0.35739   0.49241   0.27511   0.00000  Uiso   1.00
H363   H     0.37684   0.35113   0.07372   0.00000  Uiso   1.00
H364   H     0.35659   0.35824   0.32043   0.00000  Uiso   1.00
H365   H     0.42418   0.37392   0.27485   0.00000  Uiso   1.00
H366   H     0.51172   0.38627   0.31602   0.00000  Uiso   1.00
H367   H     0.53270   0.37734   0.06871   0.00000  Uiso   1.00
H368   H     0.46726   0.62262   0.26459   0.00000  Uiso   1.00
H369   H     0.48820   0.61368   0.01728   0.00000  Uiso   1.00
H370   H     0.56408   0.53932   0.05639   0.00000  Uiso   1.00
H371   H     0.57571   0.62606   0.05850   0.00000  Uiso   1.00
H372   H     0.64334   0.64178   0.01296   0.00000  Uiso   1.00
H373   H     0.62314   0.64889   0.25968   0.00000  Uiso   1.00
H374   H     0.64262   0.50759   0.05822   0.00000  Uiso   1.00
H375   H     0.60475   0.45686   0.32814   0.00000  Uiso   1.00
H376   H     0.59890   0.38468   0.01187   0.00000  Uiso   1.00
H377   H     0.62710   0.36271   0.09278   0.00000  Uiso   1.00
H378   H     0.66467   0.41283   0.15633   0.00000  Uiso   1.00
H379   H     0.33529   0.58717   0.17700   0.00000  Uiso   1.00
H380   H     0.37284   0.63730   0.24056   0.00000  Uiso   1.00
N381   N     0.50001   0.50001   0.28403   0.00000  Uiso   1.00
N382   N     0.49999   0.49999   0.04931   0.00000  Uiso   1.00
O383   O     0.50000   0.43989   0.20625   0.00000  Uiso   1.00
O384   O     0.50000   0.56011   0.12709   0.00000  Uiso   1.00
O385   O     0.50000   0.43988   0.12706   0.00000  Uiso   1.00
O386   O     0.50000   0.56012   0.20628   0.00000  Uiso   1.00
O387   O     0.42495   0.50000   0.19712   0.00000  Uiso   1.00
O388   O     0.57505   0.50000   0.13621   0.00000  Uiso   1.00
O389   O     0.42494   0.49999   0.11793   0.00000  Uiso   1.00
O390   O     0.57506   0.50001   0.21540   0.00000  Uiso   1.00
Br391  Br    0.74987   0.60783   0.09165   0.00000  Uiso   1.00
Br392  Br    0.91679   0.39217   0.24168   0.00000  Uiso   1.00
Br393  Br    0.73997   0.45384   0.03402   0.00000  Uiso   1.00
Br394  Br    0.92669   0.54617   0.29931   0.00000  Uiso   1.00
C395   C     0.83301   0.42059   0.16521   0.00000  Uiso   1.00
C396   C     0.86540   0.35818   0.20084   0.00000  Uiso   1.00
C397   C     0.83116   0.62423   0.17040   0.00000  Uiso   1.00
C398   C     0.83551   0.37577   0.16293   0.00000  Uiso   1.00
C399   C     0.79698   0.47899   0.01694   0.00000  Uiso   1.00
C400   C     0.86969   0.52101   0.31639   0.00000  Uiso   1.00
C401   C     0.79777   0.47821   0.30127   0.00000  Uiso   1.00
C402   C     0.86889   0.52179   0.03206   0.00000  Uiso   1.00
C403   C     0.98944   0.46366   0.11146   0.00000  Uiso   1.00
C404   C     0.97170   0.47612   0.06605   0.00000  Uiso   1.00
C405   C     0.95065   0.44757   0.03021   0.00000  Uiso   1.00
C406   C     0.83366   0.57941   0.16813   0.00000  Uiso   1.00
C407   C     0.94762   0.40671   0.03973   0.00000  Uiso   1.00
C408   C     0.96390   0.39434   0.08532   0.00000  Uiso   1.00
C409   C     0.98491   0.42271   0.12119   0.00000  Uiso   1.00
C410   C     0.67722   0.53635   0.22187   0.00000  Uiso   1.00
C411   C     0.68173   0.57730   0.21214   0.00000  Uiso   1.00
C412   C     0.70272   0.60567   0.24801   0.00000  Uiso   1.00
C413   C     0.71900   0.59330   0.29360   0.00000  Uiso   1.00
C414   C     0.71601   0.55244   0.30312   0.00000  Uiso   1.00
C415   C     0.69497   0.52388   0.26728   0.00000  Uiso   1.00
C416   C     0.78989   0.36426   0.07785   0.00000  Uiso   1.00
C417   C     0.73462   0.49955   0.15449   0.00000  Uiso   1.00
C418   C     0.73979   0.35918   0.05433   0.00000  Uiso   1.00
C419   C     0.72832   0.36208   0.00520   0.00000  Uiso   1.00
C420   C     0.76641   0.37136   0.31269   0.00000  Uiso   1.00
C421   C     0.81576   0.37860   0.00270   0.00000  Uiso   1.00
C422   C     0.82743   0.37453   0.05148   0.00000  Uiso   1.00
C423   C     0.87675   0.63575   0.25549   0.00000  Uiso   1.00
C424   C     0.83919   0.62545   0.28184   0.00000  Uiso   1.00
C425   C     0.85084   0.62137   0.33062   0.00000  Uiso   1.00
C426   C     0.90017   0.62863   0.02066   0.00000  Uiso   1.00
C427   C     0.93828   0.63792   0.32818   0.00000  Uiso   1.00
C428   C     0.93204   0.50045   0.17884   0.00000  Uiso   1.00
C429   C     0.92683   0.64084   0.27904   0.00000  Uiso   1.00
C430   C     0.67954   0.49336   0.14922   0.00000  Uiso   1.00
C431   C     0.98712   0.50664   0.18411   0.00000  Uiso   1.00
C432   C     0.80580   0.35045   0.12648   0.00000  Uiso   1.00
C433   C     0.86086   0.64955   0.20686   0.00000  Uiso   1.00
C434   C     0.80126   0.64182   0.13249   0.00000  Uiso   1.00
Cu435  Cu    0.83333   0.50001   0.21355   0.00000  Uiso   1.00
Cu436  Cu    0.83333   0.49999   0.11978   0.00000  Uiso   1.00
H437   H     0.76925   0.46068   0.27694   0.00000  Uiso   1.00
H438   H     0.73437   0.61534   0.32146   0.00000  Uiso   1.00
H439   H     0.72858   0.54315   0.00519   0.00000  Uiso   1.00
H440   H     0.69073   0.49241   0.27511   0.00000  Uiso   1.00
H441   H     0.71017   0.35113   0.07372   0.00000  Uiso   1.00
H442   H     0.68992   0.35824   0.32043   0.00000  Uiso   1.00
H443   H     0.75751   0.37392   0.27485   0.00000  Uiso   1.00
H444   H     0.84505   0.38627   0.31602   0.00000  Uiso   1.00
H445   H     0.86603   0.37734   0.06871   0.00000  Uiso   1.00
H446   H     0.80060   0.62262   0.26459   0.00000  Uiso   1.00
H447   H     0.82153   0.61368   0.01728   0.00000  Uiso   1.00
H448   H     0.89742   0.53932   0.05639   0.00000  Uiso   1.00
H449   H     0.90905   0.62606   0.05850   0.00000  Uiso   1.00
H450   H     0.97667   0.64178   0.01296   0.00000  Uiso   1.00
H451   H     0.95647   0.64889   0.25968   0.00000  Uiso   1.00
H452   H     0.97596   0.50759   0.05822   0.00000  Uiso   1.00
H453   H     0.93808   0.45686   0.32814   0.00000  Uiso   1.00
H454   H     0.93224   0.38468   0.01187   0.00000  Uiso   1.00
H455   H     0.96043   0.36271   0.09278   0.00000  Uiso   1.00
H456   H     0.99800   0.41283   0.15633   0.00000  Uiso   1.00
H457   H     0.66863   0.58717   0.17700   0.00000  Uiso   1.00
H458   H     0.70617   0.63730   0.24056   0.00000  Uiso   1.00
N459   N     0.83335   0.50001   0.28403   0.00000  Uiso   1.00
N460   N     0.83332   0.49999   0.04931   0.00000  Uiso   1.00
O461   O     0.83333   0.43989   0.20625   0.00000  Uiso   1.00
O462   O     0.83334   0.56011   0.12709   0.00000  Uiso   1.00
O463   O     0.83333   0.43988   0.12706   0.00000  Uiso   1.00
O464   O     0.83334   0.56012   0.20628   0.00000  Uiso   1.00
O465   O     0.75828   0.50000   0.19712   0.00000  Uiso   1.00
O466   O     0.90839   0.50000   0.13621   0.00000  Uiso   1.00
O467   O     0.75828   0.49999   0.11793   0.00000  Uiso   1.00
O468   O     0.90839   0.50001   0.21540   0.00000  Uiso   1.00
Br469  Br    0.08320   0.94116   0.09165   0.00000  Uiso   1.00
Br470  Br    0.25013   0.72551   0.24168   0.00000  Uiso   1.00
Br471  Br    0.07331   0.78717   0.03402   0.00000  Uiso   1.00
Br472  Br    0.26002   0.87951   0.29931   0.00000  Uiso   1.00
C473   C     0.16634   0.75393   0.16521   0.00000  Uiso   1.00
C474   C     0.19873   0.69151   0.20084   0.00000  Uiso   1.00
C475   C     0.16449   0.95756   0.17040   0.00000  Uiso   1.00
C476   C     0.16884   0.70911   0.16293   0.00000  Uiso   1.00
C477   C     0.13031   0.81232   0.01694   0.00000  Uiso   1.00
C478   C     0.20302   0.85435   0.31639   0.00000  Uiso   1.00
C479   C     0.13111   0.81154   0.30127   0.00000  Uiso   1.00
C480   C     0.20223   0.85513   0.03206   0.00000  Uiso   1.00
C481   C     0.32277   0.79699   0.11146   0.00000  Uiso   1.00
C482   C     0.30504   0.80946   0.06605   0.00000  Uiso   1.00
C483   C     0.28398   0.78090   0.03021   0.00000  Uiso   1.00
C484   C     0.16699   0.91274   0.16813   0.00000  Uiso   1.00
C485   C     0.28095   0.74005   0.03973   0.00000  Uiso   1.00
C486   C     0.29724   0.72767   0.08532   0.00000  Uiso   1.00
C487   C     0.31824   0.75604   0.12119   0.00000  Uiso   1.00
C488   C     0.01056   0.86968   0.22187   0.00000  Uiso   1.00
C489   C     0.01506   0.91063   0.21214   0.00000  Uiso   1.00
C490   C     0.03605   0.93900   0.24801   0.00000  Uiso   1.00
C491   C     0.05234   0.92663   0.29360   0.00000  Uiso   1.00
C492   C     0.04934   0.88578   0.30312   0.00000  Uiso   1.00
C493   C     0.02830   0.85722   0.26728   0.00000  Uiso   1.00
C494   C     0.12322   0.69759   0.07785   0.00000  Uiso   1.00
C495   C     0.06795   0.83288   0.15449   0.00000  Uiso   1.00
C496   C     0.07313   0.69251   0.05433   0.00000  Uiso   1.00
C497   C     0.06165   0.69542   0.00520   0.00000  Uiso   1.00
C498   C     0.09975   0.70469   0.31269   0.00000  Uiso   1.00
C499   C     0.14909   0.71194   0.00270   0.00000  Uiso   1.00
C500   C     0.16076   0.70786   0.05148   0.00000  Uiso   1.00
C501   C     0.21008   0.96908   0.25549   0.00000  Uiso   1.00
C502   C     0.17252   0.95878   0.28184   0.00000  Uiso   1.00
C503   C     0.18417   0.95470   0.33062   0.00000  Uiso   1.00
C504   C     0.23350   0.96196   0.02066   0.00000  Uiso   1.00
C505   C     0.27161   0.97126   0.32818   0.00000  Uiso   1.00
C506   C     0.26538   0.83379   0.17884   0.00000  Uiso   1.00
C507   C     0.26017   0.97417   0.27904   0.00000  Uiso   1.00
C508   C     0.01288   0.82670   0.14922   0.00000  Uiso   1.00
C509   C     0.32046   0.83997   0.18411   0.00000  Uiso   1.00
C510   C     0.13913   0.68378   0.12648   0.00000  Uiso   1.00
C511   C     0.19419   0.98289   0.20686   0.00000  Uiso   1.00
C512   C     0.13460   0.97516   0.13249   0.00000  Uiso   1.00
Cu513  Cu    0.16667   0.83334   0.21355   0.00000  Uiso   1.00
Cu514  Cu    0.16667   0.83333   0.11978   0.00000  Uiso   1.00
H515   H     0.10259   0.79401   0.27694   0.00000  Uiso   1.00
H516   H     0.06770   0.94867   0.32146   0.00000  Uiso   1.00
H517   H     0.06191   0.87648   0.00519   0.00000  Uiso   1.00
H518   H     0.02406   0.82575   0.27511   0.00000  Uiso   1.00
H519   H     0.04350   0.68446   0.07372   0.00000  Uiso   1.00
H520   H     0.02325   0.69157   0.32043   0.00000  Uiso   1.00
H521   H     0.09085   0.70725   0.27485   0.00000  Uiso   1.00
H522   H     0.17838   0.71960   0.31602   0.00000  Uiso   1.00
H523   H     0.19937   0.71068   0.06871   0.00000  Uiso   1.00
H524   H     0.13393   0.95595   0.26459   0.00000  Uiso   1.00
H525   H     0.15487   0.94702   0.01728   0.00000  Uiso   1.00
H526   H     0.23075   0.87265   0.05639   0.00000  Uiso   1.00
H527   H     0.24238   0.95940   0.05850   0.00000  Uiso   1.00
H528   H     0.31000   0.97511   0.01296   0.00000  Uiso   1.00
H529   H     0.28980   0.98223   0.25968   0.00000  Uiso   1.00
H530   H     0.30929   0.84092   0.05822   0.00000  Uiso   1.00
H531   H     0.27141   0.79020   0.32814   0.00000  Uiso   1.00
H532   H     0.26557   0.71801   0.01187   0.00000  Uiso   1.00
H533   H     0.29376   0.69605   0.09278   0.00000  Uiso   1.00
H534   H     0.33134   0.74616   0.15633   0.00000  Uiso   1.00
H535   H     0.00196   0.92051   0.17700   0.00000  Uiso   1.00
H536   H     0.03950   0.97063   0.24056   0.00000  Uiso   1.00
N537   N     0.16668   0.83334   0.28403   0.00000  Uiso   1.00
N538   N     0.16665   0.83332   0.04931   0.00000  Uiso   1.00
O539   O     0.16666   0.77322   0.20625   0.00000  Uiso   1.00
O540   O     0.16667   0.89345   0.12709   0.00000  Uiso   1.00
O541   O     0.16666   0.77321   0.12706   0.00000  Uiso   1.00
O542   O     0.16667   0.89346   0.20628   0.00000  Uiso   1.00
O543   O     0.09161   0.83334   0.19712   0.00000  Uiso   1.00
O544   O     0.24172   0.83333   0.13621   0.00000  Uiso   1.00
O545   O     0.09161   0.83333   0.11793   0.00000  Uiso   1.00
O546   O     0.24172   0.83334   0.21540   0.00000  Uiso   1.00
Br547  Br    0.41654   0.94116   0.09165   0.00000  Uiso   1.00
Br548  Br    0.58346   0.72551   0.24168   0.00000  Uiso   1.00
Br549  Br    0.40664   0.78717   0.03402   0.00000  Uiso   1.00
Br550  Br    0.59335   0.87951   0.29931   0.00000  Uiso   1.00
C551   C     0.49968   0.75393   0.16521   0.00000  Uiso   1.00
C552   C     0.53207   0.69151   0.20084   0.00000  Uiso   1.00
C553   C     0.49782   0.95756   0.17040   0.00000  Uiso   1.00
C554   C     0.50217   0.70911   0.16293   0.00000  Uiso   1.00
C555   C     0.46364   0.81232   0.01694   0.00000  Uiso   1.00
C556   C     0.53636   0.85435   0.31639   0.00000  Uiso   1.00
C557   C     0.46444   0.81154   0.30127   0.00000  Uiso   1.00
C558   C     0.53556   0.85513   0.03206   0.00000  Uiso   1.00
C559   C     0.65611   0.79699   0.11146   0.00000  Uiso   1.00
C560   C     0.63837   0.80946   0.06605   0.00000  Uiso   1.00
C561   C     0.61731   0.78090   0.03021   0.00000  Uiso   1.00
C562   C     0.50032   0.91274   0.16813   0.00000  Uiso   1.00
C563   C     0.61429   0.74005   0.03973   0.00000  Uiso   1.00
C564   C     0.63057   0.72767   0.08532   0.00000  Uiso   1.00
C565   C     0.65158   0.75604   0.12119   0.00000  Uiso   1.00
C566   C     0.34389   0.86968   0.22187   0.00000  Uiso   1.00
C567   C     0.34840   0.91063   0.21214   0.00000  Uiso   1.00
C568   C     0.36938   0.93900   0.24801   0.00000  Uiso   1.00
C569   C     0.38567   0.92663   0.29360   0.00000  Uiso   1.00
C570   C     0.38267   0.88578   0.30312   0.00000  Uiso   1.00
C571   C     0.36163   0.85722   0.26728   0.00000  Uiso   1.00
C572   C     0.45655   0.69759   0.07785   0.00000  Uiso   1.00
C573   C     0.40129   0.83288   0.15449   0.00000  Uiso   1.00
C574   C     0.40646   0.69251   0.05433   0.00000  Uiso   1.00
C575   C     0.39499   0.69542   0.00520   0.00000  Uiso   1.00
C576   C     0.43308   0.70469   0.31269   0.00000  Uiso   1.00
C577   C     0.48243   0.71194   0.00270   0.00000  Uiso   1.00
C578   C     0.49410   0.70786   0.05148   0.00000  Uiso   1.00
C579   C     0.54342   0.96908   0.25549   0.00000  Uiso   1.00
C580   C     0.50586   0.95878   0.28184   0.00000  Uiso   1.00
C581   C     0.51750   0.95470   0.33062   0.00000  Uiso   1.00
C582   C     0.56684   0.96196   0.02066   0.00000  Uiso   1.00
C583   C     0.60494   0.97126   0.32818   0.00000  Uiso   1.00
C584   C     0.59871   0.83379   0.17884   0.00000  Uiso   1.00
C585   C     0.59350   0.97417   0.27904   0.00000  Uiso   1.00
C586   C     0.34621   0.82670   0.14922   0.00000  Uiso   1.00
C587   C     0.65379   0.83997   0.18411   0.00000  Uiso   1.00
C588   C     0.47246   0.68378   0.12648   0.00000  Uiso   1.00
C589   C     0.52753   0.98289   0.20686   0.00000  Uiso   1.00
C590   C     0.46793   0.97516   0.13249   0.00000  Uiso   1.00
Cu591  Cu    0.50000   0.83334   0.21355   0.00000  Uiso   1.00
Cu592  Cu    0.50000   0.83333   0.11978   0.00000  Uiso   1.00
H593   H     0.43592   0.79401   0.27694   0.00000  Uiso   1.00
H594   H     0.40104   0.94867   0.32146   0.00000  Uiso   1.00
H595   H     0.39525   0.87648   0.00519   0.00000  Uiso   1.00
H596   H     0.35739   0.82575   0.27511   0.00000  Uiso   1.00
H597   H     0.37684   0.68446   0.07372   0.00000  Uiso   1.00
H598   H     0.35659   0.69157   0.32043   0.00000  Uiso   1.00
H599   H     0.42418   0.70725   0.27485   0.00000  Uiso   1.00
H600   H     0.51172   0.71960   0.31602   0.00000  Uiso   1.00
H601   H     0.53270   0.71068   0.06871   0.00000  Uiso   1.00
H602   H     0.46726   0.95595   0.26459   0.00000  Uiso   1.00
H603   H     0.48820   0.94702   0.01728   0.00000  Uiso   1.00
H604   H     0.56408   0.87265   0.05639   0.00000  Uiso   1.00
H605   H     0.57571   0.95940   0.05850   0.00000  Uiso   1.00
H606   H     0.64334   0.97511   0.01296   0.00000  Uiso   1.00
H607   H     0.62314   0.98223   0.25968   0.00000  Uiso   1.00
H608   H     0.64262   0.84092   0.05822   0.00000  Uiso   1.00
H609   H     0.60475   0.79020   0.32814   0.00000  Uiso   1.00
H610   H     0.59890   0.71801   0.01187   0.00000  Uiso   1.00
H611   H     0.62710   0.69605   0.09278   0.00000  Uiso   1.00
H612   H     0.66467   0.74616   0.15633   0.00000  Uiso   1.00
H613   H     0.33529   0.92051   0.17700   0.00000  Uiso   1.00
H614   H     0.37284   0.97063   0.24056   0.00000  Uiso   1.00
N615   N     0.50001   0.83334   0.28403   0.00000  Uiso   1.00
N616   N     0.49999   0.83332   0.04931   0.00000  Uiso   1.00
O617   O     0.50000   0.77322   0.20625   0.00000  Uiso   1.00
O618   O     0.50000   0.89345   0.12709   0.00000  Uiso   1.00
O619   O     0.50000   0.77321   0.12706   0.00000  Uiso   1.00
O620   O     0.50000   0.89346   0.20628   0.00000  Uiso   1.00
O621   O     0.42495   0.83334   0.19712   0.00000  Uiso   1.00
O622   O     0.57505   0.83333   0.13621   0.00000  Uiso   1.00
O623   O     0.42494   0.83333   0.11793   0.00000  Uiso   1.00
O624   O     0.57506   0.83334   0.21540   0.00000  Uiso   1.00
Br625  Br    0.74987   0.94116   0.09165   0.00000  Uiso   1.00
Br626  Br    0.91679   0.72551   0.24168   0.00000  Uiso   1.00
Br627  Br    0.73997   0.78717   0.03402   0.00000  Uiso   1.00
Br628  Br    0.92669   0.87951   0.29931   0.00000  Uiso   1.00
C629   C     0.83301   0.75393   0.16521   0.00000  Uiso   1.00
C630   C     0.86540   0.69151   0.20084   0.00000  Uiso   1.00
C631   C     0.83116   0.95756   0.17040   0.00000  Uiso   1.00
C632   C     0.83551   0.70911   0.16293   0.00000  Uiso   1.00
C633   C     0.79698   0.81232   0.01694   0.00000  Uiso   1.00
C634   C     0.86969   0.85435   0.31639   0.00000  Uiso   1.00
C635   C     0.79777   0.81154   0.30127   0.00000  Uiso   1.00
C636   C     0.86889   0.85513   0.03206   0.00000  Uiso   1.00
C637   C     0.98944   0.79699   0.11146   0.00000  Uiso   1.00
C638   C     0.97170   0.80946   0.06605   0.00000  Uiso   1.00
C639   C     0.95065   0.78090   0.03021   0.00000  Uiso   1.00
C640   C     0.83366   0.91274   0.16813   0.00000  Uiso   1.00
C641   C     0.94762   0.74005   0.03973   0.00000  Uiso   1.00
C642   C     0.96390   0.72767   0.08532   0.00000  Uiso   1.00
C643   C     0.98491   0.75604   0.12119   0.00000  Uiso   1.00
C644   C     0.67722   0.86968   0.22187   0.00000  Uiso   1.00
C645   C     0.68173   0.91063   0.21214   0.00000  Uiso   1.00
C646   C     0.70272   0.93900   0.24801   0.00000  Uiso   1.00
C647   C     0.71900   0.92663   0.29360   0.00000  Uiso   1.00
C648   C     0.71601   0.88578   0.30312   0.00000  Uiso   1.00
C649   C     0.69497   0.85722   0.26728   0.00000  Uiso   1.00
C650   C     0.78989   0.69759   0.07785   0.00000  Uiso   1.00
C651   C     0.73462   0.83288   0.15449   0.00000  Uiso   1.00
C652   C     0.73979   0.69251   0.05433   0.00000  Uiso   1.00
C653   C     0.72832   0.69542   0.00520   0.00000  Uiso   1.00
C654   C     0.76641   0.70469   0.31269   0.00000  Uiso   1.00
C655   C     0.81576   0.71194   0.00270   0.00000  Uiso   1.00
C656   C     0.82743   0.70786   0.05148   0.00000  Uiso   1.00
C657   C     0.87675   0.96908   0.25549   0.00000  Uiso   1.00
C658   C     0.83919   0.95878   0.28184   0.00000  Uiso   1.00
C659   C     0.85084   0.95470   0.33062   0.00000  Uiso   1.00
C660   C     0.90017   0.96196   0.02066   0.00000  Uiso   1.00
C661   C     0.93828   0.97126   0.32818   0.00000  Uiso   1.00
C662   C     0.93204   0.83379   0.17884   0.00000  Uiso   1.00
C663   C     0.92683   0.97417   0.27904   0.00000  Uiso   1.00
C664   C     0.67954   0.82670   0.14922   0.00000  Uiso   1.00
C665   C     0.98712   0.83997   0.18411   0.00000  Uiso   1.00
C666   C     0.80580   0.68378   0.12648   0.00000  Uiso   1.00
C667   C     0.86086   0.98289   0.20686   0.00000  Uiso   1.00
C668   C     0.80126   0.97516   0.13249   0.00000  Uiso   1.00
Cu669  Cu    0.83333   0.83334   0.21355   0.00000  Uiso   1.00
Cu670  Cu    0.83333   0.83333   0.11978   0.00000  Uiso   1.00
H671   H     0.76925   0.79401   0.27694   0.00000  Uiso   1.00
H672   H     0.73437   0.94867   0.32146   0.00000  Uiso   1.00
H673   H     0.72858   0.87648   0.00519   0.00000  Uiso   1.00
H674   H     0.69073   0.82575   0.27511   0.00000  Uiso   1.00
H675   H     0.71017   0.68446   0.07372   0.00000  Uiso   1.00
H676   H     0.68992   0.69157   0.32043   0.00000  Uiso   1.00
H677   H     0.75751   0.70725   0.27485   0.00000  Uiso   1.00
H678   H     0.84505   0.71960   0.31602   0.00000  Uiso   1.00
H679   H     0.86603   0.71068   0.06871   0.00000  Uiso   1.00
H680   H     0.80060   0.95595   0.26459   0.00000  Uiso   1.00
H681   H     0.82153   0.94702   0.01728   0.00000  Uiso   1.00
H682   H     0.89742   0.87265   0.05639   0.00000  Uiso   1.00
H683   H     0.90905   0.95940   0.05850   0.00000  Uiso   1.00
H684   H     0.97667   0.97511   0.01296   0.00000  Uiso   1.00
H685   H     0.95647   0.98223   0.25968   0.00000  Uiso   1.00
H686   H     0.97596   0.84092   0.05822   0.00000  Uiso   1.00
H687   H     0.93808   0.79020   0.32814   0.00000  Uiso   1.00
H688   H     0.93224   0.71801   0.01187   0.00000  Uiso   1.00
H689   H     0.96043   0.69605   0.09278   0.00000  Uiso   1.00
H690   H     0.99800   0.74616   0.15633   0.00000  Uiso   1.00
H691   H     0.66863   0.92051   0.17700   0.00000  Uiso   1.00
H692   H     0.70617   0.97063   0.24056   0.00000  Uiso   1.00
N693   N     0.83335   0.83334   0.28403   0.00000  Uiso   1.00
N694   N     0.83332   0.83332   0.04931   0.00000  Uiso   1.00
O695   O     0.83333   0.77322   0.20625   0.00000  Uiso   1.00
O696   O     0.83334   0.89345   0.12709   0.00000  Uiso   1.00
O697   O     0.83333   0.77321   0.12706   0.00000  Uiso   1.00
O698   O     0.83334   0.89346   0.20628   0.00000  Uiso   1.00
O699   O     0.75828   0.83334   0.19712   0.00000  Uiso   1.00
O700   O     0.90839   0.83333   0.13621   0.00000  Uiso   1.00
O701   O     0.75828   0.83333   0.11793   0.00000  Uiso   1.00
O702   O     0.90839   0.83334   0.21540   0.00000  Uiso   1.00
Br703  Br    0.08320   0.27449   0.42499   0.00000  Uiso   1.00
Br704  Br    0.25013   0.05884   0.57501   0.00000  Uiso   1.00
Br705  Br    0.07331   0.12050   0.36735   0.00000  Uiso   1.00
Br706  Br    0.26002   0.21284   0.63264   0.00000  Uiso   1.00
C707   C     0.16634   0.08726   0.49854   0.00000  Uiso   1.00
C708   C     0.19873   0.02484   0.53418   0.00000  Uiso   1.00
C709   C     0.16449   0.29089   0.50374   0.00000  Uiso   1.00
C710   C     0.16884   0.04244   0.49627   0.00000  Uiso   1.00
C711   C     0.13031   0.14565   0.35028   0.00000  Uiso   1.00
C712   C     0.20302   0.18768   0.64972   0.00000  Uiso   1.00
C713   C     0.13111   0.14487   0.63461   0.00000  Uiso   1.00
C714   C     0.20223   0.18846   0.36539   0.00000  Uiso   1.00
C715   C     0.32277   0.13032   0.44479   0.00000  Uiso   1.00
C716   C     0.30504   0.14279   0.39938   0.00000  Uiso   1.00
C717   C     0.28398   0.11423   0.36355   0.00000  Uiso   1.00
C718   C     0.16699   0.24607   0.50146   0.00000  Uiso   1.00
C719   C     0.28095   0.07338   0.37306   0.00000  Uiso   1.00
C720   C     0.29724   0.06101   0.41865   0.00000  Uiso   1.00
C721   C     0.31824   0.08937   0.45452   0.00000  Uiso   1.00
C722   C     0.01056   0.20301   0.55521   0.00000  Uiso   1.00
C723   C     0.01506   0.24396   0.54548   0.00000  Uiso   1.00
C724   C     0.03605   0.27234   0.58135   0.00000  Uiso   1.00
C725   C     0.05234   0.25996   0.62694   0.00000  Uiso   1.00
C726   C     0.04934   0.21911   0.63645   0.00000  Uiso   1.00
C727   C     0.02830   0.19055   0.60061   0.00000  Uiso   1.00
C728   C     0.12322   0.03092   0.41118   0.00000  Uiso   1.00
C729   C     0.06795   0.16621   0.48783   0.00000  Uiso   1.00
C730   C     0.07313   0.02584   0.38766   0.00000  Uiso   1.00
C731   C     0.06165   0.02875   0.33853   0.00000  Uiso   1.00
C732   C     0.09975   0.03802   0.64602   0.00000  Uiso   1.00
C733   C     0.14909   0.04527   0.33604   0.00000  Uiso   1.00
C734   C     0.16076   0.04120   0.38481   0.00000  Uiso   1.00
C735   C     0.21008   0.30241   0.58883   0.00000  Uiso   1.00
C736   C     0.17252   0.29212   0.61517   0.00000  Uiso   1.00
C737   C     0.18417   0.28804   0.66395   0.00000  Uiso   1.00
C738   C     0.23350   0.29530   0.35399   0.00000  Uiso   1.00
C739   C     0.27161   0.30459   0.66151   0.00000  Uiso   1.00
C740   C     0.26538   0.16712   0.51217   0.00000  Uiso   1.00
C741   C     0.26017   0.30750   0.61238   0.00000  Uiso   1.00
C742   C     0.01288   0.16003   0.48255   0.00000  Uiso   1.00
C743   C     0.32046   0.17330   0.51745   0.00000  Uiso   1.00
C744   C     0.13913   0.01712   0.45981   0.00000  Uiso   1.00
C745   C     0.19419   0.31622   0.54020   0.00000  Uiso   1.00
C746   C     0.13460   0.30849   0.46583   0.00000  Uiso   1.00
Cu747  Cu    0.16667   0.16667   0.54689   0.00000  Uiso   1.00
Cu748  Cu    0.16667   0.16666   0.45311   0.00000  Uiso   1.00
H749   H     0.10259   0.12735   0.61027   0.00000  Uiso   1.00
H750   H     0.06770   0.28201   0.65480   0.00000  Uiso   1.00
H751   H     0.06191   0.20982   0.33852   0.00000  Uiso   1.00
H752   H     0.02406   0.15908   0.60845   0.00000  Uiso   1.00
H753   H     0.04350   0.01780   0.40705   0.00000  Uiso   1.00
H754   H     0.02325   0.02491   0.65377   0.00000  Uiso   1.00
H755   H     0.09085   0.04058   0.60818   0.00000  Uiso   1.00
H756   H     0.17838   0.05293   0.64936   0.00000  Uiso   1.00
H757   H     0.19937   0.04401   0.40204   0.00000  Uiso   1.00
H758   H     0.13393   0.28929   0.59792   0.00000  Uiso   1.00
H759   H     0.15487   0.28035   0.35061   0.00000  Uiso   1.00
H760   H     0.23075   0.20599   0.38973   0.00000  Uiso   1.00
H761   H     0.24238   0.29273   0.39183   0.00000  Uiso   1.00
H762   H     0.31000   0.30845   0.34630   0.00000  Uiso   1.00
H763   H     0.28980   0.31556   0.59301   0.00000  Uiso   1.00
H764   H     0.30929   0.17426   0.39155   0.00000  Uiso   1.00
H765   H     0.27141   0.12353   0.66147   0.00000  Uiso   1.00
H766   H     0.26557   0.05134   0.34520   0.00000  Uiso   1.00
H767   H     0.29376   0.02938   0.42611   0.00000  Uiso   1.00
H768   H     0.33134   0.07950   0.48966   0.00000  Uiso   1.00
H769   H     0.00196   0.25384   0.51033   0.00000  Uiso   1.00
H770   H     0.03950   0.30396   0.57389   0.00000  Uiso   1.00
N771   N     0.16668   0.16668   0.61736   0.00000  Uiso   1.00
N772   N     0.16665   0.16666   0.38264   0.00000  Uiso   1.00
O773   O     0.16666   0.10655   0.53958   0.00000  Uiso   1.00
O774   O     0.16667   0.22678   0.46042   0.00000  Uiso   1.00
O775   O     0.16666   0.10654   0.46039   0.00000  Uiso   1.00
O776   O     0.16667   0.22679   0.53961   0.00000  Uiso   1.00
O777   O     0.09161   0.16667   0.53046   0.00000  Uiso   1.00
O778   O     0.24172   0.16666   0.46954   0.00000  Uiso   1.00
O779   O     0.09161   0.16666   0.45127   0.00000  Uiso   1.00
O780   O     0.24172   0.16667   0.54873   0.00000  Uiso   1.00
Br781  Br    0.41654   0.27449   0.42499   0.00000  Uiso   1.00
Br782  Br    0.58346   0.05884   0.57501   0.00000  Uiso   1.00
Br783  Br    0.40664   0.12050   0.36735   0.00000  Uiso   1.00
Br784  Br    0.59335   0.21284   0.63264   0.00000  Uiso   1.00
C785   C     0.49968   0.08726   0.49854   0.00000  Uiso   1.00
C786   C     0.53207   0.02484   0.53418   0.00000  Uiso   1.00
C787   C     0.49782   0.29089   0.50374   0.00000  Uiso   1.00
C788   C     0.50217   0.04244   0.49627   0.00000  Uiso   1.00
C789   C     0.46364   0.14565   0.35028   0.00000  Uiso   1.00
C790   C     0.53636   0.18768   0.64972   0.00000  Uiso   1.00
C791   C     0.46444   0.14487   0.63461   0.00000  Uiso   1.00
C792   C     0.53556   0.18846   0.36539   0.00000  Uiso   1.00
C793   C     0.65611   0.13032   0.44479   0.00000  Uiso   1.00
C794   C     0.63837   0.14279   0.39938   0.00000  Uiso   1.00
C795   C     0.61731   0.11423   0.36355   0.00000  Uiso   1.00
C796   C     0.50032   0.24607   0.50146   0.00000  Uiso   1.00
C797   C     0.61429   0.07338   0.37306   0.00000  Uiso   1.00
C798   C     0.63057   0.06101   0.41865   0.00000  Uiso   1.00
C799   C     0.65158   0.08937   0.45452   0.00000  Uiso   1.00
C800   C     0.34389   0.20301   0.55521   0.00000  Uiso   1.00
C801   C     0.34840   0.24396   0.54548   0.00000  Uiso   1.00
C802   C     0.36938   0.27234   0.58135   0.00000  Uiso   1.00
C803   C     0.38567   0.25996   0.62694   0.00000  Uiso   1.00
C804   C     0.38267   0.21911   0.63645   0.00000  Uiso   1.00
C805   C     0.36163   0.19055   0.60061   0.00000  Uiso   1.00
C806   C     0.45655   0.03092   0.41118   0.00000  Uiso   1.00
C807   C     0.40129   0.16621   0.48783   0.00000  Uiso   1.00
C808   C     0.40646   0.02584   0.38766   0.00000  Uiso   1.00
C809   C     0.39499   0.02875   0.33853   0.00000  Uiso   1.00
C810   C     0.43308   0.03802   0.64602   0.00000  Uiso   1.00
C811   C     0.48243   0.04527   0.33604   0.00000  Uiso   1.00
C812   C     0.49410   0.04120   0.38481   0.00000  Uiso   1.00
C813   C     0.54342   0.30241   0.58883   0.00000  Uiso   1.00
C814   C     0.50586   0.29212   0.61517   0.00000  Uiso   1.00
C815   C     0.51750   0.28804   0.66395   0.00000  Uiso   1.00
C816   C     0.56684   0.29530   0.35399   0.00000  Uiso   1.00
C817   C     0.60494   0.30459   0.66151   0.00000  Uiso   1.00
C818   C     0.59871   0.16712   0.51217   0.00000  Uiso   1.00
C819   C     0.59350   0.30750   0.61238   0.00000  Uiso   1.00
C820   C     0.34621   0.16003   0.48255   0.00000  Uiso   1.00
C821   C     0.65379   0.17330   0.51745   0.00000  Uiso   1.00
C822   C     0.47246   0.01712   0.45981   0.00000  Uiso   1.00
C823   C     0.52753   0.31622   0.54020   0.00000  Uiso   1.00
C824   C     0.46793   0.30849   0.46583   0.00000  Uiso   1.00
Cu825  Cu    0.50000   0.16667   0.54689   0.00000  Uiso   1.00
Cu826  Cu    0.50000   0.16666   0.45311   0.00000  Uiso   1.00
H827   H     0.43592   0.12735   0.61027   0.00000  Uiso   1.00
H828   H     0.40104   0.28201   0.65480   0.00000  Uiso   1.00
H829   H     0.39525   0.20982   0.33852   0.00000  Uiso   1.00
H830   H     0.35739   0.15908   0.60845   0.00000  Uiso   1.00
H831   H     0.37684   0.01780   0.40705   0.00000  Uiso   1.00
H832   H     0.35659   0.02491   0.65377   0.00000  Uiso   1.00
H833   H     0.42418   0.04058   0.60818   0.00000  Uiso   1.00
H834   H     0.51172   0.05293   0.64936   0.00000  Uiso   1.00
H835   H     0.53270   0.04401   0.40204   0.00000  Uiso   1.00
H836   H     0.46726   0.28929   0.59792   0.00000  Uiso   1.00
H837   H     0.48820   0.28035   0.35061   0.00000  Uiso   1.00
H838   H     0.56408   0.20599   0.38973   0.00000  Uiso   1.00
H839   H     0.57571   0.29273   0.39183   0.00000  Uiso   1.00
H840   H     0.64334   0.30845   0.34630   0.00000  Uiso   1.00
H841   H     0.62314   0.31556   0.59301   0.00000  Uiso   1.00
H842   H     0.64262   0.17426   0.39155   0.00000  Uiso   1.00
H843   H     0.60475   0.12353   0.66147   0.00000  Uiso   1.00
H844   H     0.59890   0.05134   0.34520   0.00000  Uiso   1.00
H845   H     0.62710   0.02938   0.42611   0.00000  Uiso   1.00
H846   H     0.66467   0.07950   0.48966   0.00000  Uiso   1.00
H847   H     0.33529   0.25384   0.51033   0.00000  Uiso   1.00
H848   H     0.37284   0.30396   0.57389   0.00000  Uiso   1.00
N849   N     0.50001   0.16668   0.61736   0.00000  Uiso   1.00
N850   N     0.49999   0.16666   0.38264   0.00000  Uiso   1.00
O851   O     0.50000   0.10655   0.53958   0.00000  Uiso   1.00
O852   O     0.50000   0.22678   0.46042   0.00000  Uiso   1.00
O853   O     0.50000   0.10654   0.46039   0.00000  Uiso   1.00
O854   O     0.50000   0.22679   0.53961   0.00000  Uiso   1.00
O855   O     0.42495   0.16667   0.53046   0.00000  Uiso   1.00
O856   O     0.57505   0.16666   0.46954   0.00000  Uiso   1.00
O857   O     0.42494   0.16666   0.45127   0.00000  Uiso   1.00
O858   O     0.57506   0.16667   0.54873   0.00000  Uiso   1.00
Br859  Br    0.74987   0.27449   0.42499   0.00000  Uiso   1.00
Br860  Br    0.91679   0.05884   0.57501   0.00000  Uiso   1.00
Br861  Br    0.73997   0.12050   0.36735   0.00000  Uiso   1.00
Br862  Br    0.92669   0.21284   0.63264   0.00000  Uiso   1.00
C863   C     0.83301   0.08726   0.49854   0.00000  Uiso   1.00
C864   C     0.86540   0.02484   0.53418   0.00000  Uiso   1.00
C865   C     0.83116   0.29089   0.50374   0.00000  Uiso   1.00
C866   C     0.83551   0.04244   0.49627   0.00000  Uiso   1.00
C867   C     0.79698   0.14565   0.35028   0.00000  Uiso   1.00
C868   C     0.86969   0.18768   0.64972   0.00000  Uiso   1.00
C869   C     0.79777   0.14487   0.63461   0.00000  Uiso   1.00
C870   C     0.86889   0.18846   0.36539   0.00000  Uiso   1.00
C871   C     0.98944   0.13032   0.44479   0.00000  Uiso   1.00
C872   C     0.97170   0.14279   0.39938   0.00000  Uiso   1.00
C873   C     0.95065   0.11423   0.36355   0.00000  Uiso   1.00
C874   C     0.83366   0.24607   0.50146   0.00000  Uiso   1.00
C875   C     0.94762   0.07338   0.37306   0.00000  Uiso   1.00
C876   C     0.96390   0.06101   0.41865   0.00000  Uiso   1.00
C877   C     0.98491   0.08937   0.45452   0.00000  Uiso   1.00
C878   C     0.67722   0.20301   0.55521   0.00000  Uiso   1.00
C879   C     0.68173   0.24396   0.54548   0.00000  Uiso   1.00
C880   C     0.70272   0.27234   0.58135   0.00000  Uiso   1.00
C881   C     0.71900   0.25996   0.62694   0.00000  Uiso   1.00
C882   C     0.71601   0.21911   0.63645   0.00000  Uiso   1.00
C883   C     0.69497   0.19055   0.60061   0.00000  Uiso   1.00
C884   C     0.78989   0.03092   0.41118   0.00000  Uiso   1.00
C885   C     0.73462   0.16621   0.48783   0.00000  Uiso   1.00
C886   C     0.73979   0.02584   0.38766   0.00000  Uiso   1.00
C887   C     0.72832   0.02875   0.33853   0.00000  Uiso   1.00
C888   C     0.76641   0.03802   0.64602   0.00000  Uiso   1.00
C889   C     0.81576   0.04527   0.33604   0.00000  Uiso   1.00
C890   C     0.82743   0.04120   0.38481   0.00000  Uiso   1.00
C891   C     0.87675   0.30241   0.58883   0.00000  Uiso   1.00
C892   C     0.83919   0.29212   0.61517   0.00000  Uiso   1.00
C893   C     0.85084   0.28804   0.66395   0.00000  Uiso   1.00
C894   C     0.90017   0.29530   0.35399   0.00000  Uiso   1.00
C895   C     0.93828   0.30459   0.66151   0.00000  Uiso   1.00
C896   C     0.93204   0.16712   0.51217   0.00000  Uiso   1.00
C897   C     0.92683   0.30750   0.61238   0.00000  Uiso   1.00
C898   C     0.67954   0.16003   0.48255   0.00000  Uiso   1.00
C899   C     0.98712   0.17330   0.51745   0.00000  Uiso   1.00
C900   C     0.80580   0.01712   0.45981   0.00000  Uiso   1.00
C901   C     0.86086   0.31622   0.54020   0.00000  Uiso   1.00
C902   C     0.80126   0.30849   0.46583   0.00000  Uiso   1.00
Cu903  Cu    0.83333   0.16667   0.54689   0.00000  Uiso   1.00
Cu904  Cu    0.83333   0.16666   0.45311   0.00000  Uiso   1.00
H905   H     0.76925   0.12735   0.61027   0.00000  Uiso   1.00
H906   H     0.73437   0.28201   0.65480   0.00000  Uiso   1.00
H907   H     0.72858   0.20982   0.33852   0.00000  Uiso   1.00
H908   H     0.69073   0.15908   0.60845   0.00000  Uiso   1.00
H909   H     0.71017   0.01780   0.40705   0.00000  Uiso   1.00
H910   H     0.68992   0.02491   0.65377   0.00000  Uiso   1.00
H911   H     0.75751   0.04058   0.60818   0.00000  Uiso   1.00
H912   H     0.84505   0.05293   0.64936   0.00000  Uiso   1.00
H913   H     0.86603   0.04401   0.40204   0.00000  Uiso   1.00
H914   H     0.80060   0.28929   0.59792   0.00000  Uiso   1.00
H915   H     0.82153   0.28035   0.35061   0.00000  Uiso   1.00
H916   H     0.89742   0.20599   0.38973   0.00000  Uiso   1.00
H917   H     0.90905   0.29273   0.39183   0.00000  Uiso   1.00
H918   H     0.97667   0.30845   0.34630   0.00000  Uiso   1.00
H919   H     0.95647   0.31556   0.59301   0.00000  Uiso   1.00
H920   H     0.97596   0.17426   0.39155   0.00000  Uiso   1.00
H921   H     0.93808   0.12353   0.66147   0.00000  Uiso   1.00
H922   H     0.93224   0.05134   0.34520   0.00000  Uiso   1.00
H923   H     0.96043   0.02938   0.42611   0.00000  Uiso   1.00
H924   H     0.99800   0.07950   0.48966   0.00000  Uiso   1.00
H925   H     0.66863   0.25384   0.51033   0.00000  Uiso   1.00
H926   H     0.70617   0.30396   0.57389   0.00000  Uiso   1.00
N927   N     0.83335   0.16668   0.61736   0.00000  Uiso   1.00
N928   N     0.83332   0.16666   0.38264   0.00000  Uiso   1.00
O929   O     0.83333   0.10655   0.53958   0.00000  Uiso   1.00
O930   O     0.83334   0.22678   0.46042   0.00000  Uiso   1.00
O931   O     0.83333   0.10654   0.46039   0.00000  Uiso   1.00
O932   O     0.83334   0.22679   0.53961   0.00000  Uiso   1.00
O933   O     0.75828   0.16667   0.53046   0.00000  Uiso   1.00
O934   O     0.90839   0.16666   0.46954   0.00000  Uiso   1.00
O935   O     0.75828   0.16666   0.45127   0.00000  Uiso   1.00
O936   O     0.90839   0.16667   0.54873   0.00000  Uiso   1.00
Br937  Br    0.08320   0.60783   0.42499   0.00000  Uiso   1.00
Br938  Br    0.25013   0.39217   0.57501   0.00000  Uiso   1.00
Br939  Br    0.07331   0.45384   0.36735   0.00000  Uiso   1.00
Br940  Br    0.26002   0.54617   0.63264   0.00000  Uiso   1.00
C941   C     0.16634   0.42059   0.49854   0.00000  Uiso   1.00
C942   C     0.19873   0.35818   0.53418   0.00000  Uiso   1.00
C943   C     0.16449   0.62423   0.50374   0.00000  Uiso   1.00
C944   C     0.16884   0.37577   0.49627   0.00000  Uiso   1.00
C945   C     0.13031   0.47899   0.35028   0.00000  Uiso   1.00
C946   C     0.20302   0.52101   0.64972   0.00000  Uiso   1.00
C947   C     0.13111   0.47821   0.63461   0.00000  Uiso   1.00
C948   C     0.20223   0.52179   0.36539   0.00000  Uiso   1.00
C949   C     0.32277   0.46366   0.44479   0.00000  Uiso   1.00
C950   C     0.30504   0.47612   0.39938   0.00000  Uiso   1.00
C951   C     0.28398   0.44757   0.36355   0.00000  Uiso   1.00
C952   C     0.16699   0.57941   0.50146   0.00000  Uiso   1.00
C953   C     0.28095   0.40671   0.37306   0.00000  Uiso   1.00
C954   C     0.29724   0.39434   0.41865   0.00000  Uiso   1.00
C955   C     0.31824   0.42271   0.45452   0.00000  Uiso   1.00
C956   C     0.01056   0.53635   0.55521   0.00000  Uiso   1.00
C957   C     0.01506   0.57730   0.54548   0.00000  Uiso   1.00
C958   C     0.03605   0.60567   0.58135   0.00000  Uiso   1.00
C959   C     0.05234   0.59330   0.62694   0.00000  Uiso   1.00
C960   C     0.04934   0.55244   0.63645   0.00000  Uiso   1.00
C961   C     0.02830   0.52388   0.60061   0.00000  Uiso   1.00
C962   C     0.12322   0.36426   0.41118   0.00000  Uiso   1.00
C963   C     0.06795   0.49955   0.48783   0.00000  Uiso   1.00
C964   C     0.07313   0.35918   0.38766   0.00000  Uiso   1.00
C965   C     0.06165   0.36208   0.33853   0.00000  Uiso   1.00
C966   C     0.09975   0.37136   0.64602   0.00000  Uiso   1.00
C967   C     0.14909   0.37860   0.33604   0.00000  Uiso   1.00
C968   C     0.16076   0.37453   0.38481   0.00000  Uiso   1.00
C969   C     0.21008   0.63575   0.58883   0.00000  Uiso   1.00
C970   C     0.17252   0.62545   0.61517   0.00000  Uiso   1.00
C971   C     0.18417   0.62137   0.66395   0.00000  Uiso   1.00
C972   C     0.23350   0.62863   0.35399   0.00000  Uiso   1.00
C973   C     0.27161   0.63792   0.66151   0.00000  Uiso   1.00
C974   C     0.26538   0.50045   0.51217   0.00000  Uiso   1.00
C975   C     0.26017   0.64084   0.61238   0.00000  Uiso   1.00
C976   C     0.01288   0.49336   0.48255   0.00000  Uiso   1.00
C977   C     0.32046   0.50664   0.51745   0.00000  Uiso   1.00
C978   C     0.13913   0.35045   0.45981   0.00000  Uiso   1.00
C979   C     0.19419   0.64955   0.54020   0.00000  Uiso   1.00
C980   C     0.13460   0.64182   0.46583   0.00000  Uiso   1.00
Cu981  Cu    0.16667   0.50001   0.54689   0.00000  Uiso   1.00
Cu982  Cu    0.16667   0.49999   0.45311   0.00000  Uiso   1.00
H983   H     0.10259   0.46068   0.61027   0.00000  Uiso   1.00
H984   H     0.06770   0.61534   0.65480   0.00000  Uiso   1.00
H985   H     0.06191   0.54315   0.33852   0.00000  Uiso   1.00
H986   H     0.02406   0.49241   0.60845   0.00000  Uiso   1.00
H987   H     0.04350   0.35113   0.40705   0.00000  Uiso   1.00
H988   H     0.02325   0.35824   0.65377   0.00000  Uiso   1.00
H989   H     0.09085   0.37392   0.60818   0.00000  Uiso   1.00
H990   H     0.17838   0.38627   0.64936   0.00000  Uiso   1.00
H991   H     0.19937   0.37734   0.40204   0.00000  Uiso   1.00
H992   H     0.13393   0.62262   0.59792   0.00000  Uiso   1.00
H993   H     0.15487   0.61368   0.35061   0.00000  Uiso   1.00
H994   H     0.23075   0.53932   0.38973   0.00000  Uiso   1.00
H995   H     0.24238   0.62606   0.39183   0.00000  Uiso   1.00
H996   H     0.31000   0.64178   0.34630   0.00000  Uiso   1.00
H997   H     0.28980   0.64889   0.59301   0.00000  Uiso   1.00
H998   H     0.30929   0.50759   0.39155   0.00000  Uiso   1.00
H999   H     0.27141   0.45686   0.66147   0.00000  Uiso   1.00
H1000  H     0.26557   0.38468   0.34520   0.00000  Uiso   1.00
H1001  H     0.29376   0.36271   0.42611   0.00000  Uiso   1.00
H1002  H     0.33134   0.41283   0.48966   0.00000  Uiso   1.00
H1003  H     0.00196   0.58717   0.51033   0.00000  Uiso   1.00
H1004  H     0.03950   0.63730   0.57389   0.00000  Uiso   1.00
N1005  N     0.16668   0.50001   0.61736   0.00000  Uiso   1.00
N1006  N     0.16665   0.49999   0.38264   0.00000  Uiso   1.00
O1007  O     0.16666   0.43989   0.53958   0.00000  Uiso   1.00
O1008  O     0.16667   0.56011   0.46042   0.00000  Uiso   1.00
O1009  O     0.16666   0.43988   0.46039   0.00000  Uiso   1.00
O1010  O     0.16667   0.56012   0.53961   0.00000  Uiso   1.00
O1011  O     0.09161   0.50000   0.53046   0.00000  Uiso   1.00
O1012  O     0.24172   0.50000   0.46954   0.00000  Uiso   1.00
O1013  O     0.09161   0.49999   0.45127   0.00000  Uiso   1.00
O1014  O     0.24172   0.50001   0.54873   0.00000  Uiso   1.00
Br1015 Br    0.41654   0.60783   0.42499   0.00000  Uiso   1.00
Br1016 Br    0.58346   0.39217   0.57501   0.00000  Uiso   1.00
Br1017 Br    0.40664   0.45384   0.36735   0.00000  Uiso   1.00
Br1018 Br    0.59335   0.54617   0.63264   0.00000  Uiso   1.00
C1019  C     0.49968   0.42059   0.49854   0.00000  Uiso   1.00
C1020  C     0.53207   0.35818   0.53418   0.00000  Uiso   1.00
C1021  C     0.49782   0.62423   0.50374   0.00000  Uiso   1.00
C1022  C     0.50217   0.37577   0.49627   0.00000  Uiso   1.00
C1023  C     0.46364   0.47899   0.35028   0.00000  Uiso   1.00
C1024  C     0.53636   0.52101   0.64972   0.00000  Uiso   1.00
C1025  C     0.46444   0.47821   0.63461   0.00000  Uiso   1.00
C1026  C     0.53556   0.52179   0.36539   0.00000  Uiso   1.00
C1027  C     0.65611   0.46366   0.44479   0.00000  Uiso   1.00
C1028  C     0.63837   0.47612   0.39938   0.00000  Uiso   1.00
C1029  C     0.61731   0.44757   0.36355   0.00000  Uiso   1.00
C1030  C     0.50032   0.57941   0.50146   0.00000  Uiso   1.00
C1031  C     0.61429   0.40671   0.37306   0.00000  Uiso   1.00
C1032  C     0.63057   0.39434   0.41865   0.00000  Uiso   1.00
C1033  C     0.65158   0.42271   0.45452   0.00000  Uiso   1.00
C1034  C     0.34389   0.53635   0.55521   0.00000  Uiso   1.00
C1035  C     0.34840   0.57730   0.54548   0.00000  Uiso   1.00
C1036  C     0.36938   0.60567   0.58135   0.00000  Uiso   1.00
C1037  C     0.38567   0.59330   0.62694   0.00000  Uiso   1.00
C1038  C     0.38267   0.55244   0.63645   0.00000  Uiso   1.00
C1039  C     0.36163   0.52388   0.60061   0.00000  Uiso   1.00
C1040  C     0.45655   0.36426   0.41118   0.00000  Uiso   1.00
C1041  C     0.40129   0.49955   0.48783   0.00000  Uiso   1.00
C1042  C     0.40646   0.35918   0.38766   0.00000  Uiso   1.00
C1043  C     0.39499   0.36208   0.33853   0.00000  Uiso   1.00
C1044  C     0.43308   0.37136   0.64602   0.00000  Uiso   1.00
C1045  C     0.48243   0.37860   0.33604   0.00000  Uiso   1.00
C1046  C     0.49410   0.37453   0.38481   0.00000  Uiso   1.00
C1047  C     0.54342   0.63575   0.58883   0.00000  Uiso   1.00
C1048  C     0.50586   0.62545   0.61517   0.00000  Uiso   1.00
C1049  C     0.51750   0.62137   0.66395   0.00000  Uiso   1.00
C1050  C     0.56684   0.62863   0.35399   0.00000  Uiso   1.00
C1051  C     0.60494   0.63792   0.66151   0.00000  Uiso   1.00
C1052  C     0.59871   0.50045   0.51217   0.00000  Uiso   1.00
C1053  C     0.59350   0.64084   0.61238   0.00000  Uiso   1.00
C1054  C     0.34621   0.49336   0.48255   0.00000  Uiso   1.00
C1055  C     0.65379   0.50664   0.51745   0.00000  Uiso   1.00
C1056  C     0.47246   0.35045   0.45981   0.00000  Uiso   1.00
C1057  C     0.52753   0.64955   0.54020   0.00000  Uiso   1.00
C1058  C     0.46793   0.64182   0.46583   0.00000  Uiso   1.00
Cu1059 Cu    0.50000   0.50001   0.54689   0.00000  Uiso   1.00
Cu1060 Cu    0.50000   0.49999   0.45311   0.00000  Uiso   1.00
H1061  H     0.43592   0.46068   0.61027   0.00000  Uiso   1.00
H1062  H     0.40104   0.61534   0.65480   0.00000  Uiso   1.00
H1063  H     0.39525   0.54315   0.33852   0.00000  Uiso   1.00
H1064  H     0.35739   0.49241   0.60845   0.00000  Uiso   1.00
H1065  H     0.37684   0.35113   0.40705   0.00000  Uiso   1.00
H1066  H     0.35659   0.35824   0.65377   0.00000  Uiso   1.00
H1067  H     0.42418   0.37392   0.60818   0.00000  Uiso   1.00
H1068  H     0.51172   0.38627   0.64936   0.00000  Uiso   1.00
H1069  H     0.53270   0.37734   0.40204   0.00000  Uiso   1.00
H1070  H     0.46726   0.62262   0.59792   0.00000  Uiso   1.00
H1071  H     0.48820   0.61368   0.35061   0.00000  Uiso   1.00
H1072  H     0.56408   0.53932   0.38973   0.00000  Uiso   1.00
H1073  H     0.57571   0.62606   0.39183   0.00000  Uiso   1.00
H1074  H     0.64334   0.64178   0.34630   0.00000  Uiso   1.00
H1075  H     0.62314   0.64889   0.59301   0.00000  Uiso   1.00
H1076  H     0.64262   0.50759   0.39155   0.00000  Uiso   1.00
H1077  H     0.60475   0.45686   0.66147   0.00000  Uiso   1.00
H1078  H     0.59890   0.38468   0.34520   0.00000  Uiso   1.00
H1079  H     0.62710   0.36271   0.42611   0.00000  Uiso   1.00
H1080  H     0.66467   0.41283   0.48966   0.00000  Uiso   1.00
H1081  H     0.33529   0.58717   0.51033   0.00000  Uiso   1.00
H1082  H     0.37284   0.63730   0.57389   0.00000  Uiso   1.00
N1083  N     0.50001   0.50001   0.61736   0.00000  Uiso   1.00
N1084  N     0.49999   0.49999   0.38264   0.00000  Uiso   1.00
O1085  O     0.50000   0.43989   0.53958   0.00000  Uiso   1.00
O1086  O     0.50000   0.56011   0.46042   0.00000  Uiso   1.00
O1087  O     0.50000   0.43988   0.46039   0.00000  Uiso   1.00
O1088  O     0.50000   0.56012   0.53961   0.00000  Uiso   1.00
O1089  O     0.42495   0.50000   0.53046   0.00000  Uiso   1.00
O1090  O     0.57505   0.50000   0.46954   0.00000  Uiso   1.00
O1091  O     0.42494   0.49999   0.45127   0.00000  Uiso   1.00
O1092  O     0.57506   0.50001   0.54873   0.00000  Uiso   1.00
Br1093 Br    0.74987   0.60783   0.42499   0.00000  Uiso   1.00
Br1094 Br    0.91679   0.39217   0.57501   0.00000  Uiso   1.00
Br1095 Br    0.73997   0.45384   0.36735   0.00000  Uiso   1.00
Br1096 Br    0.92669   0.54617   0.63264   0.00000  Uiso   1.00
C1097  C     0.83301   0.42059   0.49854   0.00000  Uiso   1.00
C1098  C     0.86540   0.35818   0.53418   0.00000  Uiso   1.00
C1099  C     0.83116   0.62423   0.50374   0.00000  Uiso   1.00
C1100  C     0.83551   0.37577   0.49627   0.00000  Uiso   1.00
C1101  C     0.79698   0.47899   0.35028   0.00000  Uiso   1.00
C1102  C     0.86969   0.52101   0.64972   0.00000  Uiso   1.00
C1103  C     0.79777   0.47821   0.63461   0.00000  Uiso   1.00
C1104  C     0.86889   0.52179   0.36539   0.00000  Uiso   1.00
C1105  C     0.98944   0.46366   0.44479   0.00000  Uiso   1.00
C1106  C     0.97170   0.47612   0.39938   0.00000  Uiso   1.00
C1107  C     0.95065   0.44757   0.36355   0.00000  Uiso   1.00
C1108  C     0.83366   0.57941   0.50146   0.00000  Uiso   1.00
C1109  C     0.94762   0.40671   0.37306   0.00000  Uiso   1.00
C1110  C     0.96390   0.39434   0.41865   0.00000  Uiso   1.00
C1111  C     0.98491   0.42271   0.45452   0.00000  Uiso   1.00
C1112  C     0.67722   0.53635   0.55521   0.00000  Uiso   1.00
C1113  C     0.68173   0.57730   0.54548   0.00000  Uiso   1.00
C1114  C     0.70272   0.60567   0.58135   0.00000  Uiso   1.00
C1115  C     0.71900   0.59330   0.62694   0.00000  Uiso   1.00
C1116  C     0.71601   0.55244   0.63645   0.00000  Uiso   1.00
C1117  C     0.69497   0.52388   0.60061   0.00000  Uiso   1.00
C1118  C     0.78989   0.36426   0.41118   0.00000  Uiso   1.00
C1119  C     0.73462   0.49955   0.48783   0.00000  Uiso   1.00
C1120  C     0.73979   0.35918   0.38766   0.00000  Uiso   1.00
C1121  C     0.72832   0.36208   0.33853   0.00000  Uiso   1.00
C1122  C     0.76641   0.37136   0.64602   0.00000  Uiso   1.00
C1123  C     0.81576   0.37860   0.33604   0.00000  Uiso   1.00
C1124  C     0.82743   0.37453   0.38481   0.00000  Uiso   1.00
C1125  C     0.87675   0.63575   0.58883   0.00000  Uiso   1.00
C1126  C     0.83919   0.62545   0.61517   0.00000  Uiso   1.00
C1127  C     0.85084   0.62137   0.66395   0.00000  Uiso   1.00
C1128  C     0.90017   0.62863   0.35399   0.00000  Uiso   1.00
C1129  C     0.93828   0.63792   0.66151   0.00000  Uiso   1.00
C1130  C     0.93204   0.50045   0.51217   0.00000  Uiso   1.00
C1131  C     0.92683   0.64084   0.61238   0.00000  Uiso   1.00
C1132  C     0.67954   0.49336   0.48255   0.00000  Uiso   1.00
C1133  C     0.98712   0.50664   0.51745   0.00000  Uiso   1.00
C1134  C     0.80580   0.35045   0.45981   0.00000  Uiso   1.00
C1135  C     0.86086   0.64955   0.54020   0.00000  Uiso   1.00
C1136  C     0.80126   0.64182   0.46583   0.00000  Uiso   1.00
Cu1137 Cu    0.83333   0.50001   0.54689   0.00000  Uiso   1.00
Cu1138 Cu    0.83333   0.49999   0.45311   0.00000  Uiso   1.00
H1139  H     0.76925   0.46068   0.61027   0.00000  Uiso   1.00
H1140  H     0.73437   0.61534   0.65480   0.00000  Uiso   1.00
H1141  H     0.72858   0.54315   0.33852   0.00000  Uiso   1.00
H1142  H     0.69073   0.49241   0.60845   0.00000  Uiso   1.00
H1143  H     0.71017   0.35113   0.40705   0.00000  Uiso   1.00
H1144  H     0.68992   0.35824   0.65377   0.00000  Uiso   1.00
H1145  H     0.75751   0.37392   0.60818   0.00000  Uiso   1.00
H1146  H     0.84505   0.38627   0.64936   0.00000  Uiso   1.00
H1147  H     0.86603   0.37734   0.40204   0.00000  Uiso   1.00
H1148  H     0.80060   0.62262   0.59792   0.00000  Uiso   1.00
H1149  H     0.82153   0.61368   0.35061   0.00000  Uiso   1.00
H1150  H     0.89742   0.53932   0.38973   0.00000  Uiso   1.00
H1151  H     0.90905   0.62606   0.39183   0.00000  Uiso   1.00
H1152  H     0.97667   0.64178   0.34630   0.00000  Uiso   1.00
H1153  H     0.95647   0.64889   0.59301   0.00000  Uiso   1.00
H1154  H     0.97596   0.50759   0.39155   0.00000  Uiso   1.00
H1155  H     0.93808   0.45686   0.66147   0.00000  Uiso   1.00
H1156  H     0.93224   0.38468   0.34520   0.00000  Uiso   1.00
H1157  H     0.96043   0.36271   0.42611   0.00000  Uiso   1.00
H1158  H     0.99800   0.41283   0.48966   0.00000  Uiso   1.00
H1159  H     0.66863   0.58717   0.51033   0.00000  Uiso   1.00
H1160  H     0.70617   0.63730   0.57389   0.00000  Uiso   1.00
N1161  N     0.83335   0.50001   0.61736   0.00000  Uiso   1.00
N1162  N     0.83332   0.49999   0.38264   0.00000  Uiso   1.00
O1163  O     0.83333   0.43989   0.53958   0.00000  Uiso   1.00
O1164  O     0.83334   0.56011   0.46042   0.00000  Uiso   1.00
O1165  O     0.83333   0.43988   0.46039   0.00000  Uiso   1.00
O1166  O     0.83334   0.56012   0.53961   0.00000  Uiso   1.00
O1167  O     0.75828   0.50000   0.53046   0.00000  Uiso   1.00
O1168  O     0.90839   0.50000   0.46954   0.00000  Uiso   1.00
O1169  O     0.75828   0.49999   0.45127   0.00000  Uiso   1.00
O1170  O     0.90839   0.50001   0.54873   0.00000  Uiso   1.00
Br1171 Br    0.08320   0.94116   0.42499   0.00000  Uiso   1.00
Br1172 Br    0.25013   0.72551   0.57501   0.00000  Uiso   1.00
Br1173 Br    0.07331   0.78717   0.36735   0.00000  Uiso   1.00
Br1174 Br    0.26002   0.87951   0.63264   0.00000  Uiso   1.00
C1175  C     0.16634   0.75393   0.49854   0.00000  Uiso   1.00
C1176  C     0.19873   0.69151   0.53418   0.00000  Uiso   1.00
C1177  C     0.16449   0.95756   0.50374   0.00000  Uiso   1.00
C1178  C     0.16884   0.70911   0.49627   0.00000  Uiso   1.00
C1179  C     0.13031   0.81232   0.35028   0.00000  Uiso   1.00
C1180  C     0.20302   0.85435   0.64972   0.00000  Uiso   1.00
C1181  C     0.13111   0.81154   0.63461   0.00000  Uiso   1.00
C1182  C     0.20223   0.85513   0.36539   0.00000  Uiso   1.00
C1183  C     0.32277   0.79699   0.44479   0.00000  Uiso   1.00
C1184  C     0.30504   0.80946   0.39938   0.00000  Uiso   1.00
C1185  C     0.28398   0.78090   0.36355   0.00000  Uiso   1.00
C1186  C     0.16699   0.91274   0.50146   0.00000  Uiso   1.00
C1187  C     0.28095   0.74005   0.37306   0.00000  Uiso   1.00
C1188  C     0.29724   0.72767   0.41865   0.00000  Uiso   1.00
C1189  C     0.31824   0.75604   0.45452   0.00000  Uiso   1.00
C1190  C     0.01056   0.86968   0.55521   0.00000  Uiso   1.00
C1191  C     0.01506   0.91063   0.54548   0.00000  Uiso   1.00
C1192  C     0.03605   0.93900   0.58135   0.00000  Uiso   1.00
C1193  C     0.05234   0.92663   0.62694   0.00000  Uiso   1.00
C1194  C     0.04934   0.88578   0.63645   0.00000  Uiso   1.00
C1195  C     0.02830   0.85722   0.60061   0.00000  Uiso   1.00
C1196  C     0.12322   0.69759   0.41118   0.00000  Uiso   1.00
C1197  C     0.06795   0.83288   0.48783   0.00000  Uiso   1.00
C1198  C     0.07313   0.69251   0.38766   0.00000  Uiso   1.00
C1199  C     0.06165   0.69542   0.33853   0.00000  Uiso   1.00
C1200  C     0.09975   0.70469   0.64602   0.00000  Uiso   1.00
C1201  C     0.14909   0.71194   0.33604   0.00000  Uiso   1.00
C1202  C     0.16076   0.70786   0.38481   0.00000  Uiso   1.00
C1203  C     0.21008   0.96908   0.58883   0.00000  Uiso   1.00
C1204  C     0.17252   0.95878   0.61517   0.00000  Uiso   1.00
C1205  C     0.18417   0.95470   0.66395   0.00000  Uiso   1.00
C1206  C     0.23350   0.96196   0.35399   0.00000  Uiso   1.00
C1207  C     0.27161   0.97126   0.66151   0.00000  Uiso   1.00
C1208  C     0.26538   0.83379   0.51217   0.00000  Uiso   1.00
C1209  C     0.26017   0.97417   0.61238   0.00000  Uiso   1.00
C1210  C     0.01288   0.82670   0.48255   0.00000  Uiso   1.00
C1211  C     0.32046   0.83997   0.51745   0.00000  Uiso   1.00
C1212  C     0.13913   0.68378   0.45981   0.00000  Uiso   1.00
C1213  C     0.19419   0.98289   0.54020   0.00000  Uiso   1.00
C1214  C     0.13460   0.97516   0.46583   0.00000  Uiso   1.00
Cu1215 Cu    0.16667   0.83334   0.54689   0.00000  Uiso   1.00
Cu1216 Cu    0.16667   0.83333   0.45311   0.00000  Uiso   1.00
H1217  H     0.10259   0.79401   0.61027   0.00000  Uiso   1.00
H1218  H     0.06770   0.94867   0.65480   0.00000  Uiso   1.00
H1219  H     0.06191   0.87648   0.33852   0.00000  Uiso   1.00
H1220  H     0.02406   0.82575   0.60845   0.00000  Uiso   1.00
H1221  H     0.04350   0.68446   0.40705   0.00000  Uiso   1.00
H1222  H     0.02325   0.69157   0.65377   0.00000  Uiso   1.00
H1223  H     0.09085   0.70725   0.60818   0.00000  Uiso   1.00
H1224  H     0.17838   0.71960   0.64936   0.00000  Uiso   1.00
H1225  H     0.19937   0.71068   0.40204   0.00000  Uiso   1.00
H1226  H     0.13393   0.95595   0.59792   0.00000  Uiso   1.00
H1227  H     0.15487   0.94702   0.35061   0.00000  Uiso   1.00
H1228  H     0.23075   0.87265   0.38973   0.00000  Uiso   1.00
H1229  H     0.24238   0.95940   0.39183   0.00000  Uiso   1.00
H1230  H     0.31000   0.97511   0.34630   0.00000  Uiso   1.00
H1231  H     0.28980   0.98223   0.59301   0.00000  Uiso   1.00
H1232  H     0.30929   0.84092   0.39155   0.00000  Uiso   1.00
H1233  H     0.27141   0.79020   0.66147   0.00000  Uiso   1.00
H1234  H     0.26557   0.71801   0.34520   0.00000  Uiso   1.00
H1235  H     0.29376   0.69605   0.42611   0.00000  Uiso   1.00
H1236  H     0.33134   0.74616   0.48966   0.00000  Uiso   1.00
H1237  H     0.00196   0.92051   0.51033   0.00000  Uiso   1.00
H1238  H     0.03950   0.97063   0.57389   0.00000  Uiso   1.00
N1239  N     0.16668   0.83334   0.61736   0.00000  Uiso   1.00
N1240  N     0.16665   0.83332   0.38264   0.00000  Uiso   1.00
O1241  O     0.16666   0.77322   0.53958   0.00000  Uiso   1.00
O1242  O     0.16667   0.89345   0.46042   0.00000  Uiso   1.00
O1243  O     0.16666   0.77321   0.46039   0.00000  Uiso   1.00
O1244  O     0.16667   0.89346   0.53961   0.00000  Uiso   1.00
O1245  O     0.09161   0.83334   0.53046   0.00000  Uiso   1.00
O1246  O     0.24172   0.83333   0.46954   0.00000  Uiso   1.00
O1247  O     0.09161   0.83333   0.45127   0.00000  Uiso   1.00
O1248  O     0.24172   0.83334   0.54873   0.00000  Uiso   1.00
Br1249 Br    0.41654   0.94116   0.42499   0.00000  Uiso   1.00
Br1250 Br    0.58346   0.72551   0.57501   0.00000  Uiso   1.00
Br1251 Br    0.40664   0.78717   0.36735   0.00000  Uiso   1.00
Br1252 Br    0.59335   0.87951   0.63264   0.00000  Uiso   1.00
C1253  C     0.49968   0.75393   0.49854   0.00000  Uiso   1.00
C1254  C     0.53207   0.69151   0.53418   0.00000  Uiso   1.00
C1255  C     0.49782   0.95756   0.50374   0.00000  Uiso   1.00
C1256  C     0.50217   0.70911   0.49627   0.00000  Uiso   1.00
C1257  C     0.46364   0.81232   0.35028   0.00000  Uiso   1.00
C1258  C     0.53636   0.85435   0.64972   0.00000  Uiso   1.00
C1259  C     0.46444   0.81154   0.63461   0.00000  Uiso   1.00
C1260  C     0.53556   0.85513   0.36539   0.00000  Uiso   1.00
C1261  C     0.65611   0.79699   0.44479   0.00000  Uiso   1.00
C1262  C     0.63837   0.80946   0.39938   0.00000  Uiso   1.00
C1263  C     0.61731   0.78090   0.36355   0.00000  Uiso   1.00
C1264  C     0.50032   0.91274   0.50146   0.00000  Uiso   1.00
C1265  C     0.61429   0.74005   0.37306   0.00000  Uiso   1.00
C1266  C     0.63057   0.72767   0.41865   0.00000  Uiso   1.00
C1267  C     0.65158   0.75604   0.45452   0.00000  Uiso   1.00
C1268  C     0.34389   0.86968   0.55521   0.00000  Uiso   1.00
C1269  C     0.34840   0.91063   0.54548   0.00000  Uiso   1.00
C1270  C     0.36938   0.93900   0.58135   0.00000  Uiso   1.00
C1271  C     0.38567   0.92663   0.62694   0.00000  Uiso   1.00
C1272  C     0.38267   0.88578   0.63645   0.00000  Uiso   1.00
C1273  C     0.36163   0.85722   0.60061   0.00000  Uiso   1.00
C1274  C     0.45655   0.69759   0.41118   0.00000  Uiso   1.00
C1275  C     0.40129   0.83288   0.48783   0.00000  Uiso   1.00
C1276  C     0.40646   0.69251   0.38766   0.00000  Uiso   1.00
C1277  C     0.39499   0.69542   0.33853   0.00000  Uiso   1.00
C1278  C     0.43308   0.70469   0.64602   0.00000  Uiso   1.00
C1279  C     0.48243   0.71194   0.33604   0.00000  Uiso   1.00
C1280  C     0.49410   0.70786   0.38481   0.00000  Uiso   1.00
C1281  C     0.54342   0.96908   0.58883   0.00000  Uiso   1.00
C1282  C     0.50586   0.95878   0.61517   0.00000  Uiso   1.00
C1283  C     0.51750   0.95470   0.66395   0.00000  Uiso   1.00
C1284  C     0.56684   0.96196   0.35399   0.00000  Uiso   1.00
C1285  C     0.60494   0.97126   0.66151   0.00000  Uiso   1.00
C1286  C     0.59871   0.83379   0.51217   0.00000  Uiso   1.00
C1287  C     0.59350   0.97417   0.61238   0.00000  Uiso   1.00
C1288  C     0.34621   0.82670   0.48255   0.00000  Uiso   1.00
C1289  C     0.65379   0.83997   0.51745   0.00000  Uiso   1.00
C1290  C     0.47246   0.68378   0.45981   0.00000  Uiso   1.00
C1291  C     0.52753   0.98289   0.54020   0.00000  Uiso   1.00
C1292  C     0.46793   0.97516   0.46583   0.00000  Uiso   1.00
Cu1293 Cu    0.50000   0.83334   0.54689   0.00000  Uiso   1.00
Cu1294 Cu    0.50000   0.83333   0.45311   0.00000  Uiso   1.00
H1295  H     0.43592   0.79401   0.61027   0.00000  Uiso   1.00
H1296  H     0.40104   0.94867   0.65480   0.00000  Uiso   1.00
H1297  H     0.39525   0.87648   0.33852   0.00000  Uiso   1.00
H1298  H     0.35739   0.82575   0.60845   0.00000  Uiso   1.00
H1299  H     0.37684   0.68446   0.40705   0.00000  Uiso   1.00
H1300  H     0.35659   0.69157   0.65377   0.00000  Uiso   1.00
H1301  H     0.42418   0.70725   0.60818   0.00000  Uiso   1.00
H1302  H     0.51172   0.71960   0.64936   0.00000  Uiso   1.00
H1303  H     0.53270   0.71068   0.40204   0.00000  Uiso   1.00
H1304  H     0.46726   0.95595   0.59792   0.00000  Uiso   1.00
H1305  H     0.48820   0.94702   0.35061   0.00000  Uiso   1.00
H1306  H     0.56408   0.87265   0.38973   0.00000  Uiso   1.00
H1307  H     0.57571   0.95940   0.39183   0.00000  Uiso   1.00
H1308  H     0.64334   0.97511   0.34630   0.00000  Uiso   1.00
H1309  H     0.62314   0.98223   0.59301   0.00000  Uiso   1.00
H1310  H     0.64262   0.84092   0.39155   0.00000  Uiso   1.00
H1311  H     0.60475   0.79020   0.66147   0.00000  Uiso   1.00
H1312  H     0.59890   0.71801   0.34520   0.00000  Uiso   1.00
H1313  H     0.62710   0.69605   0.42611   0.00000  Uiso   1.00
H1314  H     0.66467   0.74616   0.48966   0.00000  Uiso   1.00
H1315  H     0.33529   0.92051   0.51033   0.00000  Uiso   1.00
H1316  H     0.37284   0.97063   0.57389   0.00000  Uiso   1.00
N1317  N     0.50001   0.83334   0.61736   0.00000  Uiso   1.00
N1318  N     0.49999   0.83332   0.38264   0.00000  Uiso   1.00
O1319  O     0.50000   0.77322   0.53958   0.00000  Uiso   1.00
O1320  O     0.50000   0.89345   0.46042   0.00000  Uiso   1.00
O1321  O     0.50000   0.77321   0.46039   0.00000  Uiso   1.00
O1322  O     0.50000   0.89346   0.53961   0.00000  Uiso   1.00
O1323  O     0.42495   0.83334   0.53046   0.00000  Uiso   1.00
O1324  O     0.57505   0.83333   0.46954   0.00000  Uiso   1.00
O1325  O     0.42494   0.83333   0.45127   0.00000  Uiso   1.00
O1326  O     0.57506   0.83334   0.54873   0.00000  Uiso   1.00
Br1327 Br    0.74987   0.94116   0.42499   0.00000  Uiso   1.00
Br1328 Br    0.91679   0.72551   0.57501   0.00000  Uiso   1.00
Br1329 Br    0.73997   0.78717   0.36735   0.00000  Uiso   1.00
Br1330 Br    0.92669   0.87951   0.63264   0.00000  Uiso   1.00
C1331  C     0.83301   0.75393   0.49854   0.00000  Uiso   1.00
C1332  C     0.86540   0.69151   0.53418   0.00000  Uiso   1.00
C1333  C     0.83116   0.95756   0.50374   0.00000  Uiso   1.00
C1334  C     0.83551   0.70911   0.49627   0.00000  Uiso   1.00
C1335  C     0.79698   0.81232   0.35028   0.00000  Uiso   1.00
C1336  C     0.86969   0.85435   0.64972   0.00000  Uiso   1.00
C1337  C     0.79777   0.81154   0.63461   0.00000  Uiso   1.00
C1338  C     0.86889   0.85513   0.36539   0.00000  Uiso   1.00
C1339  C     0.98944   0.79699   0.44479   0.00000  Uiso   1.00
C1340  C     0.97170   0.80946   0.39938   0.00000  Uiso   1.00
C1341  C     0.95065   0.78090   0.36355   0.00000  Uiso   1.00
C1342  C     0.83366   0.91274   0.50146   0.00000  Uiso   1.00
C1343  C     0.94762   0.74005   0.37306   0.00000  Uiso   1.00
C1344  C     0.96390   0.72767   0.41865   0.00000  Uiso   1.00
C1345  C     0.98491   0.75604   0.45452   0.00000  Uiso   1.00
C1346  C     0.67722   0.86968   0.55521   0.00000  Uiso   1.00
C1347  C     0.68173   0.91063   0.54548   0.00000  Uiso   1.00
C1348  C     0.70272   0.93900   0.58135   0.00000  Uiso   1.00
C1349  C     0.71900   0.92663   0.62694   0.00000  Uiso   1.00
C1350  C     0.71601   0.88578   0.63645   0.00000  Uiso   1.00
C1351  C     0.69497   0.85722   0.60061   0.00000  Uiso   1.00
C1352  C     0.78989   0.69759   0.41118   0.00000  Uiso   1.00
C1353  C     0.73462   0.83288   0.48783   0.00000  Uiso   1.00
C1354  C     0.73979   0.69251   0.38766   0.00000  Uiso   1.00
C1355  C     0.72832   0.69542   0.33853   0.00000  Uiso   1.00
C1356  C     0.76641   0.70469   0.64602   0.00000  Uiso   1.00
C1357  C     0.81576   0.71194   0.33604   0.00000  Uiso   1.00
C1358  C     0.82743   0.70786   0.38481   0.00000  Uiso   1.00
C1359  C     0.87675   0.96908   0.58883   0.00000  Uiso   1.00
C1360  C     0.83919   0.95878   0.61517   0.00000  Uiso   1.00
C1361  C     0.85084   0.95470   0.66395   0.00000  Uiso   1.00
C1362  C     0.90017   0.96196   0.35399   0.00000  Uiso   1.00
C1363  C     0.93828   0.97126   0.66151   0.00000  Uiso   1.00
C1364  C     0.93204   0.83379   0.51217   0.00000  Uiso   1.00
C1365  C     0.92683   0.97417   0.61238   0.00000  Uiso   1.00
C1366  C     0.67954   0.82670   0.48255   0.00000  Uiso   1.00
C1367  C     0.98712   0.83997   0.51745   0.00000  Uiso   1.00
C1368  C     0.80580   0.68378   0.45981   0.00000  Uiso   1.00
C1369  C     0.86086   0.98289   0.54020   0.00000  Uiso   1.00
C1370  C     0.80126   0.97516   0.46583   0.00000  Uiso   1.00
Cu1371 Cu    0.83333   0.83334   0.54689   0.00000  Uiso   1.00
Cu1372 Cu    0.83333   0.83333   0.45311   0.00000  Uiso   1.00
H1373  H     0.76925   0.79401   0.61027   0.00000  Uiso   1.00
H1374  H     0.73437   0.94867   0.65480   0.00000  Uiso   1.00
H1375  H     0.72858   0.87648   0.33852   0.00000  Uiso   1.00
H1376  H     0.69073   0.82575   0.60845   0.00000  Uiso   1.00
H1377  H     0.71017   0.68446   0.40705   0.00000  Uiso   1.00
H1378  H     0.68992   0.69157   0.65377   0.00000  Uiso   1.00
H1379  H     0.75751   0.70725   0.60818   0.00000  Uiso   1.00
H1380  H     0.84505   0.71960   0.64936   0.00000  Uiso   1.00
H1381  H     0.86603   0.71068   0.40204   0.00000  Uiso   1.00
H1382  H     0.80060   0.95595   0.59792   0.00000  Uiso   1.00
H1383  H     0.82153   0.94702   0.35061   0.00000  Uiso   1.00
H1384  H     0.89742   0.87265   0.38973   0.00000  Uiso   1.00
H1385  H     0.90905   0.95940   0.39183   0.00000  Uiso   1.00
H1386  H     0.97667   0.97511   0.34630   0.00000  Uiso   1.00
H1387  H     0.95647   0.98223   0.59301   0.00000  Uiso   1.00
H1388  H     0.97596   0.84092   0.39155   0.00000  Uiso   1.00
H1389  H     0.93808   0.79020   0.66147   0.00000  Uiso   1.00
H1390  H     0.93224   0.71801   0.34520   0.00000  Uiso   1.00
H1391  H     0.96043   0.69605   0.42611   0.00000  Uiso   1.00
H1392  H     0.99800   0.74616   0.48966   0.00000  Uiso   1.00
H1393  H     0.66863   0.92051   0.51033   0.00000  Uiso   1.00
H1394  H     0.70617   0.97063   0.57389   0.00000  Uiso   1.00
N1395  N     0.83335   0.83334   0.61736   0.00000  Uiso   1.00
N1396  N     0.83332   0.83332   0.38264   0.00000  Uiso   1.00
O1397  O     0.83333   0.77322   0.53958   0.00000  Uiso   1.00
O1398  O     0.83334   0.89345   0.46042   0.00000  Uiso   1.00
O1399  O     0.83333   0.77321   0.46039   0.00000  Uiso   1.00
O1400  O     0.83334   0.89346   0.53961   0.00000  Uiso   1.00
O1401  O     0.75828   0.83334   0.53046   0.00000  Uiso   1.00
O1402  O     0.90839   0.83333   0.46954   0.00000  Uiso   1.00
O1403  O     0.75828   0.83333   0.45127   0.00000  Uiso   1.00
O1404  O     0.90839   0.83334   0.54873   0.00000  Uiso   1.00
Br1405 Br    0.08320   0.27449   0.75832   0.00000  Uiso   1.00
Br1406 Br    0.25013   0.05884   0.90835   0.00000  Uiso   1.00
Br1407 Br    0.07331   0.12050   0.70069   0.00000  Uiso   1.00
Br1408 Br    0.26002   0.21284   0.96598   0.00000  Uiso   1.00
C1409  C     0.16634   0.08726   0.83187   0.00000  Uiso   1.00
C1410  C     0.19873   0.02484   0.86751   0.00000  Uiso   1.00
C1411  C     0.16449   0.29089   0.83707   0.00000  Uiso   1.00
C1412  C     0.16884   0.04244   0.82960   0.00000  Uiso   1.00
C1413  C     0.13031   0.14565   0.68361   0.00000  Uiso   1.00
C1414  C     0.20302   0.18768   0.98306   0.00000  Uiso   1.00
C1415  C     0.13111   0.14487   0.96794   0.00000  Uiso   1.00
C1416  C     0.20223   0.18846   0.69873   0.00000  Uiso   1.00
C1417  C     0.32277   0.13032   0.77812   0.00000  Uiso   1.00
C1418  C     0.30504   0.14279   0.73272   0.00000  Uiso   1.00
C1419  C     0.28398   0.11423   0.69688   0.00000  Uiso   1.00
C1420  C     0.16699   0.24607   0.83479   0.00000  Uiso   1.00
C1421  C     0.28095   0.07338   0.70640   0.00000  Uiso   1.00
C1422  C     0.29724   0.06101   0.75199   0.00000  Uiso   1.00
C1423  C     0.31824   0.08937   0.78785   0.00000  Uiso   1.00
C1424  C     0.01056   0.20301   0.88854   0.00000  Uiso   1.00
C1425  C     0.01506   0.24396   0.87881   0.00000  Uiso   1.00
C1426  C     0.03605   0.27234   0.91468   0.00000  Uiso   1.00
C1427  C     0.05234   0.25996   0.96027   0.00000  Uiso   1.00
C1428  C     0.04934   0.21911   0.96979   0.00000  Uiso   1.00
C1429  C     0.02830   0.19055   0.93395   0.00000  Uiso   1.00
C1430  C     0.12322   0.03092   0.74452   0.00000  Uiso   1.00
C1431  C     0.06795   0.16621   0.82116   0.00000  Uiso   1.00
C1432  C     0.07313   0.02584   0.72100   0.00000  Uiso   1.00
C1433  C     0.06165   0.02875   0.67186   0.00000  Uiso   1.00
C1434  C     0.09975   0.03802   0.97936   0.00000  Uiso   1.00
C1435  C     0.14909   0.04527   0.66937   0.00000  Uiso   1.00
C1436  C     0.16076   0.04120   0.71814   0.00000  Uiso   1.00
C1437  C     0.21008   0.30241   0.92216   0.00000  Uiso   1.00
C1438  C     0.17252   0.29212   0.94851   0.00000  Uiso   1.00
C1439  C     0.18417   0.28804   0.99728   0.00000  Uiso   1.00
C1440  C     0.23350   0.29530   0.68732   0.00000  Uiso   1.00
C1441  C     0.27161   0.30459   0.99484   0.00000  Uiso   1.00
C1442  C     0.26538   0.16712   0.84551   0.00000  Uiso   1.00
C1443  C     0.26017   0.30750   0.94571   0.00000  Uiso   1.00
C1444  C     0.01288   0.16003   0.81589   0.00000  Uiso   1.00
C1445  C     0.32046   0.17330   0.85078   0.00000  Uiso   1.00
C1446  C     0.13913   0.01712   0.79314   0.00000  Uiso   1.00
C1447  C     0.19419   0.31622   0.87353   0.00000  Uiso   1.00
C1448  C     0.13460   0.30849   0.79916   0.00000  Uiso   1.00
Cu1449 Cu    0.16667   0.16667   0.88022   0.00000  Uiso   1.00
Cu1450 Cu    0.16667   0.16666   0.78645   0.00000  Uiso   1.00
H1451  H     0.10259   0.12735   0.94361   0.00000  Uiso   1.00
H1452  H     0.06770   0.28201   0.98813   0.00000  Uiso   1.00
H1453  H     0.06191   0.20982   0.67186   0.00000  Uiso   1.00
H1454  H     0.02406   0.15908   0.94178   0.00000  Uiso   1.00
H1455  H     0.04350   0.01780   0.74038   0.00000  Uiso   1.00
H1456  H     0.02325   0.02491   0.98710   0.00000  Uiso   1.00
H1457  H     0.09085   0.04058   0.94151   0.00000  Uiso   1.00
H1458  H     0.17838   0.05293   0.98269   0.00000  Uiso   1.00
H1459  H     0.19937   0.04401   0.73538   0.00000  Uiso   1.00
H1460  H     0.13393   0.28929   0.93125   0.00000  Uiso   1.00
H1461  H     0.15487   0.28035   0.68394   0.00000  Uiso   1.00
H1462  H     0.23075   0.20599   0.72306   0.00000  Uiso   1.00
H1463  H     0.24238   0.29273   0.72517   0.00000  Uiso   1.00
H1464  H     0.31000   0.30845   0.67963   0.00000  Uiso   1.00
H1465  H     0.28980   0.31556   0.92634   0.00000  Uiso   1.00
H1466  H     0.30929   0.17426   0.72488   0.00000  Uiso   1.00
H1467  H     0.27141   0.12353   0.99481   0.00000  Uiso   1.00
H1468  H     0.26557   0.05134   0.67854   0.00000  Uiso   1.00
H1469  H     0.29376   0.02938   0.75944   0.00000  Uiso   1.00
H1470  H     0.33134   0.07950   0.82300   0.00000  Uiso   1.00
H1471  H     0.00196   0.25384   0.84367   0.00000  Uiso   1.00
H1472  H     0.03950   0.30396   0.90723   0.00000  Uiso   1.00
N1473  N     0.16668   0.16668   0.95069   0.00000  Uiso   1.00
N1474  N     0.16665   0.16666   0.71597   0.00000  Uiso   1.00
O1475  O     0.16666   0.10655   0.87291   0.00000  Uiso   1.00
O1476  O     0.16667   0.22678   0.79375   0.00000  Uiso   1.00
O1477  O     0.16666   0.10654   0.79372   0.00000  Uiso   1.00
O1478  O     0.16667   0.22679   0.87294   0.00000  Uiso   1.00
O1479  O     0.09161   0.16667   0.86379   0.00000  Uiso   1.00
O1480  O     0.24172   0.16666   0.80288   0.00000  Uiso   1.00
O1481  O     0.09161   0.16666   0.78460   0.00000  Uiso   1.00
O1482  O     0.24172   0.16667   0.88207   0.00000  Uiso   1.00
Br1483 Br    0.41654   0.27449   0.75832   0.00000  Uiso   1.00
Br1484 Br    0.58346   0.05884   0.90835   0.00000  Uiso   1.00
Br1485 Br    0.40664   0.12050   0.70069   0.00000  Uiso   1.00
Br1486 Br    0.59335   0.21284   0.96598   0.00000  Uiso   1.00
C1487  C     0.49968   0.08726   0.83187   0.00000  Uiso   1.00
C1488  C     0.53207   0.02484   0.86751   0.00000  Uiso   1.00
C1489  C     0.49782   0.29089   0.83707   0.00000  Uiso   1.00
C1490  C     0.50217   0.04244   0.82960   0.00000  Uiso   1.00
C1491  C     0.46364   0.14565   0.68361   0.00000  Uiso   1.00
C1492  C     0.53636   0.18768   0.98306   0.00000  Uiso   1.00
C1493  C     0.46444   0.14487   0.96794   0.00000  Uiso   1.00
C1494  C     0.53556   0.18846   0.69873   0.00000  Uiso   1.00
C1495  C     0.65611   0.13032   0.77812   0.00000  Uiso   1.00
C1496  C     0.63837   0.14279   0.73272   0.00000  Uiso   1.00
C1497  C     0.61731   0.11423   0.69688   0.00000  Uiso   1.00
C1498  C     0.50032   0.24607   0.83479   0.00000  Uiso   1.00
C1499  C     0.61429   0.07338   0.70640   0.00000  Uiso   1.00
C1500  C     0.63057   0.06101   0.75199   0.00000  Uiso   1.00
C1501  C     0.65158   0.08937   0.78785   0.00000  Uiso   1.00
C1502  C     0.34389   0.20301   0.88854   0.00000  Uiso   1.00
C1503  C     0.34840   0.24396   0.87881   0.00000  Uiso   1.00
C1504  C     0.36938   0.27234   0.91468   0.00000  Uiso   1.00
C1505  C     0.38567   0.25996   0.96027   0.00000  Uiso   1.00
C1506  C     0.38267   0.21911   0.96979   0.00000  Uiso   1.00
C1507  C     0.36163   0.19055   0.93395   0.00000  Uiso   1.00
C1508  C     0.45655   0.03092   0.74452   0.00000  Uiso   1.00
C1509  C     0.40129   0.16621   0.82116   0.00000  Uiso   1.00
C1510  C     0.40646   0.02584   0.72100   0.00000  Uiso   1.00
C1511  C     0.39499   0.02875   0.67186   0.00000  Uiso   1.00
C1512  C     0.43308   0.03802   0.97936   0.00000  Uiso   1.00
C1513  C     0.48243   0.04527   0.66937   0.00000  Uiso   1.00
C1514  C     0.49410   0.04120   0.71814   0.00000  Uiso   1.00
C1515  C     0.54342   0.30241   0.92216   0.00000  Uiso   1.00
C1516  C     0.50586   0.29212   0.94851   0.00000  Uiso   1.00
C1517  C     0.51750   0.28804   0.99728   0.00000  Uiso   1.00
C1518  C     0.56684   0.29530   0.68732   0.00000  Uiso   1.00
C1519  C     0.60494   0.30459   0.99484   0.00000  Uiso   1.00
C1520  C     0.59871   0.16712   0.84551   0.00000  Uiso   1.00
C1521  C     0.59350   0.30750   0.94571   0.00000  Uiso   1.00
C1522  C     0.34621   0.16003   0.81589   0.00000  Uiso   1.00
C1523  C     0.65379   0.17330   0.85078   0.00000  Uiso   1.00
C1524  C     0.47246   0.01712   0.79314   0.00000  Uiso   1.00
C1525  C     0.52753   0.31622   0.87353   0.00000  Uiso   1.00
C1526  C     0.46793   0.30849   0.79916   0.00000  Uiso   1.00
Cu1527 Cu    0.50000   0.16667   0.88022   0.00000  Uiso   1.00
Cu1528 Cu    0.50000   0.16666   0.78645   0.00000  Uiso   1.00
H1529  H     0.43592   0.12735   0.94361   0.00000  Uiso   1.00
H1530  H     0.40104   0.28201   0.98813   0.00000  Uiso   1.00
H1531  H     0.39525   0.20982   0.67186   0.00000  Uiso   1.00
H1532  H     0.35739   0.15908   0.94178   0.00000  Uiso   1.00
H1533  H     0.37684   0.01780   0.74038   0.00000  Uiso   1.00
H1534  H     0.35659   0.02491   0.98710   0.00000  Uiso   1.00
H1535  H     0.42418   0.04058   0.94151   0.00000  Uiso   1.00
H1536  H     0.51172   0.05293   0.98269   0.00000  Uiso   1.00
H1537  H     0.53270   0.04401   0.73538   0.00000  Uiso   1.00
H1538  H     0.46726   0.28929   0.93125   0.00000  Uiso   1.00
H1539  H     0.48820   0.28035   0.68394   0.00000  Uiso   1.00
H1540  H     0.56408   0.20599   0.72306   0.00000  Uiso   1.00
H1541  H     0.57571   0.29273   0.72517   0.00000  Uiso   1.00
H1542  H     0.64334   0.30845   0.67963   0.00000  Uiso   1.00
H1543  H     0.62314   0.31556   0.92634   0.00000  Uiso   1.00
H1544  H     0.64262   0.17426   0.72488   0.00000  Uiso   1.00
H1545  H     0.60475   0.12353   0.99481   0.00000  Uiso   1.00
H1546  H     0.59890   0.05134   0.67854   0.00000  Uiso   1.00
H1547  H     0.62710   0.02938   0.75944   0.00000  Uiso   1.00
H1548  H     0.66467   0.07950   0.82300   0.00000  Uiso   1.00
H1549  H     0.33529   0.25384   0.84367   0.00000  Uiso   1.00
H1550  H     0.37284   0.30396   0.90723   0.00000  Uiso   1.00
N1551  N     0.50001   0.16668   0.95069   0.00000  Uiso   1.00
N1552  N     0.49999   0.16666   0.71597   0.00000  Uiso   1.00
O1553  O     0.50000   0.10655   0.87291   0.00000  Uiso   1.00
O1554  O     0.50000   0.22678   0.79375   0.00000  Uiso   1.00
O1555  O     0.50000   0.10654   0.79372   0.00000  Uiso   1.00
O1556  O     0.50000   0.22679   0.87294   0.00000  Uiso   1.00
O1557  O     0.42495   0.16667   0.86379   0.00000  Uiso   1.00
O1558  O     0.57505   0.16666   0.80288   0.00000  Uiso   1.00
O1559  O     0.42494   0.16666   0.78460   0.00000  Uiso   1.00
O1560  O     0.57506   0.16667   0.88207   0.00000  Uiso   1.00
Br1561 Br    0.74987   0.27449   0.75832   0.00000  Uiso   1.00
Br1562 Br    0.91679   0.05884   0.90835   0.00000  Uiso   1.00
Br1563 Br    0.73997   0.12050   0.70069   0.00000  Uiso   1.00
Br1564 Br    0.92669   0.21284   0.96598   0.00000  Uiso   1.00
C1565  C     0.83301   0.08726   0.83187   0.00000  Uiso   1.00
C1566  C     0.86540   0.02484   0.86751   0.00000  Uiso   1.00
C1567  C     0.83116   0.29089   0.83707   0.00000  Uiso   1.00
C1568  C     0.83551   0.04244   0.82960   0.00000  Uiso   1.00
C1569  C     0.79698   0.14565   0.68361   0.00000  Uiso   1.00
C1570  C     0.86969   0.18768   0.98306   0.00000  Uiso   1.00
C1571  C     0.79777   0.14487   0.96794   0.00000  Uiso   1.00
C1572  C     0.86889   0.18846   0.69873   0.00000  Uiso   1.00
C1573  C     0.98944   0.13032   0.77812   0.00000  Uiso   1.00
C1574  C     0.97170   0.14279   0.73272   0.00000  Uiso   1.00
C1575  C     0.95065   0.11423   0.69688   0.00000  Uiso   1.00
C1576  C     0.83366   0.24607   0.83479   0.00000  Uiso   1.00
C1577  C     0.94762   0.07338   0.70640   0.00000  Uiso   1.00
C1578  C     0.96390   0.06101   0.75199   0.00000  Uiso   1.00
C1579  C     0.98491   0.08937   0.78785   0.00000  Uiso   1.00
C1580  C     0.67722   0.20301   0.88854   0.00000  Uiso   1.00
C1581  C     0.68173   0.24396   0.87881   0.00000  Uiso   1.00
C1582  C     0.70272   0.27234   0.91468   0.00000  Uiso   1.00
C1583  C     0.71900   0.25996   0.96027   0.00000  Uiso   1.00
C1584  C     0.71601   0.21911   0.96979   0.00000  Uiso   1.00
C1585  C     0.69497   0.19055   0.93395   0.00000  Uiso   1.00
C1586  C     0.78989   0.03092   0.74452   0.00000  Uiso   1.00
C1587  C     0.73462   0.16621   0.82116   0.00000  Uiso   1.00
C1588  C     0.73979   0.02584   0.72100   0.00000  Uiso   1.00
C1589  C     0.72832   0.02875   0.67186   0.00000  Uiso   1.00
C1590  C     0.76641   0.03802   0.97936   0.00000  Uiso   1.00
C1591  C     0.81576   0.04527   0.66937   0.00000  Uiso   1.00
C1592  C     0.82743   0.04120   0.71814   0.00000  Uiso   1.00
C1593  C     0.87675   0.30241   0.92216   0.00000  Uiso   1.00
C1594  C     0.83919   0.29212   0.94851   0.00000  Uiso   1.00
C1595  C     0.85084   0.28804   0.99728   0.00000  Uiso   1.00
C1596  C     0.90017   0.29530   0.68732   0.00000  Uiso   1.00
C1597  C     0.93828   0.30459   0.99484   0.00000  Uiso   1.00
C1598  C     0.93204   0.16712   0.84551   0.00000  Uiso   1.00
C1599  C     0.92683   0.30750   0.94571   0.00000  Uiso   1.00
C1600  C     0.67954   0.16003   0.81589   0.00000  Uiso   1.00
C1601  C     0.98712   0.17330   0.85078   0.00000  Uiso   1.00
C1602  C     0.80580   0.01712   0.79314   0.00000  Uiso   1.00
C1603  C     0.86086   0.31622   0.87353   0.00000  Uiso   1.00
C1604  C     0.80126   0.30849   0.79916   0.00000  Uiso   1.00
Cu1605 Cu    0.83333   0.16667   0.88022   0.00000  Uiso   1.00
Cu1606 Cu    0.83333   0.16666   0.78645   0.00000  Uiso   1.00
H1607  H     0.76925   0.12735   0.94361   0.00000  Uiso   1.00
H1608  H     0.73437   0.28201   0.98813   0.00000  Uiso   1.00
H1609  H     0.72858   0.20982   0.67186   0.00000  Uiso   1.00
H1610  H     0.69073   0.15908   0.94178   0.00000  Uiso   1.00
H1611  H     0.71017   0.01780   0.74038   0.00000  Uiso   1.00
H1612  H     0.68992   0.02491   0.98710   0.00000  Uiso   1.00
H1613  H     0.75751   0.04058   0.94151   0.00000  Uiso   1.00
H1614  H     0.84505   0.05293   0.98269   0.00000  Uiso   1.00
H1615  H     0.86603   0.04401   0.73538   0.00000  Uiso   1.00
H1616  H     0.80060   0.28929   0.93125   0.00000  Uiso   1.00
H1617  H     0.82153   0.28035   0.68394   0.00000  Uiso   1.00
H1618  H     0.89742   0.20599   0.72306   0.00000  Uiso   1.00
H1619  H     0.90905   0.29273   0.72517   0.00000  Uiso   1.00
H1620  H     0.97667   0.30845   0.67963   0.00000  Uiso   1.00
H1621  H     0.95647   0.31556   0.92634   0.00000  Uiso   1.00
H1622  H     0.97596   0.17426   0.72488   0.00000  Uiso   1.00
H1623  H     0.93808   0.12353   0.99481   0.00000  Uiso   1.00
H1624  H     0.93224   0.05134   0.67854   0.00000  Uiso   1.00
H1625  H     0.96043   0.02938   0.75944   0.00000  Uiso   1.00
H1626  H     0.99800   0.07950   0.82300   0.00000  Uiso   1.00
H1627  H     0.66863   0.25384   0.84367   0.00000  Uiso   1.00
H1628  H     0.70617   0.30396   0.90723   0.00000  Uiso   1.00
N1629  N     0.83335   0.16668   0.95069   0.00000  Uiso   1.00
N1630  N     0.83332   0.16666   0.71597   0.00000  Uiso   1.00
O1631  O     0.83333   0.10655   0.87291   0.00000  Uiso   1.00
O1632  O     0.83334   0.22678   0.79375   0.00000  Uiso   1.00
O1633  O     0.83333   0.10654   0.79372   0.00000  Uiso   1.00
O1634  O     0.83334   0.22679   0.87294   0.00000  Uiso   1.00
O1635  O     0.75828   0.16667   0.86379   0.00000  Uiso   1.00
O1636  O     0.90839   0.16666   0.80288   0.00000  Uiso   1.00
O1637  O     0.75828   0.16666   0.78460   0.00000  Uiso   1.00
O1638  O     0.90839   0.16667   0.88207   0.00000  Uiso   1.00
Br1639 Br    0.08320   0.60783   0.75832   0.00000  Uiso   1.00
Br1640 Br    0.25013   0.39217   0.90835   0.00000  Uiso   1.00
Br1641 Br    0.07331   0.45384   0.70069   0.00000  Uiso   1.00
Br1642 Br    0.26002   0.54617   0.96598   0.00000  Uiso   1.00
C1643  C     0.16634   0.42059   0.83187   0.00000  Uiso   1.00
C1644  C     0.19873   0.35818   0.86751   0.00000  Uiso   1.00
C1645  C     0.16449   0.62423   0.83707   0.00000  Uiso   1.00
C1646  C     0.16884   0.37577   0.82960   0.00000  Uiso   1.00
C1647  C     0.13031   0.47899   0.68361   0.00000  Uiso   1.00
C1648  C     0.20302   0.52101   0.98306   0.00000  Uiso   1.00
C1649  C     0.13111   0.47821   0.96794   0.00000  Uiso   1.00
C1650  C     0.20223   0.52179   0.69873   0.00000  Uiso   1.00
C1651  C     0.32277   0.46366   0.77812   0.00000  Uiso   1.00
C1652  C     0.30504   0.47612   0.73272   0.00000  Uiso   1.00
C1653  C     0.28398   0.44757   0.69688   0.00000  Uiso   1.00
C1654  C     0.16699   0.57941   0.83479   0.00000  Uiso   1.00
C1655  C     0.28095   0.40671   0.70640   0.00000  Uiso   1.00
C1656  C     0.29724   0.39434   0.75199   0.00000  Uiso   1.00
C1657  C     0.31824   0.42271   0.78785   0.00000  Uiso   1.00
C1658  C     0.01056   0.53635   0.88854   0.00000  Uiso   1.00
C1659  C     0.01506   0.57730   0.87881   0.00000  Uiso   1.00
C1660  C     0.03605   0.60567   0.91468   0.00000  Uiso   1.00
C1661  C     0.05234   0.59330   0.96027   0.00000  Uiso   1.00
C1662  C     0.04934   0.55244   0.96979   0.00000  Uiso   1.00
C1663  C     0.02830   0.52388   0.93395   0.00000  Uiso   1.00
C1664  C     0.12322   0.36426   0.74452   0.00000  Uiso   1.00
C1665  C     0.06795   0.49955   0.82116   0.00000  Uiso   1.00
C1666  C     0.07313   0.35918   0.72100   0.00000  Uiso   1.00
C1667  C     0.06165   0.36208   0.67186   0.00000  Uiso   1.00
C1668  C     0.09975   0.37136   0.97936   0.00000  Uiso   1.00
C1669  C     0.14909   0.37860   0.66937   0.00000  Uiso   1.00
C1670  C     0.16076   0.37453   0.71814   0.00000  Uiso   1.00
C1671  C     0.21008   0.63575   0.92216   0.00000  Uiso   1.00
C1672  C     0.17252   0.62545   0.94851   0.00000  Uiso   1.00
C1673  C     0.18417   0.62137   0.99728   0.00000  Uiso   1.00
C1674  C     0.23350   0.62863   0.68732   0.00000  Uiso   1.00
C1675  C     0.27161   0.63792   0.99484   0.00000  Uiso   1.00
C1676  C     0.26538   0.50045   0.84551   0.00000  Uiso   1.00
C1677  C     0.26017   0.64084   0.94571   0.00000  Uiso   1.00
C1678  C     0.01288   0.49336   0.81589   0.00000  Uiso   1.00
C1679  C     0.32046   0.50664   0.85078   0.00000  Uiso   1.00
C1680  C     0.13913   0.35045   0.79314   0.00000  Uiso   1.00
C1681  C     0.19419   0.64955   0.87353   0.00000  Uiso   1.00
C1682  C     0.13460   0.64182   0.79916   0.00000  Uiso   1.00
Cu1683 Cu    0.16667   0.50001   0.88022   0.00000  Uiso   1.00
Cu1684 Cu    0.16667   0.49999   0.78645   0.00000  Uiso   1.00
H1685  H     0.10259   0.46068   0.94361   0.00000  Uiso   1.00
H1686  H     0.06770   0.61534   0.98813   0.00000  Uiso   1.00
H1687  H     0.06191   0.54315   0.67186   0.00000  Uiso   1.00
H1688  H     0.02406   0.49241   0.94178   0.00000  Uiso   1.00
H1689  H     0.04350   0.35113   0.74038   0.00000  Uiso   1.00
H1690  H     0.02325   0.35824   0.98710   0.00000  Uiso   1.00
H1691  H     0.09085   0.37392   0.94151   0.00000  Uiso   1.00
H1692  H     0.17838   0.38627   0.98269   0.00000  Uiso   1.00
H1693  H     0.19937   0.37734   0.73538   0.00000  Uiso   1.00
H1694  H     0.13393   0.62262   0.93125   0.00000  Uiso   1.00
H1695  H     0.15487   0.61368   0.68394   0.00000  Uiso   1.00
H1696  H     0.23075   0.53932   0.72306   0.00000  Uiso   1.00
H1697  H     0.24238   0.62606   0.72517   0.00000  Uiso   1.00
H1698  H     0.31000   0.64178   0.67963   0.00000  Uiso   1.00
H1699  H     0.28980   0.64889   0.92634   0.00000  Uiso   1.00
H1700  H     0.30929   0.50759   0.72488   0.00000  Uiso   1.00
H1701  H     0.27141   0.45686   0.99481   0.00000  Uiso   1.00
H1702  H     0.26557   0.38468   0.67854   0.00000  Uiso   1.00
H1703  H     0.29376   0.36271   0.75944   0.00000  Uiso   1.00
H1704  H     0.33134   0.41283   0.82300   0.00000  Uiso   1.00
H1705  H     0.00196   0.58717   0.84367   0.00000  Uiso   1.00
H1706  H     0.03950   0.63730   0.90723   0.00000  Uiso   1.00
N1707  N     0.16668   0.50001   0.95069   0.00000  Uiso   1.00
N1708  N     0.16665   0.49999   0.71597   0.00000  Uiso   1.00
O1709  O     0.16666   0.43989   0.87291   0.00000  Uiso   1.00
O1710  O     0.16667   0.56011   0.79375   0.00000  Uiso   1.00
O1711  O     0.16666   0.43988   0.79372   0.00000  Uiso   1.00
O1712  O     0.16667   0.56012   0.87294   0.00000  Uiso   1.00
O1713  O     0.09161   0.50000   0.86379   0.00000  Uiso   1.00
O1714  O     0.24172   0.50000   0.80288   0.00000  Uiso   1.00
O1715  O     0.09161   0.49999   0.78460   0.00000  Uiso   1.00
O1716  O     0.24172   0.50001   0.88207   0.00000  Uiso   1.00
Br1717 Br    0.41654   0.60783   0.75832   0.00000  Uiso   1.00
Br1718 Br    0.58346   0.39217   0.90835   0.00000  Uiso   1.00
Br1719 Br    0.40664   0.45384   0.70069   0.00000  Uiso   1.00
Br1720 Br    0.59335   0.54617   0.96598   0.00000  Uiso   1.00
C1721  C     0.49968   0.42059   0.83187   0.00000  Uiso   1.00
C1722  C     0.53207   0.35818   0.86751   0.00000  Uiso   1.00
C1723  C     0.49782   0.62423   0.83707   0.00000  Uiso   1.00
C1724  C     0.50217   0.37577   0.82960   0.00000  Uiso   1.00
C1725  C     0.46364   0.47899   0.68361   0.00000  Uiso   1.00
C1726  C     0.53636   0.52101   0.98306   0.00000  Uiso   1.00
C1727  C     0.46444   0.47821   0.96794   0.00000  Uiso   1.00
C1728  C     0.53556   0.52179   0.69873   0.00000  Uiso   1.00
C1729  C     0.65611   0.46366   0.77812   0.00000  Uiso   1.00
C1730  C     0.63837   0.47612   0.73272   0.00000  Uiso   1.00
C1731  C     0.61731   0.44757   0.69688   0.00000  Uiso   1.00
C1732  C     0.50032   0.57941   0.83479   0.00000  Uiso   1.00
C1733  C     0.61429   0.40671   0.70640   0.00000  Uiso   1.00
C1734  C     0.63057   0.39434   0.75199   0.00000  Uiso   1.00
C1735  C     0.65158   0.42271   0.78785   0.00000  Uiso   1.00
C1736  C     0.34389   0.53635   0.88854   0.00000  Uiso   1.00
C1737  C     0.34840   0.57730   0.87881   0.00000  Uiso   1.00
C1738  C     0.36938   0.60567   0.91468   0.00000  Uiso   1.00
C1739  C     0.38567   0.59330   0.96027   0.00000  Uiso   1.00
C1740  C     0.38267   0.55244   0.96979   0.00000  Uiso   1.00
C1741  C     0.36163   0.52388   0.93395   0.00000  Uiso   1.00
C1742  C     0.45655   0.36426   0.74452   0.00000  Uiso   1.00
C1743  C     0.40129   0.49955   0.82116   0.00000  Uiso   1.00
C1744  C     0.40646   0.35918   0.72100   0.00000  Uiso   1.00
C1745  C     0.39499   0.36208   0.67186   0.00000  Uiso   1.00
C1746  C     0.43308   0.37136   0.97936   0.00000  Uiso   1.00
C1747  C     0.48243   0.37860   0.66937   0.00000  Uiso   1.00
C1748  C     0.49410   0.37453   0.71814   0.00000  Uiso   1.00
C1749  C     0.54342   0.63575   0.92216   0.00000  Uiso   1.00
C1750  C     0.50586   0.62545   0.94851   0.00000  Uiso   1.00
C1751  C     0.51750   0.62137   0.99728   0.00000  Uiso   1.00
C1752  C     0.56684   0.62863   0.68732   0.00000  Uiso   1.00
C1753  C     0.60494   0.63792   0.99484   0.00000  Uiso   1.00
C1754  C     0.59871   0.50045   0.84551   0.00000  Uiso   1.00
C1755  C     0.59350   0.64084   0.94571   0.00000  Uiso   1.00
C1756  C     0.34621   0.49336   0.81589   0.00000  Uiso   1.00
C1757  C     0.65379   0.50664   0.85078   0.00000  Uiso   1.00
C1758  C     0.47246   0.35045   0.79314   0.00000  Uiso   1.00
C1759  C     0.52753   0.64955   0.87353   0.00000  Uiso   1.00
C1760  C     0.46793   0.64182   0.79916   0.00000  Uiso   1.00
Cu1761 Cu    0.50000   0.50001   0.88022   0.00000  Uiso   1.00
Cu1762 Cu    0.50000   0.49999   0.78645   0.00000  Uiso   1.00
H1763  H     0.43592   0.46068   0.94361   0.00000  Uiso   1.00
H1764  H     0.40104   0.61534   0.98813   0.00000  Uiso   1.00
H1765  H     0.39525   0.54315   0.67186   0.00000  Uiso   1.00
H1766  H     0.35739   0.49241   0.94178   0.00000  Uiso   1.00
H1767  H     0.37684   0.35113   0.74038   0.00000  Uiso   1.00
H1768  H     0.35659   0.35824   0.98710   0.00000  Uiso   1.00
H1769  H     0.42418   0.37392   0.94151   0.00000  Uiso   1.00
H1770  H     0.51172   0.38627   0.98269   0.00000  Uiso   1.00
H1771  H     0.53270   0.37734   0.73538   0.00000  Uiso   1.00
H1772  H     0.46726   0.62262   0.93125   0.00000  Uiso   1.00
H1773  H     0.48820   0.61368   0.68394   0.00000  Uiso   1.00
H1774  H     0.56408   0.53932   0.72306   0.00000  Uiso   1.00
H1775  H     0.57571   0.62606   0.72517   0.00000  Uiso   1.00
H1776  H     0.64334   0.64178   0.67963   0.00000  Uiso   1.00
H1777  H     0.62314   0.64889   0.92634   0.00000  Uiso   1.00
H1778  H     0.64262   0.50759   0.72488   0.00000  Uiso   1.00
H1779  H     0.60475   0.45686   0.99481   0.00000  Uiso   1.00
H1780  H     0.59890   0.38468   0.67854   0.00000  Uiso   1.00
H1781  H     0.62710   0.36271   0.75944   0.00000  Uiso   1.00
H1782  H     0.66467   0.41283   0.82300   0.00000  Uiso   1.00
H1783  H     0.33529   0.58717   0.84367   0.00000  Uiso   1.00
H1784  H     0.37284   0.63730   0.90723   0.00000  Uiso   1.00
N1785  N     0.50001   0.50001   0.95069   0.00000  Uiso   1.00
N1786  N     0.49999   0.49999   0.71597   0.00000  Uiso   1.00
O1787  O     0.50000   0.43989   0.87291   0.00000  Uiso   1.00
O1788  O     0.50000   0.56011   0.79375   0.00000  Uiso   1.00
O1789  O     0.50000   0.43988   0.79372   0.00000  Uiso   1.00
O1790  O     0.50000   0.56012   0.87294   0.00000  Uiso   1.00
O1791  O     0.42495   0.50000   0.86379   0.00000  Uiso   1.00
O1792  O     0.57505   0.50000   0.80288   0.00000  Uiso   1.00
O1793  O     0.42494   0.49999   0.78460   0.00000  Uiso   1.00
O1794  O     0.57506   0.50001   0.88207   0.00000  Uiso   1.00
Br1795 Br    0.74987   0.60783   0.75832   0.00000  Uiso   1.00
Br1796 Br    0.91679   0.39217   0.90835   0.00000  Uiso   1.00
Br1797 Br    0.73997   0.45384   0.70069   0.00000  Uiso   1.00
Br1798 Br    0.92669   0.54617   0.96598   0.00000  Uiso   1.00
C1799  C     0.83301   0.42059   0.83187   0.00000  Uiso   1.00
C1800  C     0.86540   0.35818   0.86751   0.00000  Uiso   1.00
C1801  C     0.83116   0.62423   0.83707   0.00000  Uiso   1.00
C1802  C     0.83551   0.37577   0.82960   0.00000  Uiso   1.00
C1803  C     0.79698   0.47899   0.68361   0.00000  Uiso   1.00
C1804  C     0.86969   0.52101   0.98306   0.00000  Uiso   1.00
C1805  C     0.79777   0.47821   0.96794   0.00000  Uiso   1.00
C1806  C     0.86889   0.52179   0.69873   0.00000  Uiso   1.00
C1807  C     0.98944   0.46366   0.77812   0.00000  Uiso   1.00
C1808  C     0.97170   0.47612   0.73272   0.00000  Uiso   1.00
C1809  C     0.95065   0.44757   0.69688   0.00000  Uiso   1.00
C1810  C     0.83366   0.57941   0.83479   0.00000  Uiso   1.00
C1811  C     0.94762   0.40671   0.70640   0.00000  Uiso   1.00
C1812  C     0.96390   0.39434   0.75199   0.00000  Uiso   1.00
C1813  C     0.98491   0.42271   0.78785   0.00000  Uiso   1.00
C1814  C     0.67722   0.53635   0.88854   0.00000  Uiso   1.00
C1815  C     0.68173   0.57730   0.87881   0.00000  Uiso   1.00
C1816  C     0.70272   0.60567   0.91468   0.00000  Uiso   1.00
C1817  C     0.71900   0.59330   0.96027   0.00000  Uiso   1.00
C1818  C     0.71601   0.55244   0.96979   0.00000  Uiso   1.00
C1819  C     0.69497   0.52388   0.93395   0.00000  Uiso   1.00
C1820  C     0.78989   0.36426   0.74452   0.00000  Uiso   1.00
C1821  C     0.73462   0.49955   0.82116   0.00000  Uiso   1.00
C1822  C     0.73979   0.35918   0.72100   0.00000  Uiso   1.00
C1823  C     0.72832   0.36208   0.67186   0.00000  Uiso   1.00
C1824  C     0.76641   0.37136   0.97936   0.00000  Uiso   1.00
C1825  C     0.81576   0.37860   0.66937   0.00000  Uiso   1.00
C1826  C     0.82743   0.37453   0.71814   0.00000  Uiso   1.00
C1827  C     0.87675   0.63575   0.92216   0.00000  Uiso   1.00
C1828  C     0.83919   0.62545   0.94851   0.00000  Uiso   1.00
C1829  C     0.85084   0.62137   0.99728   0.00000  Uiso   1.00
C1830  C     0.90017   0.62863   0.68732   0.00000  Uiso   1.00
C1831  C     0.93828   0.63792   0.99484   0.00000  Uiso   1.00
C1832  C     0.93204   0.50045   0.84551   0.00000  Uiso   1.00
C1833  C     0.92683   0.64084   0.94571   0.00000  Uiso   1.00
C1834  C     0.67954   0.49336   0.81589   0.00000  Uiso   1.00
C1835  C     0.98712   0.50664   0.85078   0.00000  Uiso   1.00
C1836  C     0.80580   0.35045   0.79314   0.00000  Uiso   1.00
C1837  C     0.86086   0.64955   0.87353   0.00000  Uiso   1.00
C1838  C     0.80126   0.64182   0.79916   0.00000  Uiso   1.00
Cu1839 Cu    0.83333   0.50001   0.88022   0.00000  Uiso   1.00
Cu1840 Cu    0.83333   0.49999   0.78645   0.00000  Uiso   1.00
H1841  H     0.76925   0.46068   0.94361   0.00000  Uiso   1.00
H1842  H     0.73437   0.61534   0.98813   0.00000  Uiso   1.00
H1843  H     0.72858   0.54315   0.67186   0.00000  Uiso   1.00
H1844  H     0.69073   0.49241   0.94178   0.00000  Uiso   1.00
H1845  H     0.71017   0.35113   0.74038   0.00000  Uiso   1.00
H1846  H     0.68992   0.35824   0.98710   0.00000  Uiso   1.00
H1847  H     0.75751   0.37392   0.94151   0.00000  Uiso   1.00
H1848  H     0.84505   0.38627   0.98269   0.00000  Uiso   1.00
H1849  H     0.86603   0.37734   0.73538   0.00000  Uiso   1.00
H1850  H     0.80060   0.62262   0.93125   0.00000  Uiso   1.00
H1851  H     0.82153   0.61368   0.68394   0.00000  Uiso   1.00
H1852  H     0.89742   0.53932   0.72306   0.00000  Uiso   1.00
H1853  H     0.90905   0.62606   0.72517   0.00000  Uiso   1.00
H1854  H     0.97667   0.64178   0.67963   0.00000  Uiso   1.00
H1855  H     0.95647   0.64889   0.92634   0.00000  Uiso   1.00
H1856  H     0.97596   0.50759   0.72488   0.00000  Uiso   1.00
H1857  H     0.93808   0.45686   0.99481   0.00000  Uiso   1.00
H1858  H     0.93224   0.38468   0.67854   0.00000  Uiso   1.00
H1859  H     0.96043   0.36271   0.75944   0.00000  Uiso   1.00
H1860  H     0.99800   0.41283   0.82300   0.00000  Uiso   1.00
H1861  H     0.66863   0.58717   0.84367   0.00000  Uiso   1.00
H1862  H     0.70617   0.63730   0.90723   0.00000  Uiso   1.00
N1863  N     0.83335   0.50001   0.95069   0.00000  Uiso   1.00
N1864  N     0.83332   0.49999   0.71597   0.00000  Uiso   1.00
O1865  O     0.83333   0.43989   0.87291   0.00000  Uiso   1.00
O1866  O     0.83334   0.56011   0.79375   0.00000  Uiso   1.00
O1867  O     0.83333   0.43988   0.79372   0.00000  Uiso   1.00
O1868  O     0.83334   0.56012   0.87294   0.00000  Uiso   1.00
O1869  O     0.75828   0.50000   0.86379   0.00000  Uiso   1.00
O1870  O     0.90839   0.50000   0.80288   0.00000  Uiso   1.00
O1871  O     0.75828   0.49999   0.78460   0.00000  Uiso   1.00
O1872  O     0.90839   0.50001   0.88207   0.00000  Uiso   1.00
Br1873 Br    0.08320   0.94116   0.75832   0.00000  Uiso   1.00
Br1874 Br    0.25013   0.72551   0.90835   0.00000  Uiso   1.00
Br1875 Br    0.07331   0.78717   0.70069   0.00000  Uiso   1.00
Br1876 Br    0.26002   0.87951   0.96598   0.00000  Uiso   1.00
C1877  C     0.16634   0.75393   0.83187   0.00000  Uiso   1.00
C1878  C     0.19873   0.69151   0.86751   0.00000  Uiso   1.00
C1879  C     0.16449   0.95756   0.83707   0.00000  Uiso   1.00
C1880  C     0.16884   0.70911   0.82960   0.00000  Uiso   1.00
C1881  C     0.13031   0.81232   0.68361   0.00000  Uiso   1.00
C1882  C     0.20302   0.85435   0.98306   0.00000  Uiso   1.00
C1883  C     0.13111   0.81154   0.96794   0.00000  Uiso   1.00
C1884  C     0.20223   0.85513   0.69873   0.00000  Uiso   1.00
C1885  C     0.32277   0.79699   0.77812   0.00000  Uiso   1.00
C1886  C     0.30504   0.80946   0.73272   0.00000  Uiso   1.00
C1887  C     0.28398   0.78090   0.69688   0.00000  Uiso   1.00
C1888  C     0.16699   0.91274   0.83479   0.00000  Uiso   1.00
C1889  C     0.28095   0.74005   0.70640   0.00000  Uiso   1.00
C1890  C     0.29724   0.72767   0.75199   0.00000  Uiso   1.00
C1891  C     0.31824   0.75604   0.78785   0.00000  Uiso   1.00
C1892  C     0.01056   0.86968   0.88854   0.00000  Uiso   1.00
C1893  C     0.01506   0.91063   0.87881   0.00000  Uiso   1.00
C1894  C     0.03605   0.93900   0.91468   0.00000  Uiso   1.00
C1895  C     0.05234   0.92663   0.96027   0.00000  Uiso   1.00
C1896  C     0.04934   0.88578   0.96979   0.00000  Uiso   1.00
C1897  C     0.02830   0.85722   0.93395   0.00000  Uiso   1.00
C1898  C     0.12322   0.69759   0.74452   0.00000  Uiso   1.00
C1899  C     0.06795   0.83288   0.82116   0.00000  Uiso   1.00
C1900  C     0.07313   0.69251   0.72100   0.00000  Uiso   1.00
C1901  C     0.06165   0.69542   0.67186   0.00000  Uiso   1.00
C1902  C     0.09975   0.70469   0.97936   0.00000  Uiso   1.00
C1903  C     0.14909   0.71194   0.66937   0.00000  Uiso   1.00
C1904  C     0.16076   0.70786   0.71814   0.00000  Uiso   1.00
C1905  C     0.21008   0.96908   0.92216   0.00000  Uiso   1.00
C1906  C     0.17252   0.95878   0.94851   0.00000  Uiso   1.00
C1907  C     0.18417   0.95470   0.99728   0.00000  Uiso   1.00
C1908  C     0.23350   0.96196   0.68732   0.00000  Uiso   1.00
C1909  C     0.27161   0.97126   0.99484   0.00000  Uiso   1.00
C1910  C     0.26538   0.83379   0.84551   0.00000  Uiso   1.00
C1911  C     0.26017   0.97417   0.94571   0.00000  Uiso   1.00
C1912  C     0.01288   0.82670   0.81589   0.00000  Uiso   1.00
C1913  C     0.32046   0.83997   0.85078   0.00000  Uiso   1.00
C1914  C     0.13913   0.68378   0.79314   0.00000  Uiso   1.00
C1915  C     0.19419   0.98289   0.87353   0.00000  Uiso   1.00
C1916  C     0.13460   0.97516   0.79916   0.00000  Uiso   1.00
Cu1917 Cu    0.16667   0.83334   0.88022   0.00000  Uiso   1.00
Cu1918 Cu    0.16667   0.83333   0.78645   0.00000  Uiso   1.00
H1919  H     0.10259   0.79401   0.94361   0.00000  Uiso   1.00
H1920  H     0.06770   0.94867   0.98813   0.00000  Uiso   1.00
H1921  H     0.06191   0.87648   0.67186   0.00000  Uiso   1.00
H1922  H     0.02406   0.82575   0.94178   0.00000  Uiso   1.00
H1923  H     0.04350   0.68446   0.74038   0.00000  Uiso   1.00
H1924  H     0.02325   0.69157   0.98710   0.00000  Uiso   1.00
H1925  H     0.09085   0.70725   0.94151   0.00000  Uiso   1.00
H1926  H     0.17838   0.71960   0.98269   0.00000  Uiso   1.00
H1927  H     0.19937   0.71068   0.73538   0.00000  Uiso   1.00
H1928  H     0.13393   0.95595   0.93125   0.00000  Uiso   1.00
H1929  H     0.15487   0.94702   0.68394   0.00000  Uiso   1.00
H1930  H     0.23075   0.87265   0.72306   0.00000  Uiso   1.00
H1931  H     0.24238   0.95940   0.72517   0.00000  Uiso   1.00
H1932  H     0.31000   0.97511   0.67963   0.00000  Uiso   1.00
H1933  H     0.28980   0.98223   0.92634   0.00000  Uiso   1.00
H1934  H     0.30929   0.84092   0.72488   0.00000  Uiso   1.00
H1935  H     0.27141   0.79020   0.99481   0.00000  Uiso   1.00
H1936  H     0.26557   0.71801   0.67854   0.00000  Uiso   1.00
H1937  H     0.29376   0.69605   0.75944   0.00000  Uiso   1.00
H1938  H     0.33134   0.74616   0.82300   0.00000  Uiso   1.00
H1939  H     0.00196   0.92051   0.84367   0.00000  Uiso   1.00
H1940  H     0.03950   0.97063   0.90723   0.00000  Uiso   1.00
N1941  N     0.16668   0.83334   0.95069   0.00000  Uiso   1.00
N1942  N     0.16665   0.83332   0.71597   0.00000  Uiso   1.00
O1943  O     0.16666   0.77322   0.87291   0.00000  Uiso   1.00
O1944  O     0.16667   0.89345   0.79375   0.00000  Uiso   1.00
O1945  O     0.16666   0.77321   0.79372   0.00000  Uiso   1.00
O1946  O     0.16667   0.89346   0.87294   0.00000  Uiso   1.00
O1947  O     0.09161   0.83334   0.86379   0.00000  Uiso   1.00
O1948  O     0.24172   0.83333   0.80288   0.00000  Uiso   1.00
O1949  O     0.09161   0.83333   0.78460   0.00000  Uiso   1.00
O1950  O     0.24172   0.83334   0.88207   0.00000  Uiso   1.00
Br1951 Br    0.41654   0.94116   0.75832   0.00000  Uiso   1.00
Br1952 Br    0.58346   0.72551   0.90835   0.00000  Uiso   1.00
Br1953 Br    0.40664   0.78717   0.70069   0.00000  Uiso   1.00
Br1954 Br    0.59335   0.87951   0.96598   0.00000  Uiso   1.00
C1955  C     0.49968   0.75393   0.83187   0.00000  Uiso   1.00
C1956  C     0.53207   0.69151   0.86751   0.00000  Uiso   1.00
C1957  C     0.49782   0.95756   0.83707   0.00000  Uiso   1.00
C1958  C     0.50217   0.70911   0.82960   0.00000  Uiso   1.00
C1959  C     0.46364   0.81232   0.68361   0.00000  Uiso   1.00
C1960  C     0.53636   0.85435   0.98306   0.00000  Uiso   1.00
C1961  C     0.46444   0.81154   0.96794   0.00000  Uiso   1.00
C1962  C     0.53556   0.85513   0.69873   0.00000  Uiso   1.00
C1963  C     0.65611   0.79699   0.77812   0.00000  Uiso   1.00
C1964  C     0.63837   0.80946   0.73272   0.00000  Uiso   1.00
C1965  C     0.61731   0.78090   0.69688   0.00000  Uiso   1.00
C1966  C     0.50032   0.91274   0.83479   0.00000  Uiso   1.00
C1967  C     0.61429   0.74005   0.70640   0.00000  Uiso   1.00
C1968  C     0.63057   0.72767   0.75199   0.00000  Uiso   1.00
C1969  C     0.65158   0.75604   0.78785   0.00000  Uiso   1.00
C1970  C     0.34389   0.86968   0.88854   0.00000  Uiso   1.00
C1971  C     0.34840   0.91063   0.87881   0.00000  Uiso   1.00
C1972  C     0.36938   0.93900   0.91468   0.00000  Uiso   1.00
C1973  C     0.38567   0.92663   0.96027   0.00000  Uiso   1.00
C1974  C     0.38267   0.88578   0.96979   0.00000  Uiso   1.00
C1975  C     0.36163   0.85722   0.93395   0.00000  Uiso   1.00
C1976  C     0.45655   0.69759   0.74452   0.00000  Uiso   1.00
C1977  C     0.40129   0.83288   0.82116   0.00000  Uiso   1.00
C1978  C     0.40646   0.69251   0.72100   0.00000  Uiso   1.00
C1979  C     0.39499   0.69542   0.67186   0.00000  Uiso   1.00
C1980  C     0.43308   0.70469   0.97936   0.00000  Uiso   1.00
C1981  C     0.48243   0.71194   0.66937   0.00000  Uiso   1.00
C1982  C     0.49410   0.70786   0.71814   0.00000  Uiso   1.00
C1983  C     0.54342   0.96908   0.92216   0.00000  Uiso   1.00
C1984  C     0.50586   0.95878   0.94851   0.00000  Uiso   1.00
C1985  C     0.51750   0.95470   0.99728   0.00000  Uiso   1.00
C1986  C     0.56684   0.96196   0.68732   0.00000  Uiso   1.00
C1987  C     0.60494   0.97126   0.99484   0.00000  Uiso   1.00
C1988  C     0.59871   0.83379   0.84551   0.00000  Uiso   1.00
C1989  C     0.59350   0.97417   0.94571   0.00000  Uiso   1.00
C1990  C     0.34621   0.82670   0.81589   0.00000  Uiso   1.00
C1991  C     0.65379   0.83997   0.85078   0.00000  Uiso   1.00
C1992  C     0.47246   0.68378   0.79314   0.00000  Uiso   1.00
C1993  C     0.52753   0.98289   0.87353   0.00000  Uiso   1.00
C1994  C     0.46793   0.97516   0.79916   0.00000  Uiso   1.00
Cu1995 Cu    0.50000   0.83334   0.88022   0.00000  Uiso   1.00
Cu1996 Cu    0.50000   0.83333   0.78645   0.00000  Uiso   1.00
H1997  H     0.43592   0.79401   0.94361   0.00000  Uiso   1.00
H1998  H     0.40104   0.94867   0.98813   0.00000  Uiso   1.00
H1999  H     0.39525   0.87648   0.67186   0.00000  Uiso   1.00
H2000  H     0.35739   0.82575   0.94178   0.00000  Uiso   1.00
H2001  H     0.37684   0.68446   0.74038   0.00000  Uiso   1.00
H2002  H     0.35659   0.69157   0.98710   0.00000  Uiso   1.00
H2003  H     0.42418   0.70725   0.94151   0.00000  Uiso   1.00
H2004  H     0.51172   0.71960   0.98269   0.00000  Uiso   1.00
H2005  H     0.53270   0.71068   0.73538   0.00000  Uiso   1.00
H2006  H     0.46726   0.95595   0.93125   0.00000  Uiso   1.00
H2007  H     0.48820   0.94702   0.68394   0.00000  Uiso   1.00
H2008  H     0.56408   0.87265   0.72306   0.00000  Uiso   1.00
H2009  H     0.57571   0.95940   0.72517   0.00000  Uiso   1.00
H2010  H     0.64334   0.97511   0.67963   0.00000  Uiso   1.00
H2011  H     0.62314   0.98223   0.92634   0.00000  Uiso   1.00
H2012  H     0.64262   0.84092   0.72488   0.00000  Uiso   1.00
H2013  H     0.60475   0.79020   0.99481   0.00000  Uiso   1.00
H2014  H     0.59890   0.71801   0.67854   0.00000  Uiso   1.00
H2015  H     0.62710   0.69605   0.75944   0.00000  Uiso   1.00
H2016  H     0.66467   0.74616   0.82300   0.00000  Uiso   1.00
H2017  H     0.33529   0.92051   0.84367   0.00000  Uiso   1.00
H2018  H     0.37284   0.97063   0.90723   0.00000  Uiso   1.00
N2019  N     0.50001   0.83334   0.95069   0.00000  Uiso   1.00
N2020  N     0.49999   0.83332   0.71597   0.00000  Uiso   1.00
O2021  O     0.50000   0.77322   0.87291   0.00000  Uiso   1.00
O2022  O     0.50000   0.89345   0.79375   0.00000  Uiso   1.00
O2023  O     0.50000   0.77321   0.79372   0.00000  Uiso   1.00
O2024  O     0.50000   0.89346   0.87294   0.00000  Uiso   1.00
O2025  O     0.42495   0.83334   0.86379   0.00000  Uiso   1.00
O2026  O     0.57505   0.83333   0.80288   0.00000  Uiso   1.00
O2027  O     0.42494   0.83333   0.78460   0.00000  Uiso   1.00
O2028  O     0.57506   0.83334   0.88207   0.00000  Uiso   1.00
Br2029 Br    0.74987   0.94116   0.75832   0.00000  Uiso   1.00
Br2030 Br    0.91679   0.72551   0.90835   0.00000  Uiso   1.00
Br2031 Br    0.73997   0.78717   0.70069   0.00000  Uiso   1.00
Br2032 Br    0.92669   0.87951   0.96598   0.00000  Uiso   1.00
C2033  C     0.83301   0.75393   0.83187   0.00000  Uiso   1.00
C2034  C     0.86540   0.69151   0.86751   0.00000  Uiso   1.00
C2035  C     0.83116   0.95756   0.83707   0.00000  Uiso   1.00
C2036  C     0.83551   0.70911   0.82960   0.00000  Uiso   1.00
C2037  C     0.79698   0.81232   0.68361   0.00000  Uiso   1.00
C2038  C     0.86969   0.85435   0.98306   0.00000  Uiso   1.00
C2039  C     0.79777   0.81154   0.96794   0.00000  Uiso   1.00
C2040  C     0.86889   0.85513   0.69873   0.00000  Uiso   1.00
C2041  C     0.98944   0.79699   0.77812   0.00000  Uiso   1.00
C2042  C     0.97170   0.80946   0.73272   0.00000  Uiso   1.00
C2043  C     0.95065   0.78090   0.69688   0.00000  Uiso   1.00
C2044  C     0.83366   0.91274   0.83479   0.00000  Uiso   1.00
C2045  C     0.94762   0.74005   0.70640   0.00000  Uiso   1.00
C2046  C     0.96390   0.72767   0.75199   0.00000  Uiso   1.00
C2047  C     0.98491   0.75604   0.78785   0.00000  Uiso   1.00
C2048  C     0.67722   0.86968   0.88854   0.00000  Uiso   1.00
C2049  C     0.68173   0.91063   0.87881   0.00000  Uiso   1.00
C2050  C     0.70272   0.93900   0.91468   0.00000  Uiso   1.00
C2051  C     0.71900   0.92663   0.96027   0.00000  Uiso   1.00
C2052  C     0.71601   0.88578   0.96979   0.00000  Uiso   1.00
C2053  C     0.69497   0.85722   0.93395   0.00000  Uiso   1.00
C2054  C     0.78989   0.69759   0.74452   0.00000  Uiso   1.00
C2055  C     0.73462   0.83288   0.82116   0.00000  Uiso   1.00
C2056  C     0.73979   0.69251   0.72100   0.00000  Uiso   1.00
C2057  C     0.72832   0.69542   0.67186   0.00000  Uiso   1.00
C2058  C     0.76641   0.70469   0.97936   0.00000  Uiso   1.00
C2059  C     0.81576   0.71194   0.66937   0.00000  Uiso   1.00
C2060  C     0.82743   0.70786   0.71814   0.00000  Uiso   1.00
C2061  C     0.87675   0.96908   0.92216   0.00000  Uiso   1.00
C2062  C     0.83919   0.95878   0.94851   0.00000  Uiso   1.00
C2063  C     0.85084   0.95470   0.99728   0.00000  Uiso   1.00
C2064  C     0.90017   0.96196   0.68732   0.00000  Uiso   1.00
C2065  C     0.93828   0.97126   0.99484   0.00000  Uiso   1.00
C2066  C     0.93204   0.83379   0.84551   0.00000  Uiso   1.00
C2067  C     0.92683   0.97417   0.94571   0.00000  Uiso   1.00
C2068  C     0.67954   0.82670   0.81589   0.00000  Uiso   1.00
C2069  C     0.98712   0.83997   0.85078   0.00000  Uiso   1.00
C2070  C     0.80580   0.68378   0.79314   0.00000  Uiso   1.00
C2071  C     0.86086   0.98289   0.87353   0.00000  Uiso   1.00
C2072  C     0.80126   0.97516   0.79916   0.00000  Uiso   1.00
Cu2073 Cu    0.83333   0.83334   0.88022   0.00000  Uiso   1.00
Cu2074 Cu    0.83333   0.83333   0.78645   0.00000  Uiso   1.00
H2075  H     0.76925   0.79401   0.94361   0.00000  Uiso   1.00
H2076  H     0.73437   0.94867   0.98813   0.00000  Uiso   1.00
H2077  H     0.72858   0.87648   0.67186   0.00000  Uiso   1.00
H2078  H     0.69073   0.82575   0.94178   0.00000  Uiso   1.00
H2079  H     0.71017   0.68446   0.74038   0.00000  Uiso   1.00
H2080  H     0.68992   0.69157   0.98710   0.00000  Uiso   1.00
H2081  H     0.75751   0.70725   0.94151   0.00000  Uiso   1.00
H2082  H     0.84505   0.71960   0.98269   0.00000  Uiso   1.00
H2083  H     0.86603   0.71068   0.73538   0.00000  Uiso   1.00
H2084  H     0.80060   0.95595   0.93125   0.00000  Uiso   1.00
H2085  H     0.82153   0.94702   0.68394   0.00000  Uiso   1.00
H2086  H     0.89742   0.87265   0.72306   0.00000  Uiso   1.00
H2087  H     0.90905   0.95940   0.72517   0.00000  Uiso   1.00
H2088  H     0.97667   0.97511   0.67963   0.00000  Uiso   1.00
H2089  H     0.95647   0.98223   0.92634   0.00000  Uiso   1.00
H2090  H     0.97596   0.84092   0.72488   0.00000  Uiso   1.00
H2091  H     0.93808   0.79020   0.99481   0.00000  Uiso   1.00
H2092  H     0.93224   0.71801   0.67854   0.00000  Uiso   1.00
H2093  H     0.96043   0.69605   0.75944   0.00000  Uiso   1.00
H2094  H     0.99800   0.74616   0.82300   0.00000  Uiso   1.00
H2095  H     0.66863   0.92051   0.84367   0.00000  Uiso   1.00
H2096  H     0.70617   0.97063   0.90723   0.00000  Uiso   1.00
N2097  N     0.83335   0.83334   0.95069   0.00000  Uiso   1.00
N2098  N     0.83332   0.83332   0.71597   0.00000  Uiso   1.00
O2099  O     0.83333   0.77322   0.87291   0.00000  Uiso   1.00
O2100  O     0.83334   0.89345   0.79375   0.00000  Uiso   1.00
O2101  O     0.83333   0.77321   0.79372   0.00000  Uiso   1.00
O2102  O     0.83334   0.89346   0.87294   0.00000  Uiso   1.00
O2103  O     0.75828   0.83334   0.86379   0.00000  Uiso   1.00
O2104  O     0.90839   0.83333   0.80288   0.00000  Uiso   1.00
O2105  O     0.75828   0.83333   0.78460   0.00000  Uiso   1.00
O2106  O     0.90839   0.83334   0.88207   0.00000  Uiso   1.00
loop_
_geom_bond_atom_site_label_1
_geom_bond_atom_site_label_2
_geom_bond_distance
_geom_bond_site_symmetry_2
_ccdc_geom_bond_type
Br1    C44     1.947   .     S
Br2    C6      1.947   .     S
Br3    C9      1.868   .     S
Br4    C10     1.868   .     S
C5     C8      1.486   .     S
C5     O71     1.312   .     A
C5     O73     1.296   .     A
C6     C8      1.407   .     A
C6     C511    1.411   1_545 S
C7     C43     1.426   .     A
C7     C44     1.407   .     A
C7     C16     1.486   .     S
C8     C42     1.426   .     A
C9     N70     1.378   .     A
C9     C1415   1.411   1_554 S
C10    N69     1.378   .     A
C10    C714    1.411   .     S
C11    H47     1.081   .     S
C11    N69     1.352   .     A
C11    C711    1.411   .     S
C12    H58     1.081   .     S
C12    N70     1.352   .     A
C12    C1414   1.411   1_554 S
C13    C19     1.402   .     A
C13    C14     1.401   .     A
C13    C118    1.474   .     S
C14    H62     1.082   .     S
C14    C15     1.397   .     A
C15    C17     1.394   .     A
C15    H1467   1.081   1_554 S
C16    O72     1.312   .     A
C16    O74     1.296   .     A
C17    H64     1.076   .     S
C17    C18     1.397   .     A
C18    H65     1.082   .     S
C18    C19     1.394   .     A
C19    H66     1.083   .     S
C20    C25     1.400   .     A
C20    C21     1.402   .     A
C20    C197    1.474   1_455 S
C21    C22     1.394   .     A
C21    H67     1.083   .     S
C22    H68     1.082   .     S
C22    C23     1.397   .     A
C23    C24     1.394   .     A
C23    H48     1.076   .     S
C24    C25     1.397   .     A
C24    H751    1.081   .     S
C25    H50     1.082   .     S
C26    C32     1.402   .     A
C26    C42     1.491   .     S
C26    C28     1.407   .     A
C27    O75     1.284   .     A
C27    C40     1.472   .     S
C27    O77     1.315   .     A
C28    H51     1.079   .     S
C28    C29     1.403   .     A
C29    C1434   1.396   1_554 S
C29    H1456   1.079   1_554 S
C30    H53     1.082   .     S
C30    C731    1.396   .     S
C30    C733    1.394   .     S
C31    C32     1.399   .     A
C31    C1434   1.394   1_554 S
C31    H1458   1.080   1_554 S
C32    H55     1.074   .     S
C33    C39     1.407   .     A
C33    C43     1.491   .     S
C33    C34     1.402   .     A
C34    H56     1.074   .     S
C34    C35     1.399   .     A
C35    C738    1.394   .     S
C35    H759    1.080   .     S
C36    H59     1.082   .     S
C36    C1439   1.394   1_554 S
C36    C1441   1.396   1_554 S
C37    C39     1.403   .     A
C37    C738    1.396   .     S
C37    H762    1.079   .     S
C38    O76     1.284   .     A
C38    C41     1.472   .     S
C38    O78     1.315   .     A
C39    H61     1.079   .     S
C40    C169    1.474   1_455 S
C40    C197    1.373   1_455 S
C41    C98     1.474   .     S
C41    C118    1.373   .     S
C42    C512    1.411   1_545 S
C43    C240    1.411   .     S
C44    C276    1.411   .     S
Cu45   O71     1.990   .     S
Cu45   Cu46    2.695   .     S
Cu45   O78     2.013   .     S
Cu45   N69     2.025   .     S
Cu45   O74     2.010   .     S
Cu45   O75     1.999   .     S
Cu46   O76     1.999   .     S
Cu46   O72     1.990   .     S
Cu46   O77     2.013   .     S
Cu46   N70     2.025   .     S
Cu46   O73     2.010   .     S
H49    C1428   1.081   1_554 S
H52    C731    1.079   .     S
H54    C733    1.080   .     S
H57    C1439   1.080   1_554 S
H60    C1441   1.079   1_554 S
H63    C717    1.081   .     S
Br79   C122    1.947   .     S
Br80   C84     1.947   .     S
Br81   C87     1.868   .     S
Br82   C88     1.868   .     S
C83    C86     1.486   .     S
C83    O149    1.312   .     A
C83    O151    1.296   .     A
C84    C86     1.407   .     A
C84    C589    1.411   1_545 S
C85    C121    1.426   .     A
C85    C122    1.407   .     A
C85    C94     1.486   .     S
C86    C120    1.426   .     A
C87    N148    1.378   .     A
C87    C1493   1.411   1_554 S
C88    N147    1.378   .     A
C88    C792    1.411   .     S
C89    H125    1.081   .     S
C89    N147    1.352   .     A
C89    C789    1.411   .     S
C90    H136    1.081   .     S
C90    N148    1.352   .     A
C90    C1492   1.411   1_554 S
C91    C97     1.402   .     A
C91    C92     1.401   .     A
C91    C196    1.474   .     S
C92    H140    1.082   .     S
C92    C93     1.397   .     A
C93    C95     1.394   .     A
C93    H1545   1.081   1_554 S
C94    O150    1.312   .     A
C94    O152    1.296   .     A
C95    H142    1.076   .     S
C95    C96     1.397   .     A
C96    H143    1.082   .     S
C96    C97     1.394   .     A
C97    H144    1.083   .     S
C98    C103    1.400   .     A
C98    C99     1.402   .     A
C99    C100    1.394   .     A
C99    H145    1.083   .     S
C100   H146    1.082   .     S
C100   C101    1.397   .     A
C101   C102    1.394   .     A
C101   H126    1.076   .     S
C102   C103    1.397   .     A
C102   H829    1.081   .     S
C103   H128    1.082   .     S
C104   C110    1.402   .     A
C104   C120    1.491   .     S
C104   C106    1.407   .     A
C105   O153    1.284   .     A
C105   C118    1.472   .     S
C105   O155    1.315   .     A
C106   H129    1.079   .     S
C106   C107    1.403   .     A
C107   C1512   1.396   1_554 S
C107   H1534   1.079   1_554 S
C108   H131    1.082   .     S
C108   C809    1.396   .     S
C108   C811    1.394   .     S
C109   C110    1.399   .     A
C109   C1512   1.394   1_554 S
C109   H1536   1.080   1_554 S
C110   H133    1.074   .     S
C111   C117    1.407   .     A
C111   C121    1.491   .     S
C111   C112    1.402   .     A
C112   H134    1.074   .     S
C112   C113    1.399   .     A
C113   C816    1.394   .     S
C113   H837    1.080   .     S
C114   H137    1.082   .     S
C114   C1517   1.394   1_554 S
C114   C1519   1.396   1_554 S
C115   C117    1.403   .     A
C115   C816    1.396   .     S
C115   H840    1.079   .     S
C116   O154    1.284   .     A
C116   C119    1.472   .     S
C116   O156    1.315   .     A
C117   H139    1.079   .     S
C119   C176    1.474   .     S
C119   C196    1.373   .     S
C120   C590    1.411   1_545 S
C121   C318    1.411   .     S
C122   C354    1.411   .     S
Cu123  O149    1.990   .     S
Cu123  Cu124   2.695   .     S
Cu123  O156    2.013   .     S
Cu123  N147    2.025   .     S
Cu123  O152    2.010   .     S
Cu123  O153    1.999   .     S
Cu124  O154    1.999   .     S
Cu124  O150    1.990   .     S
Cu124  O155    2.013   .     S
Cu124  N148    2.025   .     S
Cu124  O151    2.010   .     S
H127   C1506   1.081   1_554 S
H130   C809    1.079   .     S
H132   C811    1.080   .     S
H135   C1517   1.080   1_554 S
H138   C1519   1.079   1_554 S
H141   C795    1.081   .     S
Br157  C200    1.947   .     S
Br158  C162    1.947   .     S
Br159  C165    1.868   .     S
Br160  C166    1.868   .     S
C161   C164    1.486   .     S
C161   O227    1.312   .     A
C161   O229    1.296   .     A
C162   C164    1.407   .     A
C162   C667    1.411   1_545 S
C163   C199    1.426   .     A
C163   C200    1.407   .     A
C163   C172    1.486   .     S
C164   C198    1.426   .     A
C165   N226    1.378   .     A
C165   C1571   1.411   1_554 S
C166   N225    1.378   .     A
C166   C870    1.411   .     S
C167   H203    1.081   .     S
C167   N225    1.352   .     A
C167   C867    1.411   .     S
C168   H214    1.081   .     S
C168   N226    1.352   .     A
C168   C1570   1.411   1_554 S
C169   C175    1.402   .     A
C169   C170    1.401   .     A
C169   C40     1.474   1_655 S
C170   H218    1.082   .     S
C170   C171    1.397   .     A
C171   C173    1.394   .     A
C171   H1623   1.081   1_554 S
C172   O228    1.312   .     A
C172   O230    1.296   .     A
C173   H220    1.076   .     S
C173   C174    1.397   .     A
C174   H221    1.082   .     S
C174   C175    1.394   .     A
C175   H222    1.083   .     S
C176   C181    1.400   .     A
C176   C177    1.402   .     A
C177   C178    1.394   .     A
C177   H223    1.083   .     S
C178   H224    1.082   .     S
C178   C179    1.397   .     A
C179   C180    1.394   .     A
C179   H204    1.076   .     S
C180   C181    1.397   .     A
C180   H907    1.081   .     S
C181   H206    1.082   .     S
C182   C188    1.402   .     A
C182   C198    1.491   .     S
C182   C184    1.407   .     A
C183   O231    1.284   .     A
C183   C196    1.472   .     S
C183   O233    1.315   .     A
C184   H207    1.079   .     S
C184   C185    1.403   .     A
C185   C1590   1.396   1_554 S
C185   H1612   1.079   1_554 S
C186   H209    1.082   .     S
C186   C887    1.396   .     S
C186   C889    1.394   .     S
C187   C188    1.399   .     A
C187   C1590   1.394   1_554 S
C187   H1614   1.080   1_554 S
C188   H211    1.074   .     S
C189   C195    1.407   .     A
C189   C199    1.491   .     S
C189   C190    1.402   .     A
C190   H212    1.074   .     S
C190   C191    1.399   .     A
C191   C894    1.394   .     S
C191   H915    1.080   .     S
C192   H215    1.082   .     S
C192   C1595   1.394   1_554 S
C192   C1597   1.396   1_554 S
C193   C195    1.403   .     A
C193   C894    1.396   .     S
C193   H918    1.079   .     S
C194   O232    1.284   .     A
C194   C197    1.472   .     S
C194   O234    1.315   .     A
C195   H217    1.079   .     S
C197   C20     1.474   1_655 S
C197   C40     1.373   1_655 S
C198   C668    1.411   1_545 S
C199   C396    1.411   .     S
C200   C432    1.411   .     S
Cu201  O227    1.990   .     S
Cu201  Cu202   2.695   .     S
Cu201  O234    2.013   .     S
Cu201  N225    2.025   .     S
Cu201  O230    2.010   .     S
Cu201  O231    1.999   .     S
Cu202  O232    1.999   .     S
Cu202  O228    1.990   .     S
Cu202  O233    2.013   .     S
Cu202  N226    2.025   .     S
Cu202  O229    2.010   .     S
H205   C1584   1.081   1_554 S
H208   C887    1.079   .     S
H210   C889    1.080   .     S
H213   C1595   1.080   1_554 S
H216   C1597   1.079   1_554 S
H219   C873    1.081   .     S
Br235  C278    1.947   .     S
Br236  C240    1.947   .     S
Br237  C243    1.868   .     S
Br238  C244    1.868   .     S
C239   C242    1.486   .     S
C239   O305    1.312   .     A
C239   O307    1.296   .     A
C240   C242    1.407   .     A
C241   C277    1.426   .     A
C241   C278    1.407   .     A
C241   C250    1.486   .     S
C242   C276    1.426   .     A
C243   N304    1.378   .     A
C243   C1649   1.411   1_554 S
C244   N303    1.378   .     A
C244   C948    1.411   .     S
C245   H281    1.081   .     S
C245   N303    1.352   .     A
C245   C945    1.411   .     S
C246   H292    1.081   .     S
C246   N304    1.352   .     A
C246   C1648   1.411   1_554 S
C247   C253    1.402   .     A
C247   C248    1.401   .     A
C247   C352    1.474   .     S
C248   H296    1.082   .     S
C248   C249    1.397   .     A
C249   C251    1.394   .     A
C249   H1701   1.081   1_554 S
C250   O306    1.312   .     A
C250   O308    1.296   .     A
C251   H298    1.076   .     S
C251   C252    1.397   .     A
C252   H299    1.082   .     S
C252   C253    1.394   .     A
C253   H300    1.083   .     S
C254   C259    1.400   .     A
C254   C255    1.402   .     A
C254   C431    1.474   1_455 S
C255   C256    1.394   .     A
C255   H301    1.083   .     S
C256   H302    1.082   .     S
C256   C257    1.397   .     A
C257   C258    1.394   .     A
C257   H282    1.076   .     S
C258   C259    1.397   .     A
C258   H985    1.081   .     S
C259   H284    1.082   .     S
C260   C266    1.402   .     A
C260   C276    1.491   .     S
C260   C262    1.407   .     A
C261   O309    1.284   .     A
C261   C274    1.472   .     S
C261   O311    1.315   .     A
C262   H285    1.079   .     S
C262   C263    1.403   .     A
C263   C1668   1.396   1_554 S
C263   H1690   1.079   1_554 S
C264   H287    1.082   .     S
C264   C965    1.396   .     S
C264   C967    1.394   .     S
C265   C266    1.399   .     A
C265   C1668   1.394   1_554 S
C265   H1692   1.080   1_554 S
C266   H289    1.074   .     S
C267   C273    1.407   .     A
C267   C277    1.491   .     S
C267   C268    1.402   .     A
C268   H290    1.074   .     S
C268   C269    1.399   .     A
C269   C972    1.394   .     S
C269   H993    1.080   .     S
C270   H293    1.082   .     S
C270   C1673   1.394   1_554 S
C270   C1675   1.396   1_554 S
C271   C273    1.403   .     A
C271   C972    1.396   .     S
C271   H996    1.079   .     S
C272   O310    1.284   .     A
C272   C275    1.472   .     S
C272   O312    1.315   .     A
C273   H295    1.079   .     S
C274   C403    1.474   1_455 S
C274   C431    1.373   1_455 S
C275   C332    1.474   .     S
C275   C352    1.373   .     S
C277   C474    1.411   .     S
C278   C510    1.411   .     S
Cu279  O305    1.990   .     S
Cu279  Cu280   2.695   .     S
Cu279  O312    2.013   .     S
Cu279  N303    2.025   .     S
Cu279  O308    2.010   .     S
Cu279  O309    1.999   .     S
Cu280  O310    1.999   .     S
Cu280  O306    1.990   .     S
Cu280  O311    2.013   .     S
Cu280  N304    2.025   .     S
Cu280  O307    2.010   .     S
H283   C1662   1.081   1_554 S
H286   C965    1.079   .     S
H288   C967    1.080   .     S
H291   C1673   1.080   1_554 S
H294   C1675   1.079   1_554 S
H297   C951    1.081   .     S
Br313  C356    1.947   .     S
Br314  C318    1.947   .     S
Br315  C321    1.868   .     S
Br316  C322    1.868   .     S
C317   C320    1.486   .     S
C317   O383    1.312   .     A
C317   O385    1.296   .     A
C318   C320    1.407   .     A
C319   C355    1.426   .     A
C319   C356    1.407   .     A
C319   C328    1.486   .     S
C320   C354    1.426   .     A
C321   N382    1.378   .     A
C321   C1727   1.411   1_554 S
C322   N381    1.378   .     A
C322   C1026   1.411   .     S
C323   H359    1.081   .     S
C323   N381    1.352   .     A
C323   C1023   1.411   .     S
C324   H370    1.081   .     S
C324   N382    1.352   .     A
C324   C1726   1.411   1_554 S
C325   C331    1.402   .     A
C325   C326    1.401   .     A
C325   C430    1.474   .     S
C326   H374    1.082   .     S
C326   C327    1.397   .     A
C327   C329    1.394   .     A
C327   H1779   1.081   1_554 S
C328   O384    1.312   .     A
C328   O386    1.296   .     A
C329   H376    1.076   .     S
C329   C330    1.397   .     A
C330   H377    1.082   .     S
C330   C331    1.394   .     A
C331   H378    1.083   .     S
C332   C337    1.400   .     A
C332   C333    1.402   .     A
C333   C334    1.394   .     A
C333   H379    1.083   .     S
C334   H380    1.082   .     S
C334   C335    1.397   .     A
C335   C336    1.394   .     A
C335   H360    1.076   .     S
C336   C337    1.397   .     A
C336   H1063   1.081   .     S
C337   H362    1.082   .     S
C338   C344    1.402   .     A
C338   C354    1.491   .     S
C338   C340    1.407   .     A
C339   O387    1.284   .     A
C339   C352    1.472   .     S
C339   O389    1.315   .     A
C340   H363    1.079   .     S
C340   C341    1.403   .     A
C341   C1746   1.396   1_554 S
C341   H1768   1.079   1_554 S
C342   H365    1.082   .     S
C342   C1043   1.396   .     S
C342   C1045   1.394   .     S
C343   C344    1.399   .     A
C343   C1746   1.394   1_554 S
C343   H1770   1.080   1_554 S
C344   H367    1.074   .     S
C345   C351    1.407   .     A
C345   C355    1.491   .     S
C345   C346    1.402   .     A
C346   H368    1.074   .     S
C346   C347    1.399   .     A
C347   C1050   1.394   .     S
C347   H1071   1.080   .     S
C348   H371    1.082   .     S
C348   C1751   1.394   1_554 S
C348   C1753   1.396   1_554 S
C349   C351    1.403   .     A
C349   C1050   1.396   .     S
C349   H1074   1.079   .     S
C350   O388    1.284   .     A
C350   C353    1.472   .     S
C350   O390    1.315   .     A
C351   H373    1.079   .     S
C353   C410    1.474   .     S
C353   C430    1.373   .     S
C355   C552    1.411   .     S
C356   C588    1.411   .     S
Cu357  O383    1.990   .     S
Cu357  Cu358   2.695   .     S
Cu357  O390    2.013   .     S
Cu357  N381    2.025   .     S
Cu357  O386    2.010   .     S
Cu357  O387    1.999   .     S
Cu358  O388    1.999   .     S
Cu358  O384    1.990   .     S
Cu358  O389    2.013   .     S
Cu358  N382    2.025   .     S
Cu358  O385    2.010   .     S
H361   C1740   1.081   1_554 S
H364   C1043   1.079   .     S
H366   C1045   1.080   .     S
H369   C1751   1.080   1_554 S
H372   C1753   1.079   1_554 S
H375   C1029   1.081   .     S
Br391  C434    1.947   .     S
Br392  C396    1.947   .     S
Br393  C399    1.868   .     S
Br394  C400    1.868   .     S
C395   C398    1.486   .     S
C395   O461    1.312   .     A
C395   O463    1.296   .     A
C396   C398    1.407   .     A
C397   C433    1.426   .     A
C397   C434    1.407   .     A
C397   C406    1.486   .     S
C398   C432    1.426   .     A
C399   N460    1.378   .     A
C399   C1805   1.411   1_554 S
C400   N459    1.378   .     A
C400   C1104   1.411   .     S
C401   H437    1.081   .     S
C401   N459    1.352   .     A
C401   C1101   1.411   .     S
C402   H448    1.081   .     S
C402   N460    1.352   .     A
C402   C1804   1.411   1_554 S
C403   C409    1.402   .     A
C403   C404    1.401   .     A
C403   C274    1.474   1_655 S
C404   H452    1.082   .     S
C404   C405    1.397   .     A
C405   C407    1.394   .     A
C405   H1857   1.081   1_554 S
C406   O462    1.312   .     A
C406   O464    1.296   .     A
C407   H454    1.076   .     S
C407   C408    1.397   .     A
C408   H455    1.082   .     S
C408   C409    1.394   .     A
C409   H456    1.083   .     S
C410   C415    1.400   .     A
C410   C411    1.402   .     A
C411   C412    1.394   .     A
C411   H457    1.083   .     S
C412   H458    1.082   .     S
C412   C413    1.397   .     A
C413   C414    1.394   .     A
C413   H438    1.076   .     S
C414   C415    1.397   .     A
C414   H1141   1.081   .     S
C415   H440    1.082   .     S
C416   C422    1.402   .     A
C416   C432    1.491   .     S
C416   C418    1.407   .     A
C417   O465    1.284   .     A
C417   C430    1.472   .     S
C417   O467    1.315   .     A
C418   H441    1.079   .     S
C418   C419    1.403   .     A
C419   C1824   1.396   1_554 S
C419   H1846   1.079   1_554 S
C420   H443    1.082   .     S
C420   C1121   1.396   .     S
C420   C1123   1.394   .     S
C421   C422    1.399   .     A
C421   C1824   1.394   1_554 S
C421   H1848   1.080   1_554 S
C422   H445    1.074   .     S
C423   C429    1.407   .     A
C423   C433    1.491   .     S
C423   C424    1.402   .     A
C424   H446    1.074   .     S
C424   C425    1.399   .     A
C425   C1128   1.394   .     S
C425   H1149   1.080   .     S
C426   H449    1.082   .     S
C426   C1829   1.394   1_554 S
C426   C1831   1.396   1_554 S
C427   C429    1.403   .     A
C427   C1128   1.396   .     S
C427   H1152   1.079   .     S
C428   O466    1.284   .     A
C428   C431    1.472   .     S
C428   O468    1.315   .     A
C429   H451    1.079   .     S
C431   C254    1.474   1_655 S
C431   C274    1.373   1_655 S
C433   C630    1.411   .     S
C434   C666    1.411   .     S
Cu435  O461    1.990   .     S
Cu435  Cu436   2.695   .     S
Cu435  O468    2.013   .     S
Cu435  N459    2.025   .     S
Cu435  O464    2.010   .     S
Cu435  O465    1.999   .     S
Cu436  O466    1.999   .     S
Cu436  O462    1.990   .     S
Cu436  O467    2.013   .     S
Cu436  N460    2.025   .     S
Cu436  O463    2.010   .     S
H439   C1818   1.081   1_554 S
H442   C1121   1.079   .     S
H444   C1123   1.080   .     S
H447   C1829   1.080   1_554 S
H450   C1831   1.079   1_554 S
H453   C1107   1.081   .     S
Br469  C512    1.947   .     S
Br470  C474    1.947   .     S
Br471  C477    1.868   .     S
Br472  C478    1.868   .     S
C473   C476    1.486   .     S
C473   O539    1.312   .     A
C473   O541    1.296   .     A
C474   C476    1.407   .     A
C475   C511    1.426   .     A
C475   C512    1.407   .     A
C475   C484    1.486   .     S
C476   C510    1.426   .     A
C477   N538    1.378   .     A
C477   C1883   1.411   1_554 S
C478   N537    1.378   .     A
C478   C1182   1.411   .     S
C479   H515    1.081   .     S
C479   N537    1.352   .     A
C479   C1179   1.411   .     S
C480   H526    1.081   .     S
C480   N538    1.352   .     A
C480   C1882   1.411   1_554 S
C481   C487    1.402   .     A
C481   C482    1.401   .     A
C481   C586    1.474   .     S
C482   H530    1.082   .     S
C482   C483    1.397   .     A
C483   C485    1.394   .     A
C483   H1935   1.081   1_554 S
C484   O540    1.312   .     A
C484   O542    1.296   .     A
C485   H532    1.076   .     S
C485   C486    1.397   .     A
C486   H533    1.082   .     S
C486   C487    1.394   .     A
C487   H534    1.083   .     S
C488   C493    1.400   .     A
C488   C489    1.402   .     A
C488   C665    1.474   1_455 S
C489   C490    1.394   .     A
C489   H535    1.083   .     S
C490   H536    1.082   .     S
C490   C491    1.397   .     A
C491   C492    1.394   .     A
C491   H516    1.076   .     S
C492   C493    1.397   .     A
C492   H1219   1.081   .     S
C493   H518    1.082   .     S
C494   C500    1.402   .     A
C494   C510    1.491   .     S
C494   C496    1.407   .     A
C495   O543    1.284   .     A
C495   C508    1.472   .     S
C495   O545    1.315   .     A
C496   H519    1.079   .     S
C496   C497    1.403   .     A
C497   C1902   1.396   1_554 S
C497   H1924   1.079   1_554 S
C498   H521    1.082   .     S
C498   C1199   1.396   .     S
C498   C1201   1.394   .     S
C499   C500    1.399   .     A
C499   C1902   1.394   1_554 S
C499   H1926   1.080   1_554 S
C500   H523    1.074   .     S
C501   C507    1.407   .     A
C501   C511    1.491   .     S
C501   C502    1.402   .     A
C502   H524    1.074   .     S
C502   C503    1.399   .     A
C503   C1206   1.394   .     S
C503   H1227   1.080   .     S
C504   H527    1.082   .     S
C504   C1907   1.394   1_554 S
C504   C1909   1.396   1_554 S
C505   C507    1.403   .     A
C505   C1206   1.396   .     S
C505   H1230   1.079   .     S
C506   O544    1.284   .     A
C506   C509    1.472   .     S
C506   O546    1.315   .     A
C507   H529    1.079   .     S
C508   C637    1.474   1_455 S
C508   C665    1.373   1_455 S
C509   C566    1.474   .     S
C509   C586    1.373   .     S
C511   C6      1.411   1_565 S
C512   C42     1.411   1_565 S
Cu513  O539    1.990   .     S
Cu513  Cu514   2.695   .     S
Cu513  O546    2.013   .     S
Cu513  N537    2.025   .     S
Cu513  O542    2.010   .     S
Cu513  O543    1.999   .     S
Cu514  O544    1.999   .     S
Cu514  O540    1.990   .     S
Cu514  O545    2.013   .     S
Cu514  N538    2.025   .     S
Cu514  O541    2.010   .     S
H517   C1896   1.081   1_554 S
H520   C1199   1.079   .     S
H522   C1201   1.080   .     S
H525   C1907   1.080   1_554 S
H528   C1909   1.079   1_554 S
H531   C1185   1.081   .     S
Br547  C590    1.947   .     S
Br548  C552    1.947   .     S
Br549  C555    1.868   .     S
Br550  C556    1.868   .     S
C551   C554    1.486   .     S
C551   O617    1.312   .     A
C551   O619    1.296   .     A
C552   C554    1.407   .     A
C553   C589    1.426   .     A
C553   C590    1.407   .     A
C553   C562    1.486   .     S
C554   C588    1.426   .     A
C555   N616    1.378   .     A
C555   C1961   1.411   1_554 S
C556   N615    1.378   .     A
C556   C1260   1.411   .     S
C557   H593    1.081   .     S
C557   N615    1.352   .     A
C557   C1257   1.411   .     S
C558   H604    1.081   .     S
C558   N616    1.352   .     A
C558   C1960   1.411   1_554 S
C559   C565    1.402   .     A
C559   C560    1.401   .     A
C559   C664    1.474   .     S
C560   H608    1.082   .     S
C560   C561    1.397   .     A
C561   C563    1.394   .     A
C561   H2013   1.081   1_554 S
C562   O618    1.312   .     A
C562   O620    1.296   .     A
C563   H610    1.076   .     S
C563   C564    1.397   .     A
C564   H611    1.082   .     S
C564   C565    1.394   .     A
C565   H612    1.083   .     S
C566   C571    1.400   .     A
C566   C567    1.402   .     A
C567   C568    1.394   .     A
C567   H613    1.083   .     S
C568   H614    1.082   .     S
C568   C569    1.397   .     A
C569   C570    1.394   .     A
C569   H594    1.076   .     S
C570   C571    1.397   .     A
C570   H1297   1.081   .     S
C571   H596    1.082   .     S
C572   C578    1.402   .     A
C572   C588    1.491   .     S
C572   C574    1.407   .     A
C573   O621    1.284   .     A
C573   C586    1.472   .     S
C573   O623    1.315   .     A
C574   H597    1.079   .     S
C574   C575    1.403   .     A
C575   C1980   1.396   1_554 S
C575   H2002   1.079   1_554 S
C576   H599    1.082   .     S
C576   C1277   1.396   .     S
C576   C1279   1.394   .     S
C577   C578    1.399   .     A
C577   C1980   1.394   1_554 S
C577   H2004   1.080   1_554 S
C578   H601    1.074   .     S
C579   C585    1.407   .     A
C579   C589    1.491   .     S
C579   C580    1.402   .     A
C580   H602    1.074   .     S
C580   C581    1.399   .     A
C581   C1284   1.394   .     S
C581   H1305   1.080   .     S
C582   H605    1.082   .     S
C582   C1985   1.394   1_554 S
C582   C1987   1.396   1_554 S
C583   C585    1.403   .     A
C583   C1284   1.396   .     S
C583   H1308   1.079   .     S
C584   O622    1.284   .     A
C584   C587    1.472   .     S
C584   O624    1.315   .     A
C585   H607    1.079   .     S
C587   C644    1.474   .     S
C587   C664    1.373   .     S
C589   C84     1.411   1_565 S
C590   C120    1.411   1_565 S
Cu591  O617    1.990   .     S
Cu591  Cu592   2.695   .     S
Cu591  O624    2.013   .     S
Cu591  N615    2.025   .     S
Cu591  O620    2.010   .     S
Cu591  O621    1.999   .     S
Cu592  O622    1.999   .     S
Cu592  O618    1.990   .     S
Cu592  O623    2.013   .     S
Cu592  N616    2.025   .     S
Cu592  O619    2.010   .     S
H595   C1974   1.081   1_554 S
H598   C1277   1.079   .     S
H600   C1279   1.080   .     S
H603   C1985   1.080   1_554 S
H606   C1987   1.079   1_554 S
H609   C1263   1.081   .     S
Br625  C668    1.947   .     S
Br626  C630    1.947   .     S
Br627  C633    1.868   .     S
Br628  C634    1.868   .     S
C629   C632    1.486   .     S
C629   O695    1.312   .     A
C629   O697    1.296   .     A
C630   C632    1.407   .     A
C631   C667    1.426   .     A
C631   C668    1.407   .     A
C631   C640    1.486   .     S
C632   C666    1.426   .     A
C633   N694    1.378   .     A
C633   C2039   1.411   1_554 S
C634   N693    1.378   .     A
C634   C1338   1.411   .     S
C635   H671    1.081   .     S
C635   N693    1.352   .     A
C635   C1335   1.411   .     S
C636   H682    1.081   .     S
C636   N694    1.352   .     A
C636   C2038   1.411   1_554 S
C637   C643    1.402   .     A
C637   C638    1.401   .     A
C637   C508    1.474   1_655 S
C638   H686    1.082   .     S
C638   C639    1.397   .     A
C639   C641    1.394   .     A
C639   H2091   1.081   1_554 S
C640   O696    1.312   .     A
C640   O698    1.296   .     A
C641   H688    1.076   .     S
C641   C642    1.397   .     A
C642   H689    1.082   .     S
C642   C643    1.394   .     A
C643   H690    1.083   .     S
C644   C649    1.400   .     A
C644   C645    1.402   .     A
C645   C646    1.394   .     A
C645   H691    1.083   .     S
C646   H692    1.082   .     S
C646   C647    1.397   .     A
C647   C648    1.394   .     A
C647   H672    1.076   .     S
C648   C649    1.397   .     A
C648   H1375   1.081   .     S
C649   H674    1.082   .     S
C650   C656    1.402   .     A
C650   C666    1.491   .     S
C650   C652    1.407   .     A
C651   O699    1.284   .     A
C651   C664    1.472   .     S
C651   O701    1.315   .     A
C652   H675    1.079   .     S
C652   C653    1.403   .     A
C653   C2058   1.396   1_554 S
C653   H2080   1.079   1_554 S
C654   H677    1.082   .     S
C654   C1355   1.396   .     S
C654   C1357   1.394   .     S
C655   C656    1.399   .     A
C655   C2058   1.394   1_554 S
C655   H2082   1.080   1_554 S
C656   H679    1.074   .     S
C657   C663    1.407   .     A
C657   C667    1.491   .     S
C657   C658    1.402   .     A
C658   H680    1.074   .     S
C658   C659    1.399   .     A
C659   C1362   1.394   .     S
C659   H1383   1.080   .     S
C660   H683    1.082   .     S
C660   C2063   1.394   1_554 S
C660   C2065   1.396   1_554 S
C661   C663    1.403   .     A
C661   C1362   1.396   .     S
C661   H1386   1.079   .     S
C662   O700    1.284   .     A
C662   C665    1.472   .     S
C662   O702    1.315   .     A
C663   H685    1.079   .     S
C665   C488    1.474   1_655 S
C665   C508    1.373   1_655 S
C667   C162    1.411   1_565 S
C668   C198    1.411   1_565 S
Cu669  O695    1.990   .     S
Cu669  Cu670   2.695   .     S
Cu669  O702    2.013   .     S
Cu669  N693    2.025   .     S
Cu669  O698    2.010   .     S
Cu669  O699    1.999   .     S
Cu670  O700    1.999   .     S
Cu670  O696    1.990   .     S
Cu670  O701    2.013   .     S
Cu670  N694    2.025   .     S
Cu670  O697    2.010   .     S
H673   C2052   1.081   1_554 S
H676   C1355   1.079   .     S
H678   C1357   1.080   .     S
H681   C2063   1.080   1_554 S
H684   C2065   1.079   1_554 S
H687   C1341   1.081   .     S
Br703  C746    1.947   .     S
Br704  C708    1.947   .     S
Br705  C711    1.868   .     S
Br706  C712    1.868   .     S
C707   C710    1.486   .     S
C707   O773    1.312   .     A
C707   O775    1.296   .     A
C708   C710    1.407   .     A
C708   C1213   1.411   1_545 S
C709   C745    1.426   .     A
C709   C746    1.407   .     A
C709   C718    1.486   .     S
C710   C744    1.426   .     A
C711   N772    1.378   .     A
C712   N771    1.378   .     A
C712   C1416   1.411   .     S
C713   H749    1.081   .     S
C713   N771    1.352   .     A
C713   C1413   1.411   .     S
C714   H760    1.081   .     S
C714   N772    1.352   .     A
C715   C721    1.402   .     A
C715   C716    1.401   .     A
C715   C820    1.474   .     S
C716   H764    1.082   .     S
C716   C717    1.397   .     A
C717   C719    1.394   .     A
C718   O774    1.312   .     A
C718   O776    1.296   .     A
C719   H766    1.076   .     S
C719   C720    1.397   .     A
C720   H767    1.082   .     S
C720   C721    1.394   .     A
C721   H768    1.083   .     S
C722   C727    1.400   .     A
C722   C723    1.402   .     A
C722   C899    1.474   1_455 S
C723   C724    1.394   .     A
C723   H769    1.083   .     S
C724   H770    1.082   .     S
C724   C725    1.397   .     A
C725   C726    1.394   .     A
C725   H750    1.076   .     S
C726   C727    1.397   .     A
C726   H1453   1.081   .     S
C727   H752    1.082   .     S
C728   C734    1.402   .     A
C728   C744    1.491   .     S
C728   C730    1.407   .     A
C729   O777    1.284   .     A
C729   C742    1.472   .     S
C729   O779    1.315   .     A
C730   H753    1.079   .     S
C730   C731    1.403   .     A
C732   H755    1.082   .     S
C732   C1433   1.396   .     S
C732   C1435   1.394   .     S
C733   C734    1.399   .     A
C734   H757    1.074   .     S
C735   C741    1.407   .     A
C735   C745    1.491   .     S
C735   C736    1.402   .     A
C736   H758    1.074   .     S
C736   C737    1.399   .     A
C737   C1440   1.394   .     S
C737   H1461   1.080   .     S
C738   H761    1.082   .     S
C739   C741    1.403   .     A
C739   C1440   1.396   .     S
C739   H1464   1.079   .     S
C740   O778    1.284   .     A
C740   C743    1.472   .     S
C740   O780    1.315   .     A
C741   H763    1.079   .     S
C742   C871    1.474   1_455 S
C742   C899    1.373   1_455 S
C743   C800    1.474   .     S
C743   C820    1.373   .     S
C744   C1214   1.411   1_545 S
C745   C942    1.411   .     S
C746   C978    1.411   .     S
Cu747  O773    1.990   .     S
Cu747  Cu748   2.695   .     S
Cu747  O780    2.013   .     S
Cu747  N771    2.025   .     S
Cu747  O776    2.010   .     S
Cu747  O777    1.999   .     S
Cu748  O778    1.999   .     S
Cu748  O774    1.990   .     S
Cu748  O779    2.013   .     S
Cu748  N772    2.025   .     S
Cu748  O775    2.010   .     S
H754   C1433   1.079   .     S
H756   C1435   1.080   .     S
H765   C1419   1.081   .     S
Br781  C824    1.947   .     S
Br782  C786    1.947   .     S
Br783  C789    1.868   .     S
Br784  C790    1.868   .     S
C785   C788    1.486   .     S
C785   O851    1.312   .     A
C785   O853    1.296   .     A
C786   C788    1.407   .     A
C786   C1291   1.411   1_545 S
C787   C823    1.426   .     A
C787   C824    1.407   .     A
C787   C796    1.486   .     S
C788   C822    1.426   .     A
C789   N850    1.378   .     A
C790   N849    1.378   .     A
C790   C1494   1.411   .     S
C791   H827    1.081   .     S
C791   N849    1.352   .     A
C791   C1491   1.411   .     S
C792   H838    1.081   .     S
C792   N850    1.352   .     A
C793   C799    1.402   .     A
C793   C794    1.401   .     A
C793   C898    1.474   .     S
C794   H842    1.082   .     S
C794   C795    1.397   .     A
C795   C797    1.394   .     A
C796   O852    1.312   .     A
C796   O854    1.296   .     A
C797   H844    1.076   .     S
C797   C798    1.397   .     A
C798   H845    1.082   .     S
C798   C799    1.394   .     A
C799   H846    1.083   .     S
C800   C805    1.400   .     A
C800   C801    1.402   .     A
C801   C802    1.394   .     A
C801   H847    1.083   .     S
C802   H848    1.082   .     S
C802   C803    1.397   .     A
C803   C804    1.394   .     A
C803   H828    1.076   .     S
C804   C805    1.397   .     A
C804   H1531   1.081   .     S
C805   H830    1.082   .     S
C806   C812    1.402   .     A
C806   C822    1.491   .     S
C806   C808    1.407   .     A
C807   O855    1.284   .     A
C807   C820    1.472   .     S
C807   O857    1.315   .     A
C808   H831    1.079   .     S
C808   C809    1.403   .     A
C810   H833    1.082   .     S
C810   C1511   1.396   .     S
C810   C1513   1.394   .     S
C811   C812    1.399   .     A
C812   H835    1.074   .     S
C813   C819    1.407   .     A
C813   C823    1.491   .     S
C813   C814    1.402   .     A
C814   H836    1.074   .     S
C814   C815    1.399   .     A
C815   C1518   1.394   .     S
C815   H1539   1.080   .     S
C816   H839    1.082   .     S
C817   C819    1.403   .     A
C817   C1518   1.396   .     S
C817   H1542   1.079   .     S
C818   O856    1.284   .     A
C818   C821    1.472   .     S
C818   O858    1.315   .     A
C819   H841    1.079   .     S
C821   C878    1.474   .     S
C821   C898    1.373   .     S
C822   C1292   1.411   1_545 S
C823   C1020   1.411   .     S
C824   C1056   1.411   .     S
Cu825  O851    1.990   .     S
Cu825  Cu826   2.695   .     S
Cu825  O858    2.013   .     S
Cu825  N849    2.025   .     S
Cu825  O854    2.010   .     S
Cu825  O855    1.999   .     S
Cu826  O856    1.999   .     S
Cu826  O852    1.990   .     S
Cu826  O857    2.013   .     S
Cu826  N850    2.025   .     S
Cu826  O853    2.010   .     S
H832   C1511   1.079   .     S
H834   C1513   1.080   .     S
H843   C1497   1.081   .     S
Br859  C902    1.947   .     S
Br860  C864    1.947   .     S
Br861  C867    1.868   .     S
Br862  C868    1.868   .     S
C863   C866    1.486   .     S
C863   O929    1.312   .     A
C863   O931    1.296   .     A
C864   C866    1.407   .     A
C864   C1369   1.411   1_545 S
C865   C901    1.426   .     A
C865   C902    1.407   .     A
C865   C874    1.486   .     S
C866   C900    1.426   .     A
C867   N928    1.378   .     A
C868   N927    1.378   .     A
C868   C1572   1.411   .     S
C869   H905    1.081   .     S
C869   N927    1.352   .     A
C869   C1569   1.411   .     S
C870   H916    1.081   .     S
C870   N928    1.352   .     A
C871   C877    1.402   .     A
C871   C872    1.401   .     A
C871   C742    1.474   1_655 S
C872   H920    1.082   .     S
C872   C873    1.397   .     A
C873   C875    1.394   .     A
C874   O930    1.312   .     A
C874   O932    1.296   .     A
C875   H922    1.076   .     S
C875   C876    1.397   .     A
C876   H923    1.082   .     S
C876   C877    1.394   .     A
C877   H924    1.083   .     S
C878   C883    1.400   .     A
C878   C879    1.402   .     A
C879   C880    1.394   .     A
C879   H925    1.083   .     S
C880   H926    1.082   .     S
C880   C881    1.397   .     A
C881   C882    1.394   .     A
C881   H906    1.076   .     S
C882   C883    1.397   .     A
C882   H1609   1.081   .     S
C883   H908    1.082   .     S
C884   C890    1.402   .     A
C884   C900    1.491   .     S
C884   C886    1.407   .     A
C885   O933    1.284   .     A
C885   C898    1.472   .     S
C885   O935    1.315   .     A
C886   H909    1.079   .     S
C886   C887    1.403   .     A
C888   H911    1.082   .     S
C888   C1589   1.396   .     S
C888   C1591   1.394   .     S
C889   C890    1.399   .     A
C890   H913    1.074   .     S
C891   C897    1.407   .     A
C891   C901    1.491   .     S
C891   C892    1.402   .     A
C892   H914    1.074   .     S
C892   C893    1.399   .     A
C893   C1596   1.394   .     S
C893   H1617   1.080   .     S
C894   H917    1.082   .     S
C895   C897    1.403   .     A
C895   C1596   1.396   .     S
C895   H1620   1.079   .     S
C896   O934    1.284   .     A
C896   C899    1.472   .     S
C896   O936    1.315   .     A
C897   H919    1.079   .     S
C899   C722    1.474   1_655 S
C899   C742    1.373   1_655 S
C900   C1370   1.411   1_545 S
C901   C1098   1.411   .     S
C902   C1134   1.411   .     S
Cu903  O929    1.990   .     S
Cu903  Cu904   2.695   .     S
Cu903  O936    2.013   .     S
Cu903  N927    2.025   .     S
Cu903  O932    2.010   .     S
Cu903  O933    1.999   .     S
Cu904  O934    1.999   .     S
Cu904  O930    1.990   .     S
Cu904  O935    2.013   .     S
Cu904  N928    2.025   .     S
Cu904  O931    2.010   .     S
H910   C1589   1.079   .     S
H912   C1591   1.080   .     S
H921   C1575   1.081   .     S
Br937  C980    1.947   .     S
Br938  C942    1.947   .     S
Br939  C945    1.868   .     S
Br940  C946    1.868   .     S
C941   C944    1.486   .     S
C941   O1007   1.312   .     A
C941   O1009   1.296   .     A
C942   C944    1.407   .     A
C943   C979    1.426   .     A
C943   C980    1.407   .     A
C943   C952    1.486   .     S
C944   C978    1.426   .     A
C945   N1006   1.378   .     A
C946   N1005   1.378   .     A
C946   C1650   1.411   .     S
C947   H983    1.081   .     S
C947   N1005   1.352   .     A
C947   C1647   1.411   .     S
C948   H994    1.081   .     S
C948   N1006   1.352   .     A
C949   C955    1.402   .     A
C949   C950    1.401   .     A
C949   C1054   1.474   .     S
C950   H998    1.082   .     S
C950   C951    1.397   .     A
C951   C953    1.394   .     A
C952   O1008   1.312   .     A
C952   O1010   1.296   .     A
C953   H1000   1.076   .     S
C953   C954    1.397   .     A
C954   H1001   1.082   .     S
C954   C955    1.394   .     A
C955   H1002   1.083   .     S
C956   C961    1.400   .     A
C956   C957    1.402   .     A
C956   C1133   1.474   1_455 S
C957   C958    1.394   .     A
C957   H1003   1.083   .     S
C958   H1004   1.082   .     S
C958   C959    1.397   .     A
C959   C960    1.394   .     A
C959   H984    1.076   .     S
C960   C961    1.397   .     A
C960   H1687   1.081   .     S
C961   H986    1.082   .     S
C962   C968    1.402   .     A
C962   C978    1.491   .     S
C962   C964    1.407   .     A
C963   O1011   1.284   .     A
C963   C976    1.472   .     S
C963   O1013   1.315   .     A
C964   H987    1.079   .     S
C964   C965    1.403   .     A
C966   H989    1.082   .     S
C966   C1667   1.396   .     S
C966   C1669   1.394   .     S
C967   C968    1.399   .     A
C968   H991    1.074   .     S
C969   C975    1.407   .     A
C969   C979    1.491   .     S
C969   C970    1.402   .     A
C970   H992    1.074   .     S
C970   C971    1.399   .     A
C971   C1674   1.394   .     S
C971   H1695   1.080   .     S
C972   H995    1.082   .     S
C973   C975    1.403   .     A
C973   C1674   1.396   .     S
C973   H1698   1.079   .     S
C974   O1012   1.284   .     A
C974   C977    1.472   .     S
C974   O1014   1.315   .     A
C975   H997    1.079   .     S
C976   C1105   1.474   1_455 S
C976   C1133   1.373   1_455 S
C977   C1034   1.474   .     S
C977   C1054   1.373   .     S
C979   C1176   1.411   .     S
C980   C1212   1.411   .     S
Cu981  O1007   1.990   .     S
Cu981  Cu982   2.695   .     S
Cu981  O1014   2.013   .     S
Cu981  N1005   2.025   .     S
Cu981  O1010   2.010   .     S
Cu981  O1011   1.999   .     S
Cu982  O1012   1.999   .     S
Cu982  O1008   1.990   .     S
Cu982  O1013   2.013   .     S
Cu982  N1006   2.025   .     S
Cu982  O1009   2.010   .     S
H988   C1667   1.079   .     S
H990   C1669   1.080   .     S
H999   C1653   1.081   .     S
Br1015 C1058   1.947   .     S
Br1016 C1020   1.947   .     S
Br1017 C1023   1.868   .     S
Br1018 C1024   1.868   .     S
C1019  C1022   1.486   .     S
C1019  O1085   1.312   .     A
C1019  O1087   1.296   .     A
C1020  C1022   1.407   .     A
C1021  C1057   1.426   .     A
C1021  C1058   1.407   .     A
C1021  C1030   1.486   .     S
C1022  C1056   1.426   .     A
C1023  N1084   1.378   .     A
C1024  N1083   1.378   .     A
C1024  C1728   1.411   .     S
C1025  H1061   1.081   .     S
C1025  N1083   1.352   .     A
C1025  C1725   1.411   .     S
C1026  H1072   1.081   .     S
C1026  N1084   1.352   .     A
C1027  C1033   1.402   .     A
C1027  C1028   1.401   .     A
C1027  C1132   1.474   .     S
C1028  H1076   1.082   .     S
C1028  C1029   1.397   .     A
C1029  C1031   1.394   .     A
C1030  O1086   1.312   .     A
C1030  O1088   1.296   .     A
C1031  H1078   1.076   .     S
C1031  C1032   1.397   .     A
C1032  H1079   1.082   .     S
C1032  C1033   1.394   .     A
C1033  H1080   1.083   .     S
C1034  C1039   1.400   .     A
C1034  C1035   1.402   .     A
C1035  C1036   1.394   .     A
C1035  H1081   1.083   .     S
C1036  H1082   1.082   .     S
C1036  C1037   1.397   .     A
C1037  C1038   1.394   .     A
C1037  H1062   1.076   .     S
C1038  C1039   1.397   .     A
C1038  H1765   1.081   .     S
C1039  H1064   1.082   .     S
C1040  C1046   1.402   .     A
C1040  C1056   1.491   .     S
C1040  C1042   1.407   .     A
C1041  O1089   1.284   .     A
C1041  C1054   1.472   .     S
C1041  O1091   1.315   .     A
C1042  H1065   1.079   .     S
C1042  C1043   1.403   .     A
C1044  H1067   1.082   .     S
C1044  C1745   1.396   .     S
C1044  C1747   1.394   .     S
C1045  C1046   1.399   .     A
C1046  H1069   1.074   .     S
C1047  C1053   1.407   .     A
C1047  C1057   1.491   .     S
C1047  C1048   1.402   .     A
C1048  H1070   1.074   .     S
C1048  C1049   1.399   .     A
C1049  C1752   1.394   .     S
C1049  H1773   1.080   .     S
C1050  H1073   1.082   .     S
C1051  C1053   1.403   .     A
C1051  C1752   1.396   .     S
C1051  H1776   1.079   .     S
C1052  O1090   1.284   .     A
C1052  C1055   1.472   .     S
C1052  O1092   1.315   .     A
C1053  H1075   1.079   .     S
C1055  C1112   1.474   .     S
C1055  C1132   1.373   .     S
C1057  C1254   1.411   .     S
C1058  C1290   1.411   .     S
Cu1059 O1085   1.990   .     S
Cu1059 Cu1060  2.695   .     S
Cu1059 O1092   2.013   .     S
Cu1059 N1083   2.025   .     S
Cu1059 O1088   2.010   .     S
Cu1059 O1089   1.999   .     S
Cu1060 O1090   1.999   .     S
Cu1060 O1086   1.990   .     S
Cu1060 O1091   2.013   .     S
Cu1060 N1084   2.025   .     S
Cu1060 O1087   2.010   .     S
H1066  C1745   1.079   .     S
H1068  C1747   1.080   .     S
H1077  C1731   1.081   .     S
Br1093 C1136   1.947   .     S
Br1094 C1098   1.947   .     S
Br1095 C1101   1.868   .     S
Br1096 C1102   1.868   .     S
C1097  C1100   1.486   .     S
C1097  O1163   1.312   .     A
C1097  O1165   1.296   .     A
C1098  C1100   1.407   .     A
C1099  C1135   1.426   .     A
C1099  C1136   1.407   .     A
C1099  C1108   1.486   .     S
C1100  C1134   1.426   .     A
C1101  N1162   1.378   .     A
C1102  N1161   1.378   .     A
C1102  C1806   1.411   .     S
C1103  H1139   1.081   .     S
C1103  N1161   1.352   .     A
C1103  C1803   1.411   .     S
C1104  H1150   1.081   .     S
C1104  N1162   1.352   .     A
C1105  C1111   1.402   .     A
C1105  C1106   1.401   .     A
C1105  C976    1.474   1_655 S
C1106  H1154   1.082   .     S
C1106  C1107   1.397   .     A
C1107  C1109   1.394   .     A
C1108  O1164   1.312   .     A
C1108  O1166   1.296   .     A
C1109  H1156   1.076   .     S
C1109  C1110   1.397   .     A
C1110  H1157   1.082   .     S
C1110  C1111   1.394   .     A
C1111  H1158   1.083   .     S
C1112  C1117   1.400   .     A
C1112  C1113   1.402   .     A
C1113  C1114   1.394   .     A
C1113  H1159   1.083   .     S
C1114  H1160   1.082   .     S
C1114  C1115   1.397   .     A
C1115  C1116   1.394   .     A
C1115  H1140   1.076   .     S
C1116  C1117   1.397   .     A
C1116  H1843   1.081   .     S
C1117  H1142   1.082   .     S
C1118  C1124   1.402   .     A
C1118  C1134   1.491   .     S
C1118  C1120   1.407   .     A
C1119  O1167   1.284   .     A
C1119  C1132   1.472   .     S
C1119  O1169   1.315   .     A
C1120  H1143   1.079   .     S
C1120  C1121   1.403   .     A
C1122  H1145   1.082   .     S
C1122  C1823   1.396   .     S
C1122  C1825   1.394   .     S
C1123  C1124   1.399   .     A
C1124  H1147   1.074   .     S
C1125  C1131   1.407   .     A
C1125  C1135   1.491   .     S
C1125  C1126   1.402   .     A
C1126  H1148   1.074   .     S
C1126  C1127   1.399   .     A
C1127  C1830   1.394   .     S
C1127  H1851   1.080   .     S
C1128  H1151   1.082   .     S
C1129  C1131   1.403   .     A
C1129  C1830   1.396   .     S
C1129  H1854   1.079   .     S
C1130  O1168   1.284   .     A
C1130  C1133   1.472   .     S
C1130  O1170   1.315   .     A
C1131  H1153   1.079   .     S
C1133  C956    1.474   1_655 S
C1133  C976    1.373   1_655 S
C1135  C1332   1.411   .     S
C1136  C1368   1.411   .     S
Cu1137 O1163   1.990   .     S
Cu1137 Cu1138  2.695   .     S
Cu1137 O1170   2.013   .     S
Cu1137 N1161   2.025   .     S
Cu1137 O1166   2.010   .     S
Cu1137 O1167   1.999   .     S
Cu1138 O1168   1.999   .     S
Cu1138 O1164   1.990   .     S
Cu1138 O1169   2.013   .     S
Cu1138 N1162   2.025   .     S
Cu1138 O1165   2.010   .     S
H1144  C1823   1.079   .     S
H1146  C1825   1.080   .     S
H1155  C1809   1.081   .     S
Br1171 C1214   1.947   .     S
Br1172 C1176   1.947   .     S
Br1173 C1179   1.868   .     S
Br1174 C1180   1.868   .     S
C1175  C1178   1.486   .     S
C1175  O1241   1.312   .     A
C1175  O1243   1.296   .     A
C1176  C1178   1.407   .     A
C1177  C1213   1.426   .     A
C1177  C1214   1.407   .     A
C1177  C1186   1.486   .     S
C1178  C1212   1.426   .     A
C1179  N1240   1.378   .     A
C1180  N1239   1.378   .     A
C1180  C1884   1.411   .     S
C1181  H1217   1.081   .     S
C1181  N1239   1.352   .     A
C1181  C1881   1.411   .     S
C1182  H1228   1.081   .     S
C1182  N1240   1.352   .     A
C1183  C1189   1.402   .     A
C1183  C1184   1.401   .     A
C1183  C1288   1.474   .     S
C1184  H1232   1.082   .     S
C1184  C1185   1.397   .     A
C1185  C1187   1.394   .     A
C1186  O1242   1.312   .     A
C1186  O1244   1.296   .     A
C1187  H1234   1.076   .     S
C1187  C1188   1.397   .     A
C1188  H1235   1.082   .     S
C1188  C1189   1.394   .     A
C1189  H1236   1.083   .     S
C1190  C1195   1.400   .     A
C1190  C1191   1.402   .     A
C1190  C1367   1.474   1_455 S
C1191  C1192   1.394   .     A
C1191  H1237   1.083   .     S
C1192  H1238   1.082   .     S
C1192  C1193   1.397   .     A
C1193  C1194   1.394   .     A
C1193  H1218   1.076   .     S
C1194  C1195   1.397   .     A
C1194  H1921   1.081   .     S
C1195  H1220   1.082   .     S
C1196  C1202   1.402   .     A
C1196  C1212   1.491   .     S
C1196  C1198   1.407   .     A
C1197  O1245   1.284   .     A
C1197  C1210   1.472   .     S
C1197  O1247   1.315   .     A
C1198  H1221   1.079   .     S
C1198  C1199   1.403   .     A
C1200  H1223   1.082   .     S
C1200  C1901   1.396   .     S
C1200  C1903   1.394   .     S
C1201  C1202   1.399   .     A
C1202  H1225   1.074   .     S
C1203  C1209   1.407   .     A
C1203  C1213   1.491   .     S
C1203  C1204   1.402   .     A
C1204  H1226   1.074   .     S
C1204  C1205   1.399   .     A
C1205  C1908   1.394   .     S
C1205  H1929   1.080   .     S
C1206  H1229   1.082   .     S
C1207  C1209   1.403   .     A
C1207  C1908   1.396   .     S
C1207  H1932   1.079   .     S
C1208  O1246   1.284   .     A
C1208  C1211   1.472   .     S
C1208  O1248   1.315   .     A
C1209  H1231   1.079   .     S
C1210  C1339   1.474   1_455 S
C1210  C1367   1.373   1_455 S
C1211  C1268   1.474   .     S
C1211  C1288   1.373   .     S
C1213  C708    1.411   1_565 S
C1214  C744    1.411   1_565 S
Cu1215 O1241   1.990   .     S
Cu1215 Cu1216  2.695   .     S
Cu1215 O1248   2.013   .     S
Cu1215 N1239   2.025   .     S
Cu1215 O1244   2.010   .     S
Cu1215 O1245   1.999   .     S
Cu1216 O1246   1.999   .     S
Cu1216 O1242   1.990   .     S
Cu1216 O1247   2.013   .     S
Cu1216 N1240   2.025   .     S
Cu1216 O1243   2.010   .     S
H1222  C1901   1.079   .     S
H1224  C1903   1.080   .     S
H1233  C1887   1.081   .     S
Br1249 C1292   1.947   .     S
Br1250 C1254   1.947   .     S
Br1251 C1257   1.868   .     S
Br1252 C1258   1.868   .     S
C1253  C1256   1.486   .     S
C1253  O1319   1.312   .     A
C1253  O1321   1.296   .     A
C1254  C1256   1.407   .     A
C1255  C1291   1.426   .     A
C1255  C1292   1.407   .     A
C1255  C1264   1.486   .     S
C1256  C1290   1.426   .     A
C1257  N1318   1.378   .     A
C1258  N1317   1.378   .     A
C1258  C1962   1.411   .     S
C1259  H1295   1.081   .     S
C1259  N1317   1.352   .     A
C1259  C1959   1.411   .     S
C1260  H1306   1.081   .     S
C1260  N1318   1.352   .     A
C1261  C1267   1.402   .     A
C1261  C1262   1.401   .     A
C1261  C1366   1.474   .     S
C1262  H1310   1.082   .     S
C1262  C1263   1.397   .     A
C1263  C1265   1.394   .     A
C1264  O1320   1.312   .     A
C1264  O1322   1.296   .     A
C1265  H1312   1.076   .     S
C1265  C1266   1.397   .     A
C1266  H1313   1.082   .     S
C1266  C1267   1.394   .     A
C1267  H1314   1.083   .     S
C1268  C1273   1.400   .     A
C1268  C1269   1.402   .     A
C1269  C1270   1.394   .     A
C1269  H1315   1.083   .     S
C1270  H1316   1.082   .     S
C1270  C1271   1.397   .     A
C1271  C1272   1.394   .     A
C1271  H1296   1.076   .     S
C1272  C1273   1.397   .     A
C1272  H1999   1.081   .     S
C1273  H1298   1.082   .     S
C1274  C1280   1.402   .     A
C1274  C1290   1.491   .     S
C1274  C1276   1.407   .     A
C1275  O1323   1.284   .     A
C1275  C1288   1.472   .     S
C1275  O1325   1.315   .     A
C1276  H1299   1.079   .     S
C1276  C1277   1.403   .     A
C1278  H1301   1.082   .     S
C1278  C1979   1.396   .     S
C1278  C1981   1.394   .     S
C1279  C1280   1.399   .     A
C1280  H1303   1.074   .     S
C1281  C1287   1.407   .     A
C1281  C1291   1.491   .     S
C1281  C1282   1.402   .     A
C1282  H1304   1.074   .     S
C1282  C1283   1.399   .     A
C1283  C1986   1.394   .     S
C1283  H2007   1.080   .     S
C1284  H1307   1.082   .     S
C1285  C1287   1.403   .     A
C1285  C1986   1.396   .     S
C1285  H2010   1.079   .     S
C1286  O1324   1.284   .     A
C1286  C1289   1.472   .     S
C1286  O1326   1.315   .     A
C1287  H1309   1.079   .     S
C1289  C1346   1.474   .     S
C1289  C1366   1.373   .     S
C1291  C786    1.411   1_565 S
C1292  C822    1.411   1_565 S
Cu1293 O1319   1.990   .     S
Cu1293 Cu1294  2.695   .     S
Cu1293 O1326   2.013   .     S
Cu1293 N1317   2.025   .     S
Cu1293 O1322   2.010   .     S
Cu1293 O1323   1.999   .     S
Cu1294 O1324   1.999   .     S
Cu1294 O1320   1.990   .     S
Cu1294 O1325   2.013   .     S
Cu1294 N1318   2.025   .     S
Cu1294 O1321   2.010   .     S
H1300  C1979   1.079   .     S
H1302  C1981   1.080   .     S
H1311  C1965   1.081   .     S
Br1327 C1370   1.947   .     S
Br1328 C1332   1.947   .     S
Br1329 C1335   1.868   .     S
Br1330 C1336   1.868   .     S
C1331  C1334   1.486   .     S
C1331  O1397   1.312   .     A
C1331  O1399   1.296   .     A
C1332  C1334   1.407   .     A
C1333  C1369   1.426   .     A
C1333  C1370   1.407   .     A
C1333  C1342   1.486   .     S
C1334  C1368   1.426   .     A
C1335  N1396   1.378   .     A
C1336  N1395   1.378   .     A
C1336  C2040   1.411   .     S
C1337  H1373   1.081   .     S
C1337  N1395   1.352   .     A
C1337  C2037   1.411   .     S
C1338  H1384   1.081   .     S
C1338  N1396   1.352   .     A
C1339  C1345   1.402   .     A
C1339  C1340   1.401   .     A
C1339  C1210   1.474   1_655 S
C1340  H1388   1.082   .     S
C1340  C1341   1.397   .     A
C1341  C1343   1.394   .     A
C1342  O1398   1.312   .     A
C1342  O1400   1.296   .     A
C1343  H1390   1.076   .     S
C1343  C1344   1.397   .     A
C1344  H1391   1.082   .     S
C1344  C1345   1.394   .     A
C1345  H1392   1.083   .     S
C1346  C1351   1.400   .     A
C1346  C1347   1.402   .     A
C1347  C1348   1.394   .     A
C1347  H1393   1.083   .     S
C1348  H1394   1.082   .     S
C1348  C1349   1.397   .     A
C1349  C1350   1.394   .     A
C1349  H1374   1.076   .     S
C1350  C1351   1.397   .     A
C1350  H2077   1.081   .     S
C1351  H1376   1.082   .     S
C1352  C1358   1.402   .     A
C1352  C1368   1.491   .     S
C1352  C1354   1.407   .     A
C1353  O1401   1.284   .     A
C1353  C1366   1.472   .     S
C1353  O1403   1.315   .     A
C1354  H1377   1.079   .     S
C1354  C1355   1.403   .     A
C1356  H1379   1.082   .     S
C1356  C2057   1.396   .     S
C1356  C2059   1.394   .     S
C1357  C1358   1.399   .     A
C1358  H1381   1.074   .     S
C1359  C1365   1.407   .     A
C1359  C1369   1.491   .     S
C1359  C1360   1.402   .     A
C1360  H1382   1.074   .     S
C1360  C1361   1.399   .     A
C1361  C2064   1.394   .     S
C1361  H2085   1.080   .     S
C1362  H1385   1.082   .     S
C1363  C1365   1.403   .     A
C1363  C2064   1.396   .     S
C1363  H2088   1.079   .     S
C1364  O1402   1.284   .     A
C1364  C1367   1.472   .     S
C1364  O1404   1.315   .     A
C1365  H1387   1.079   .     S
C1367  C1190   1.474   1_655 S
C1367  C1210   1.373   1_655 S
C1369  C864    1.411   1_565 S
C1370  C900    1.411   1_565 S
Cu1371 O1397   1.990   .     S
Cu1371 Cu1372  2.695   .     S
Cu1371 O1404   2.013   .     S
Cu1371 N1395   2.025   .     S
Cu1371 O1400   2.010   .     S
Cu1371 O1401   1.999   .     S
Cu1372 O1402   1.999   .     S
Cu1372 O1398   1.990   .     S
Cu1372 O1403   2.013   .     S
Cu1372 N1396   2.025   .     S
Cu1372 O1399   2.010   .     S
H1378  C2057   1.079   .     S
H1380  C2059   1.080   .     S
H1389  C2043   1.081   .     S
Br1405 C1448   1.947   .     S
Br1406 C1410   1.947   .     S
Br1407 C1413   1.868   .     S
Br1408 C1414   1.868   .     S
C1409  C1412   1.486   .     S
C1409  O1475   1.312   .     A
C1409  O1477   1.296   .     A
C1410  C1412   1.407   .     A
C1410  C1915   1.411   1_545 S
C1411  C1447   1.426   .     A
C1411  C1448   1.407   .     A
C1411  C1420   1.486   .     S
C1412  C1446   1.426   .     A
C1413  N1474   1.378   .     A
C1414  N1473   1.378   .     A
C1414  C12     1.411   1_556 S
C1415  H1451   1.081   .     S
C1415  N1473   1.352   .     A
C1415  C9      1.411   1_556 S
C1416  H1462   1.081   .     S
C1416  N1474   1.352   .     A
C1417  C1423   1.402   .     A
C1417  C1418   1.401   .     A
C1417  C1522   1.474   .     S
C1418  H1466   1.082   .     S
C1418  C1419   1.397   .     A
C1419  C1421   1.394   .     A
C1420  O1476   1.312   .     A
C1420  O1478   1.296   .     A
C1421  H1468   1.076   .     S
C1421  C1422   1.397   .     A
C1422  H1469   1.082   .     S
C1422  C1423   1.394   .     A
C1423  H1470   1.083   .     S
C1424  C1429   1.400   .     A
C1424  C1425   1.402   .     A
C1424  C1601   1.474   1_455 S
C1425  C1426   1.394   .     A
C1425  H1471   1.083   .     S
C1426  H1472   1.082   .     S
C1426  C1427   1.397   .     A
C1427  C1428   1.394   .     A
C1427  H1452   1.076   .     S
C1428  C1429   1.397   .     A
C1428  H49     1.081   1_556 S
C1429  H1454   1.082   .     S
C1430  C1436   1.402   .     A
C1430  C1446   1.491   .     S
C1430  C1432   1.407   .     A
C1431  O1479   1.284   .     A
C1431  C1444   1.472   .     S
C1431  O1481   1.315   .     A
C1432  H1455   1.079   .     S
C1432  C1433   1.403   .     A
C1434  H1457   1.082   .     S
C1434  C29     1.396   1_556 S
C1434  C31     1.394   1_556 S
C1435  C1436   1.399   .     A
C1436  H1459   1.074   .     S
C1437  C1443   1.407   .     A
C1437  C1447   1.491   .     S
C1437  C1438   1.402   .     A
C1438  H1460   1.074   .     S
C1438  C1439   1.399   .     A
C1439  C36     1.394   1_556 S
C1439  H57     1.080   1_556 S
C1440  H1463   1.082   .     S
C1441  C1443   1.403   .     A
C1441  C36     1.396   1_556 S
C1441  H60     1.079   1_556 S
C1442  O1480   1.284   .     A
C1442  C1445   1.472   .     S
C1442  O1482   1.315   .     A
C1443  H1465   1.079   .     S
C1444  C1573   1.474   1_455 S
C1444  C1601   1.373   1_455 S
C1445  C1502   1.474   .     S
C1445  C1522   1.373   .     S
C1446  C1916   1.411   1_545 S
C1447  C1644   1.411   .     S
C1448  C1680   1.411   .     S
Cu1449 O1475   1.990   .     S
Cu1449 Cu1450  2.695   .     S
Cu1449 O1482   2.013   .     S
Cu1449 N1473   2.025   .     S
Cu1449 O1478   2.010   .     S
Cu1449 O1479   1.999   .     S
Cu1450 O1480   1.999   .     S
Cu1450 O1476   1.990   .     S
Cu1450 O1481   2.013   .     S
Cu1450 N1474   2.025   .     S
Cu1450 O1477   2.010   .     S
H1456  C29     1.079   1_556 S
H1458  C31     1.080   1_556 S
H1467  C15     1.081   1_556 S
Br1483 C1526   1.947   .     S
Br1484 C1488   1.947   .     S
Br1485 C1491   1.868   .     S
Br1486 C1492   1.868   .     S
C1487  C1490   1.486   .     S
C1487  O1553   1.312   .     A
C1487  O1555   1.296   .     A
C1488  C1490   1.407   .     A
C1488  C1993   1.411   1_545 S
C1489  C1525   1.426   .     A
C1489  C1526   1.407   .     A
C1489  C1498   1.486   .     S
C1490  C1524   1.426   .     A
C1491  N1552   1.378   .     A
C1492  N1551   1.378   .     A
C1492  C90     1.411   1_556 S
C1493  H1529   1.081   .     S
C1493  N1551   1.352   .     A
C1493  C87     1.411   1_556 S
C1494  H1540   1.081   .     S
C1494  N1552   1.352   .     A
C1495  C1501   1.402   .     A
C1495  C1496   1.401   .     A
C1495  C1600   1.474   .     S
C1496  H1544   1.082   .     S
C1496  C1497   1.397   .     A
C1497  C1499   1.394   .     A
C1498  O1554   1.312   .     A
C1498  O1556   1.296   .     A
C1499  H1546   1.076   .     S
C1499  C1500   1.397   .     A
C1500  H1547   1.082   .     S
C1500  C1501   1.394   .     A
C1501  H1548   1.083   .     S
C1502  C1507   1.400   .     A
C1502  C1503   1.402   .     A
C1503  C1504   1.394   .     A
C1503  H1549   1.083   .     S
C1504  H1550   1.082   .     S
C1504  C1505   1.397   .     A
C1505  C1506   1.394   .     A
C1505  H1530   1.076   .     S
C1506  C1507   1.397   .     A
C1506  H127    1.081   1_556 S
C1507  H1532   1.082   .     S
C1508  C1514   1.402   .     A
C1508  C1524   1.491   .     S
C1508  C1510   1.407   .     A
C1509  O1557   1.284   .     A
C1509  C1522   1.472   .     S
C1509  O1559   1.315   .     A
C1510  H1533   1.079   .     S
C1510  C1511   1.403   .     A
C1512  H1535   1.082   .     S
C1512  C107    1.396   1_556 S
C1512  C109    1.394   1_556 S
C1513  C1514   1.399   .     A
C1514  H1537   1.074   .     S
C1515  C1521   1.407   .     A
C1515  C1525   1.491   .     S
C1515  C1516   1.402   .     A
C1516  H1538   1.074   .     S
C1516  C1517   1.399   .     A
C1517  C114    1.394   1_556 S
C1517  H135    1.080   1_556 S
C1518  H1541   1.082   .     S
C1519  C1521   1.403   .     A
C1519  C114    1.396   1_556 S
C1519  H138    1.079   1_556 S
C1520  O1558   1.284   .     A
C1520  C1523   1.472   .     S
C1520  O1560   1.315   .     A
C1521  H1543   1.079   .     S
C1523  C1580   1.474   .     S
C1523  C1600   1.373   .     S
C1524  C1994   1.411   1_545 S
C1525  C1722   1.411   .     S
C1526  C1758   1.411   .     S
Cu1527 O1553   1.990   .     S
Cu1527 Cu1528  2.695   .     S
Cu1527 O1560   2.013   .     S
Cu1527 N1551   2.025   .     S
Cu1527 O1556   2.010   .     S
Cu1527 O1557   1.999   .     S
Cu1528 O1558   1.999   .     S
Cu1528 O1554   1.990   .     S
Cu1528 O1559   2.013   .     S
Cu1528 N1552   2.025   .     S
Cu1528 O1555   2.010   .     S
H1534  C107    1.079   1_556 S
H1536  C109    1.080   1_556 S
H1545  C93     1.081   1_556 S
Br1561 C1604   1.947   .     S
Br1562 C1566   1.947   .     S
Br1563 C1569   1.868   .     S
Br1564 C1570   1.868   .     S
C1565  C1568   1.486   .     S
C1565  O1631   1.312   .     A
C1565  O1633   1.296   .     A
C1566  C1568   1.407   .     A
C1566  C2071   1.411   1_545 S
C1567  C1603   1.426   .     A
C1567  C1604   1.407   .     A
C1567  C1576   1.486   .     S
C1568  C1602   1.426   .     A
C1569  N1630   1.378   .     A
C1570  N1629   1.378   .     A
C1570  C168    1.411   1_556 S
C1571  H1607   1.081   .     S
C1571  N1629   1.352   .     A
C1571  C165    1.411   1_556 S
C1572  H1618   1.081   .     S
C1572  N1630   1.352   .     A
C1573  C1579   1.402   .     A
C1573  C1574   1.401   .     A
C1573  C1444   1.474   1_655 S
C1574  H1622   1.082   .     S
C1574  C1575   1.397   .     A
C1575  C1577   1.394   .     A
C1576  O1632   1.312   .     A
C1576  O1634   1.296   .     A
C1577  H1624   1.076   .     S
C1577  C1578   1.397   .     A
C1578  H1625   1.082   .     S
C1578  C1579   1.394   .     A
C1579  H1626   1.083   .     S
C1580  C1585   1.400   .     A
C1580  C1581   1.402   .     A
C1581  C1582   1.394   .     A
C1581  H1627   1.083   .     S
C1582  H1628   1.082   .     S
C1582  C1583   1.397   .     A
C1583  C1584   1.394   .     A
C1583  H1608   1.076   .     S
C1584  C1585   1.397   .     A
C1584  H205    1.081   1_556 S
C1585  H1610   1.082   .     S
C1586  C1592   1.402   .     A
C1586  C1602   1.491   .     S
C1586  C1588   1.407   .     A
C1587  O1635   1.284   .     A
C1587  C1600   1.472   .     S
C1587  O1637   1.315   .     A
C1588  H1611   1.079   .     S
C1588  C1589   1.403   .     A
C1590  H1613   1.082   .     S
C1590  C185    1.396   1_556 S
C1590  C187    1.394   1_556 S
C1591  C1592   1.399   .     A
C1592  H1615   1.074   .     S
C1593  C1599   1.407   .     A
C1593  C1603   1.491   .     S
C1593  C1594   1.402   .     A
C1594  H1616   1.074   .     S
C1594  C1595   1.399   .     A
C1595  C192    1.394   1_556 S
C1595  H213    1.080   1_556 S
C1596  H1619   1.082   .     S
C1597  C1599   1.403   .     A
C1597  C192    1.396   1_556 S
C1597  H216    1.079   1_556 S
C1598  O1636   1.284   .     A
C1598  C1601   1.472   .     S
C1598  O1638   1.315   .     A
C1599  H1621   1.079   .     S
C1601  C1424   1.474   1_655 S
C1601  C1444   1.373   1_655 S
C1602  C2072   1.411   1_545 S
C1603  C1800   1.411   .     S
C1604  C1836   1.411   .     S
Cu1605 O1631   1.990   .     S
Cu1605 Cu1606  2.695   .     S
Cu1605 O1638   2.013   .     S
Cu1605 N1629   2.025   .     S
Cu1605 O1634   2.010   .     S
Cu1605 O1635   1.999   .     S
Cu1606 O1636   1.999   .     S
Cu1606 O1632   1.990   .     S
Cu1606 O1637   2.013   .     S
Cu1606 N1630   2.025   .     S
Cu1606 O1633   2.010   .     S
H1612  C185    1.079   1_556 S
H1614  C187    1.080   1_556 S
H1623  C171    1.081   1_556 S
Br1639 C1682   1.947   .     S
Br1640 C1644   1.947   .     S
Br1641 C1647   1.868   .     S
Br1642 C1648   1.868   .     S
C1643  C1646   1.486   .     S
C1643  O1709   1.312   .     A
C1643  O1711   1.296   .     A
C1644  C1646   1.407   .     A
C1645  C1681   1.426   .     A
C1645  C1682   1.407   .     A
C1645  C1654   1.486   .     S
C1646  C1680   1.426   .     A
C1647  N1708   1.378   .     A
C1648  N1707   1.378   .     A
C1648  C246    1.411   1_556 S
C1649  H1685   1.081   .     S
C1649  N1707   1.352   .     A
C1649  C243    1.411   1_556 S
C1650  H1696   1.081   .     S
C1650  N1708   1.352   .     A
C1651  C1657   1.402   .     A
C1651  C1652   1.401   .     A
C1651  C1756   1.474   .     S
C1652  H1700   1.082   .     S
C1652  C1653   1.397   .     A
C1653  C1655   1.394   .     A
C1654  O1710   1.312   .     A
C1654  O1712   1.296   .     A
C1655  H1702   1.076   .     S
C1655  C1656   1.397   .     A
C1656  H1703   1.082   .     S
C1656  C1657   1.394   .     A
C1657  H1704   1.083   .     S
C1658  C1663   1.400   .     A
C1658  C1659   1.402   .     A
C1658  C1835   1.474   1_455 S
C1659  C1660   1.394   .     A
C1659  H1705   1.083   .     S
C1660  H1706   1.082   .     S
C1660  C1661   1.397   .     A
C1661  C1662   1.394   .     A
C1661  H1686   1.076   .     S
C1662  C1663   1.397   .     A
C1662  H283    1.081   1_556 S
C1663  H1688   1.082   .     S
C1664  C1670   1.402   .     A
C1664  C1680   1.491   .     S
C1664  C1666   1.407   .     A
C1665  O1713   1.284   .     A
C1665  C1678   1.472   .     S
C1665  O1715   1.315   .     A
C1666  H1689   1.079   .     S
C1666  C1667   1.403   .     A
C1668  H1691   1.082   .     S
C1668  C263    1.396   1_556 S
C1668  C265    1.394   1_556 S
C1669  C1670   1.399   .     A
C1670  H1693   1.074   .     S
C1671  C1677   1.407   .     A
C1671  C1681   1.491   .     S
C1671  C1672   1.402   .     A
C1672  H1694   1.074   .     S
C1672  C1673   1.399   .     A
C1673  C270    1.394   1_556 S
C1673  H291    1.080   1_556 S
C1674  H1697   1.082   .     S
C1675  C1677   1.403   .     A
C1675  C270    1.396   1_556 S
C1675  H294    1.079   1_556 S
C1676  O1714   1.284   .     A
C1676  C1679   1.472   .     S
C1676  O1716   1.315   .     A
C1677  H1699   1.079   .     S
C1678  C1807   1.474   1_455 S
C1678  C1835   1.373   1_455 S
C1679  C1736   1.474   .     S
C1679  C1756   1.373   .     S
C1681  C1878   1.411   .     S
C1682  C1914   1.411   .     S
Cu1683 O1709   1.990   .     S
Cu1683 Cu1684  2.695   .     S
Cu1683 O1716   2.013   .     S
Cu1683 N1707   2.025   .     S
Cu1683 O1712   2.010   .     S
Cu1683 O1713   1.999   .     S
Cu1684 O1714   1.999   .     S
Cu1684 O1710   1.990   .     S
Cu1684 O1715   2.013   .     S
Cu1684 N1708   2.025   .     S
Cu1684 O1711   2.010   .     S
H1690  C263    1.079   1_556 S
H1692  C265    1.080   1_556 S
H1701  C249    1.081   1_556 S
Br1717 C1760   1.947   .     S
Br1718 C1722   1.947   .     S
Br1719 C1725   1.868   .     S
Br1720 C1726   1.868   .     S
C1721  C1724   1.486   .     S
C1721  O1787   1.312   .     A
C1721  O1789   1.296   .     A
C1722  C1724   1.407   .     A
C1723  C1759   1.426   .     A
C1723  C1760   1.407   .     A
C1723  C1732   1.486   .     S
C1724  C1758   1.426   .     A
C1725  N1786   1.378   .     A
C1726  N1785   1.378   .     A
C1726  C324    1.411   1_556 S
C1727  H1763   1.081   .     S
C1727  N1785   1.352   .     A
C1727  C321    1.411   1_556 S
C1728  H1774   1.081   .     S
C1728  N1786   1.352   .     A
C1729  C1735   1.402   .     A
C1729  C1730   1.401   .     A
C1729  C1834   1.474   .     S
C1730  H1778   1.082   .     S
C1730  C1731   1.397   .     A
C1731  C1733   1.394   .     A
C1732  O1788   1.312   .     A
C1732  O1790   1.296   .     A
C1733  H1780   1.076   .     S
C1733  C1734   1.397   .     A
C1734  H1781   1.082   .     S
C1734  C1735   1.394   .     A
C1735  H1782   1.083   .     S
C1736  C1741   1.400   .     A
C1736  C1737   1.402   .     A
C1737  C1738   1.394   .     A
C1737  H1783   1.083   .     S
C1738  H1784   1.082   .     S
C1738  C1739   1.397   .     A
C1739  C1740   1.394   .     A
C1739  H1764   1.076   .     S
C1740  C1741   1.397   .     A
C1740  H361    1.081   1_556 S
C1741  H1766   1.082   .     S
C1742  C1748   1.402   .     A
C1742  C1758   1.491   .     S
C1742  C1744   1.407   .     A
C1743  O1791   1.284   .     A
C1743  C1756   1.472   .     S
C1743  O1793   1.315   .     A
C1744  H1767   1.079   .     S
C1744  C1745   1.403   .     A
C1746  H1769   1.082   .     S
C1746  C341    1.396   1_556 S
C1746  C343    1.394   1_556 S
C1747  C1748   1.399   .     A
C1748  H1771   1.074   .     S
C1749  C1755   1.407   .     A
C1749  C1759   1.491   .     S
C1749  C1750   1.402   .     A
C1750  H1772   1.074   .     S
C1750  C1751   1.399   .     A
C1751  C348    1.394   1_556 S
C1751  H369    1.080   1_556 S
C1752  H1775   1.082   .     S
C1753  C1755   1.403   .     A
C1753  C348    1.396   1_556 S
C1753  H372    1.079   1_556 S
C1754  O1792   1.284   .     A
C1754  C1757   1.472   .     S
C1754  O1794   1.315   .     A
C1755  H1777   1.079   .     S
C1757  C1814   1.474   .     S
C1757  C1834   1.373   .     S
C1759  C1956   1.411   .     S
C1760  C1992   1.411   .     S
Cu1761 O1787   1.990   .     S
Cu1761 Cu1762  2.695   .     S
Cu1761 O1794   2.013   .     S
Cu1761 N1785   2.025   .     S
Cu1761 O1790   2.010   .     S
Cu1761 O1791   1.999   .     S
Cu1762 O1792   1.999   .     S
Cu1762 O1788   1.990   .     S
Cu1762 O1793   2.013   .     S
Cu1762 N1786   2.025   .     S
Cu1762 O1789   2.010   .     S
H1768  C341    1.079   1_556 S
H1770  C343    1.080   1_556 S
H1779  C327    1.081   1_556 S
Br1795 C1838   1.947   .     S
Br1796 C1800   1.947   .     S
Br1797 C1803   1.868   .     S
Br1798 C1804   1.868   .     S
C1799  C1802   1.486   .     S
C1799  O1865   1.312   .     A
C1799  O1867   1.296   .     A
C1800  C1802   1.407   .     A
C1801  C1837   1.426   .     A
C1801  C1838   1.407   .     A
C1801  C1810   1.486   .     S
C1802  C1836   1.426   .     A
C1803  N1864   1.378   .     A
C1804  N1863   1.378   .     A
C1804  C402    1.411   1_556 S
C1805  H1841   1.081   .     S
C1805  N1863   1.352   .     A
C1805  C399    1.411   1_556 S
C1806  H1852   1.081   .     S
C1806  N1864   1.352   .     A
C1807  C1813   1.402   .     A
C1807  C1808   1.401   .     A
C1807  C1678   1.474   1_655 S
C1808  H1856   1.082   .     S
C1808  C1809   1.397   .     A
C1809  C1811   1.394   .     A
C1810  O1866   1.312   .     A
C1810  O1868   1.296   .     A
C1811  H1858   1.076   .     S
C1811  C1812   1.397   .     A
C1812  H1859   1.082   .     S
C1812  C1813   1.394   .     A
C1813  H1860   1.083   .     S
C1814  C1819   1.400   .     A
C1814  C1815   1.402   .     A
C1815  C1816   1.394   .     A
C1815  H1861   1.083   .     S
C1816  H1862   1.082   .     S
C1816  C1817   1.397   .     A
C1817  C1818   1.394   .     A
C1817  H1842   1.076   .     S
C1818  C1819   1.397   .     A
C1818  H439    1.081   1_556 S
C1819  H1844   1.082   .     S
C1820  C1826   1.402   .     A
C1820  C1836   1.491   .     S
C1820  C1822   1.407   .     A
C1821  O1869   1.284   .     A
C1821  C1834   1.472   .     S
C1821  O1871   1.315   .     A
C1822  H1845   1.079   .     S
C1822  C1823   1.403   .     A
C1824  H1847   1.082   .     S
C1824  C419    1.396   1_556 S
C1824  C421    1.394   1_556 S
C1825  C1826   1.399   .     A
C1826  H1849   1.074   .     S
C1827  C1833   1.407   .     A
C1827  C1837   1.491   .     S
C1827  C1828   1.402   .     A
C1828  H1850   1.074   .     S
C1828  C1829   1.399   .     A
C1829  C426    1.394   1_556 S
C1829  H447    1.080   1_556 S
C1830  H1853   1.082   .     S
C1831  C1833   1.403   .     A
C1831  C426    1.396   1_556 S
C1831  H450    1.079   1_556 S
C1832  O1870   1.284   .     A
C1832  C1835   1.472   .     S
C1832  O1872   1.315   .     A
C1833  H1855   1.079   .     S
C1835  C1658   1.474   1_655 S
C1835  C1678   1.373   1_655 S
C1837  C2034   1.411   .     S
C1838  C2070   1.411   .     S
Cu1839 O1865   1.990   .     S
Cu1839 Cu1840  2.695   .     S
Cu1839 O1872   2.013   .     S
Cu1839 N1863   2.025   .     S
Cu1839 O1868   2.010   .     S
Cu1839 O1869   1.999   .     S
Cu1840 O1870   1.999   .     S
Cu1840 O1866   1.990   .     S
Cu1840 O1871   2.013   .     S
Cu1840 N1864   2.025   .     S
Cu1840 O1867   2.010   .     S
H1846  C419    1.079   1_556 S
H1848  C421    1.080   1_556 S
H1857  C405    1.081   1_556 S
Br1873 C1916   1.947   .     S
Br1874 C1878   1.947   .     S
Br1875 C1881   1.868   .     S
Br1876 C1882   1.868   .     S
C1877  C1880   1.486   .     S
C1877  O1943   1.312   .     A
C1877  O1945   1.296   .     A
C1878  C1880   1.407   .     A
C1879  C1915   1.426   .     A
C1879  C1916   1.407   .     A
C1879  C1888   1.486   .     S
C1880  C1914   1.426   .     A
C1881  N1942   1.378   .     A
C1882  N1941   1.378   .     A
C1882  C480    1.411   1_556 S
C1883  H1919   1.081   .     S
C1883  N1941   1.352   .     A
C1883  C477    1.411   1_556 S
C1884  H1930   1.081   .     S
C1884  N1942   1.352   .     A
C1885  C1891   1.402   .     A
C1885  C1886   1.401   .     A
C1885  C1990   1.474   .     S
C1886  H1934   1.082   .     S
C1886  C1887   1.397   .     A
C1887  C1889   1.394   .     A
C1888  O1944   1.312   .     A
C1888  O1946   1.296   .     A
C1889  H1936   1.076   .     S
C1889  C1890   1.397   .     A
C1890  H1937   1.082   .     S
C1890  C1891   1.394   .     A
C1891  H1938   1.083   .     S
C1892  C1897   1.400   .     A
C1892  C1893   1.402   .     A
C1892  C2069   1.474   1_455 S
C1893  C1894   1.394   .     A
C1893  H1939   1.083   .     S
C1894  H1940   1.082   .     S
C1894  C1895   1.397   .     A
C1895  C1896   1.394   .     A
C1895  H1920   1.076   .     S
C1896  C1897   1.397   .     A
C1896  H517    1.081   1_556 S
C1897  H1922   1.082   .     S
C1898  C1904   1.402   .     A
C1898  C1914   1.491   .     S
C1898  C1900   1.407   .     A
C1899  O1947   1.284   .     A
C1899  C1912   1.472   .     S
C1899  O1949   1.315   .     A
C1900  H1923   1.079   .     S
C1900  C1901   1.403   .     A
C1902  H1925   1.082   .     S
C1902  C497    1.396   1_556 S
C1902  C499    1.394   1_556 S
C1903  C1904   1.399   .     A
C1904  H1927   1.074   .     S
C1905  C1911   1.407   .     A
C1905  C1915   1.491   .     S
C1905  C1906   1.402   .     A
C1906  H1928   1.074   .     S
C1906  C1907   1.399   .     A
C1907  C504    1.394   1_556 S
C1907  H525    1.080   1_556 S
C1908  H1931   1.082   .     S
C1909  C1911   1.403   .     A
C1909  C504    1.396   1_556 S
C1909  H528    1.079   1_556 S
C1910  O1948   1.284   .     A
C1910  C1913   1.472   .     S
C1910  O1950   1.315   .     A
C1911  H1933   1.079   .     S
C1912  C2041   1.474   1_455 S
C1912  C2069   1.373   1_455 S
C1913  C1970   1.474   .     S
C1913  C1990   1.373   .     S
C1915  C1410   1.411   1_565 S
C1916  C1446   1.411   1_565 S
Cu1917 O1943   1.990   .     S
Cu1917 Cu1918  2.695   .     S
Cu1917 O1950   2.013   .     S
Cu1917 N1941   2.025   .     S
Cu1917 O1946   2.010   .     S
Cu1917 O1947   1.999   .     S
Cu1918 O1948   1.999   .     S
Cu1918 O1944   1.990   .     S
Cu1918 O1949   2.013   .     S
Cu1918 N1942   2.025   .     S
Cu1918 O1945   2.010   .     S
H1924  C497    1.079   1_556 S
H1926  C499    1.080   1_556 S
H1935  C483    1.081   1_556 S
Br1951 C1994   1.947   .     S
Br1952 C1956   1.947   .     S
Br1953 C1959   1.868   .     S
Br1954 C1960   1.868   .     S
C1955  C1958   1.486   .     S
C1955  O2021   1.312   .     A
C1955  O2023   1.296   .     A
C1956  C1958   1.407   .     A
C1957  C1993   1.426   .     A
C1957  C1994   1.407   .     A
C1957  C1966   1.486   .     S
C1958  C1992   1.426   .     A
C1959  N2020   1.378   .     A
C1960  N2019   1.378   .     A
C1960  C558    1.411   1_556 S
C1961  H1997   1.081   .     S
C1961  N2019   1.352   .     A
C1961  C555    1.411   1_556 S
C1962  H2008   1.081   .     S
C1962  N2020   1.352   .     A
C1963  C1969   1.402   .     A
C1963  C1964   1.401   .     A
C1963  C2068   1.474   .     S
C1964  H2012   1.082   .     S
C1964  C1965   1.397   .     A
C1965  C1967   1.394   .     A
C1966  O2022   1.312   .     A
C1966  O2024   1.296   .     A
C1967  H2014   1.076   .     S
C1967  C1968   1.397   .     A
C1968  H2015   1.082   .     S
C1968  C1969   1.394   .     A
C1969  H2016   1.083   .     S
C1970  C1975   1.400   .     A
C1970  C1971   1.402   .     A
C1971  C1972   1.394   .     A
C1971  H2017   1.083   .     S
C1972  H2018   1.082   .     S
C1972  C1973   1.397   .     A
C1973  C1974   1.394   .     A
C1973  H1998   1.076   .     S
C1974  C1975   1.397   .     A
C1974  H595    1.081   1_556 S
C1975  H2000   1.082   .     S
C1976  C1982   1.402   .     A
C1976  C1992   1.491   .     S
C1976  C1978   1.407   .     A
C1977  O2025   1.284   .     A
C1977  C1990   1.472   .     S
C1977  O2027   1.315   .     A
C1978  H2001   1.079   .     S
C1978  C1979   1.403   .     A
C1980  H2003   1.082   .     S
C1980  C575    1.396   1_556 S
C1980  C577    1.394   1_556 S
C1981  C1982   1.399   .     A
C1982  H2005   1.074   .     S
C1983  C1989   1.407   .     A
C1983  C1993   1.491   .     S
C1983  C1984   1.402   .     A
C1984  H2006   1.074   .     S
C1984  C1985   1.399   .     A
C1985  C582    1.394   1_556 S
C1985  H603    1.080   1_556 S
C1986  H2009   1.082   .     S
C1987  C1989   1.403   .     A
C1987  C582    1.396   1_556 S
C1987  H606    1.079   1_556 S
C1988  O2026   1.284   .     A
C1988  C1991   1.472   .     S
C1988  O2028   1.315   .     A
C1989  H2011   1.079   .     S
C1991  C2048   1.474   .     S
C1991  C2068   1.373   .     S
C1993  C1488   1.411   1_565 S
C1994  C1524   1.411   1_565 S
Cu1995 O2021   1.990   .     S
Cu1995 Cu1996  2.695   .     S
Cu1995 O2028   2.013   .     S
Cu1995 N2019   2.025   .     S
Cu1995 O2024   2.010   .     S
Cu1995 O2025   1.999   .     S
Cu1996 O2026   1.999   .     S
Cu1996 O2022   1.990   .     S
Cu1996 O2027   2.013   .     S
Cu1996 N2020   2.025   .     S
Cu1996 O2023   2.010   .     S
H2002  C575    1.079   1_556 S
H2004  C577    1.080   1_556 S
H2013  C561    1.081   1_556 S
Br2029 C2072   1.947   .     S
Br2030 C2034   1.947   .     S
Br2031 C2037   1.868   .     S
Br2032 C2038   1.868   .     S
C2033  C2036   1.486   .     S
C2033  O2099   1.312   .     A
C2033  O2101   1.296   .     A
C2034  C2036   1.407   .     A
C2035  C2071   1.426   .     A
C2035  C2072   1.407   .     A
C2035  C2044   1.486   .     S
C2036  C2070   1.426   .     A
C2037  N2098   1.378   .     A
C2038  N2097   1.378   .     A
C2038  C636    1.411   1_556 S
C2039  H2075   1.081   .     S
C2039  N2097   1.352   .     A
C2039  C633    1.411   1_556 S
C2040  H2086   1.081   .     S
C2040  N2098   1.352   .     A
C2041  C2047   1.402   .     A
C2041  C2042   1.401   .     A
C2041  C1912   1.474   1_655 S
C2042  H2090   1.082   .     S
C2042  C2043   1.397   .     A
C2043  C2045   1.394   .     A
C2044  O2100   1.312   .     A
C2044  O2102   1.296   .     A
C2045  H2092   1.076   .     S
C2045  C2046   1.397   .     A
C2046  H2093   1.082   .     S
C2046  C2047   1.394   .     A
C2047  H2094   1.083   .     S
C2048  C2053   1.400   .     A
C2048  C2049   1.402   .     A
C2049  C2050   1.394   .     A
C2049  H2095   1.083   .     S
C2050  H2096   1.082   .     S
C2050  C2051   1.397   .     A
C2051  C2052   1.394   .     A
C2051  H2076   1.076   .     S
C2052  C2053   1.397   .     A
C2052  H673    1.081   1_556 S
C2053  H2078   1.082   .     S
C2054  C2060   1.402   .     A
C2054  C2070   1.491   .     S
C2054  C2056   1.407   .     A
C2055  O2103   1.284   .     A
C2055  C2068   1.472   .     S
C2055  O2105   1.315   .     A
C2056  H2079   1.079   .     S
C2056  C2057   1.403   .     A
C2058  H2081   1.082   .     S
C2058  C653    1.396   1_556 S
C2058  C655    1.394   1_556 S
C2059  C2060   1.399   .     A
C2060  H2083   1.074   .     S
C2061  C2067   1.407   .     A
C2061  C2071   1.491   .     S
C2061  C2062   1.402   .     A
C2062  H2084   1.074   .     S
C2062  C2063   1.399   .     A
C2063  C660    1.394   1_556 S
C2063  H681    1.080   1_556 S
C2064  H2087   1.082   .     S
C2065  C2067   1.403   .     A
C2065  C660    1.396   1_556 S
C2065  H684    1.079   1_556 S
C2066  O2104   1.284   .     A
C2066  C2069   1.472   .     S
C2066  O2106   1.315   .     A
C2067  H2089   1.079   .     S
C2069  C1892   1.474   1_655 S
C2069  C1912   1.373   1_655 S
C2071  C1566   1.411   1_565 S
C2072  C1602   1.411   1_565 S
Cu2073 O2099   1.990   .     S
Cu2073 Cu2074  2.695   .     S
Cu2073 O2106   2.013   .     S
Cu2073 N2097   2.025   .     S
Cu2073 O2102   2.010   .     S
Cu2073 O2103   1.999   .     S
Cu2074 O2104   1.999   .     S
Cu2074 O2100   1.990   .     S
Cu2074 O2105   2.013   .     S
Cu2074 N2098   2.025   .     S
Cu2074 O2101   2.010   .     S
H2080  C653    1.079   1_556 S
H2082  C655    1.080   1_556 S
H2091  C639    1.081   1_556 S
