data_str_m2_o1_o2_pcu_sym.29
_audit_creation_date              2020-01-03
_audit_creation_method            'Materials Studio'
_symmetry_space_group_name_H-M    'P1'
_symmetry_Int_Tables_number       1
_symmetry_cell_setting            triclinic
loop_
_symmetry_equiv_pos_as_xyz
  x,y,z
_cell_length_a                    32.3790
_cell_length_b                    29.2709
_cell_length_c                    30.2253
_cell_angle_alpha                 89.8084
_cell_angle_beta                  94.0669
_cell_angle_gamma                 89.2150
loop_
_atom_site_label
_atom_site_type_symbol
_atom_site_fract_x
_atom_site_fract_y
_atom_site_fract_z
_atom_site_U_iso_or_equiv
_atom_site_adp_type
_atom_site_occupancy
C1     C     0.08756   0.16681   0.25002   0.00000  Uiso   1.00
C2     C     0.30968   0.20126   0.22890   0.00000  Uiso   1.00
C3     C     0.31367   0.12940   0.26927   0.00000  Uiso   1.00
C4     C     0.01896   0.20167   0.22916   0.00000  Uiso   1.00
C5     C     0.16703   0.20763   0.04699   0.00000  Uiso   1.00
C6     C     0.15458   0.13010   0.45228   0.00000  Uiso   1.00
C7     C     0.18953   0.20289   0.45282   0.00000  Uiso   1.00
C8     C     0.18315   0.12656   0.04901   0.00000  Uiso   1.00
C9     C     0.16636   0.20774   0.09286   0.00000  Uiso   1.00
C10    C     0.15221   0.13026   0.40617   0.00000  Uiso   1.00
C11    C     0.18672   0.20327   0.40676   0.00000  Uiso   1.00
C12    C     0.24567   0.16632   0.25008   0.00000  Uiso   1.00
C13    C     0.18203   0.12668   0.09492   0.00000  Uiso   1.00
C14    C     0.17201   0.16695   0.11712   0.00000  Uiso   1.00
C15    C     0.16848   0.16672   0.38316   0.00000  Uiso   1.00
C16    C     0.17474   0.16686   0.02462   0.00000  Uiso   1.00
C17    C     0.17337   0.16637   0.47595   0.00000  Uiso   1.00
C18    C     0.29026   0.16558   0.24955   0.00000  Uiso   1.00
C19    C     0.04272   0.16652   0.25001   0.00000  Uiso   1.00
C20    C     0.12496   0.04420   0.17450   0.00000  Uiso   1.00
C21    C     0.08500   0.07275   0.17524   0.00000  Uiso   1.00
C22    C     0.24193   0.29477   0.27915   0.00000  Uiso   1.00
C23    C     0.16828   0.16672   0.16529   0.00000  Uiso   1.00
C24    C     0.25442   0.26804   0.32164   0.00000  Uiso   1.00
C25    C     0.19555   0.03701   0.32982   0.00000  Uiso   1.00
C26    C     0.23525   0.06301   0.34241   0.00000  Uiso   1.00
C27    C     0.09411   0.29219   0.21108   0.00000  Uiso   1.00
C28    C     0.09153   0.26495   0.16769   0.00000  Uiso   1.00
C29    C     0.16691   0.16664   0.33476   0.00000  Uiso   1.00
C30    C     0.14247   0.02459   0.21900   0.00000  Uiso   1.00
C31    C     0.19670   0.30929   0.27361   0.00000  Uiso   1.00
C32    C     0.18958   0.02323   0.28149   0.00000  Uiso   1.00
C33    C     0.13680   0.30994   0.22553   0.00000  Uiso   1.00
C34    C     0.02320   0.12995   0.26965   0.00000  Uiso   1.00
Cu35   Cu    0.16667   0.21355   0.25000   0.00000  Uiso   1.00
Cu36   Cu    0.16667   0.11978   0.25000   0.00000  Uiso   1.00
H37    H     0.16070   0.23931   0.02903   0.00000  Uiso   1.00
H38    H     0.29196   0.22830   0.21162   0.00000  Uiso   1.00
H39    H     0.29901   0.10114   0.28480   0.00000  Uiso   1.00
H40    H     0.03272   0.22885   0.21187   0.00000  Uiso   1.00
H41    H     0.06917   0.06696   0.20611   0.00000  Uiso   1.00
H42    H     0.09121   0.10953   0.17090   0.00000  Uiso   1.00
H43    H     0.06311   0.06308   0.14695   0.00000  Uiso   1.00
H44    H     0.14909   0.06025   0.15664   0.00000  Uiso   1.00
H45    H     0.11776   0.01616   0.15103   0.00000  Uiso   1.00
H46    H     0.23560   0.23735   0.32488   0.00000  Uiso   1.00
H47    H     0.28730   0.25687   0.32111   0.00000  Uiso   1.00
H48    H     0.14097   0.10210   0.46940   0.00000  Uiso   1.00
H49    H     0.25161   0.28970   0.35130   0.00000  Uiso   1.00
H50    H     0.25115   0.27782   0.24888   0.00000  Uiso   1.00
H51    H     0.26182   0.32542   0.27960   0.00000  Uiso   1.00
H52    H     0.26302   0.04161   0.33752   0.00000  Uiso   1.00
H53    H     0.23706   0.09484   0.32324   0.00000  Uiso   1.00
H54    H     0.23592   0.07226   0.37805   0.00000  Uiso   1.00
H55    H     0.16751   0.05450   0.34006   0.00000  Uiso   1.00
H56    H     0.19640   0.00602   0.35122   0.00000  Uiso   1.00
H57    H     0.11566   0.27544   0.14597   0.00000  Uiso   1.00
H58    H     0.09409   0.22774   0.17331   0.00000  Uiso   1.00
H59    H     0.20456   0.23104   0.47031   0.00000  Uiso   1.00
H60    H     0.06102   0.27140   0.14938   0.00000  Uiso   1.00
H61    H     0.08024   0.27612   0.23928   0.00000  Uiso   1.00
H62    H     0.07204   0.32121   0.20551   0.00000  Uiso   1.00
H63    H     0.19076   0.09503   0.03258   0.00000  Uiso   1.00
H64    H     0.16129   0.23982   0.10907   0.00000  Uiso   1.00
H65    H     0.13681   0.10245   0.38861   0.00000  Uiso   1.00
H66    H     0.19927   0.23192   0.38975   0.00000  Uiso   1.00
H67    H     0.18971   0.09541   0.11283   0.00000  Uiso   1.00
H68    H     0.04105   0.10212   0.28555   0.00000  Uiso   1.00
N69    N     0.16667   0.28402   0.25000   0.00000  Uiso   1.00
N70    N     0.16667   0.04931   0.25000   0.00000  Uiso   1.00
O71    O     0.10655   0.20625   0.25000   0.00000  Uiso   1.00
O72    O     0.22679   0.12709   0.25001   0.00000  Uiso   1.00
O73    O     0.22679   0.20625   0.25001   0.00000  Uiso   1.00
O74    O     0.10655   0.12709   0.25000   0.00000  Uiso   1.00
O75    O     0.16666   0.20626   0.18573   0.00000  Uiso   1.00
O76    O     0.16667   0.12707   0.31427   0.00000  Uiso   1.00
O77    O     0.16667   0.20626   0.31427   0.00000  Uiso   1.00
O78    O     0.16666   0.12707   0.18573   0.00000  Uiso   1.00
C79    C     0.42089   0.16681   0.25002   0.00000  Uiso   1.00
C80    C     0.64302   0.20126   0.22890   0.00000  Uiso   1.00
C81    C     0.64700   0.12940   0.26927   0.00000  Uiso   1.00
C82    C     0.35229   0.20167   0.22916   0.00000  Uiso   1.00
C83    C     0.50037   0.20763   0.04699   0.00000  Uiso   1.00
C84    C     0.48792   0.13010   0.45228   0.00000  Uiso   1.00
C85    C     0.52287   0.20289   0.45282   0.00000  Uiso   1.00
C86    C     0.51648   0.12656   0.04901   0.00000  Uiso   1.00
C87    C     0.49970   0.20774   0.09286   0.00000  Uiso   1.00
C88    C     0.48555   0.13026   0.40617   0.00000  Uiso   1.00
C89    C     0.52006   0.20327   0.40676   0.00000  Uiso   1.00
C90    C     0.57900   0.16632   0.25008   0.00000  Uiso   1.00
C91    C     0.51536   0.12668   0.09492   0.00000  Uiso   1.00
C92    C     0.50534   0.16695   0.11712   0.00000  Uiso   1.00
C93    C     0.50181   0.16672   0.38316   0.00000  Uiso   1.00
C94    C     0.50807   0.16686   0.02462   0.00000  Uiso   1.00
C95    C     0.50671   0.16637   0.47595   0.00000  Uiso   1.00
C96    C     0.62359   0.16558   0.24955   0.00000  Uiso   1.00
C97    C     0.37605   0.16652   0.25001   0.00000  Uiso   1.00
C98    C     0.45830   0.04420   0.17450   0.00000  Uiso   1.00
C99    C     0.41833   0.07275   0.17524   0.00000  Uiso   1.00
C100   C     0.57526   0.29477   0.27915   0.00000  Uiso   1.00
C101   C     0.50161   0.16672   0.16529   0.00000  Uiso   1.00
C102   C     0.58776   0.26804   0.32164   0.00000  Uiso   1.00
C103   C     0.52888   0.03701   0.32982   0.00000  Uiso   1.00
C104   C     0.56858   0.06301   0.34241   0.00000  Uiso   1.00
C105   C     0.42744   0.29219   0.21108   0.00000  Uiso   1.00
C106   C     0.42487   0.26495   0.16769   0.00000  Uiso   1.00
C107   C     0.50025   0.16664   0.33476   0.00000  Uiso   1.00
C108   C     0.47580   0.02459   0.21900   0.00000  Uiso   1.00
C109   C     0.53004   0.30929   0.27361   0.00000  Uiso   1.00
C110   C     0.52291   0.02323   0.28149   0.00000  Uiso   1.00
C111   C     0.47013   0.30994   0.22553   0.00000  Uiso   1.00
C112   C     0.35653   0.12995   0.26965   0.00000  Uiso   1.00
Cu113  Cu    0.50000   0.21355   0.25000   0.00000  Uiso   1.00
Cu114  Cu    0.50000   0.11978   0.25000   0.00000  Uiso   1.00
H115   H     0.49404   0.23931   0.02903   0.00000  Uiso   1.00
H116   H     0.62529   0.22830   0.21162   0.00000  Uiso   1.00
H117   H     0.63234   0.10114   0.28480   0.00000  Uiso   1.00
H118   H     0.36605   0.22885   0.21187   0.00000  Uiso   1.00
H119   H     0.40250   0.06696   0.20611   0.00000  Uiso   1.00
H120   H     0.42454   0.10953   0.17090   0.00000  Uiso   1.00
H121   H     0.39644   0.06308   0.14695   0.00000  Uiso   1.00
H122   H     0.48243   0.06025   0.15664   0.00000  Uiso   1.00
H123   H     0.45109   0.01616   0.15103   0.00000  Uiso   1.00
H124   H     0.56893   0.23735   0.32488   0.00000  Uiso   1.00
H125   H     0.62064   0.25687   0.32111   0.00000  Uiso   1.00
H126   H     0.47430   0.10210   0.46940   0.00000  Uiso   1.00
H127   H     0.58495   0.28970   0.35130   0.00000  Uiso   1.00
H128   H     0.58449   0.27782   0.24888   0.00000  Uiso   1.00
H129   H     0.59515   0.32542   0.27960   0.00000  Uiso   1.00
H130   H     0.59635   0.04161   0.33752   0.00000  Uiso   1.00
H131   H     0.57039   0.09484   0.32324   0.00000  Uiso   1.00
H132   H     0.56925   0.07226   0.37805   0.00000  Uiso   1.00
H133   H     0.50084   0.05450   0.34006   0.00000  Uiso   1.00
H134   H     0.52973   0.00602   0.35122   0.00000  Uiso   1.00
H135   H     0.44900   0.27544   0.14597   0.00000  Uiso   1.00
H136   H     0.42742   0.22774   0.17331   0.00000  Uiso   1.00
H137   H     0.53789   0.23104   0.47031   0.00000  Uiso   1.00
H138   H     0.39436   0.27140   0.14938   0.00000  Uiso   1.00
H139   H     0.41358   0.27612   0.23928   0.00000  Uiso   1.00
H140   H     0.40537   0.32121   0.20551   0.00000  Uiso   1.00
H141   H     0.52409   0.09503   0.03258   0.00000  Uiso   1.00
H142   H     0.49463   0.23982   0.10907   0.00000  Uiso   1.00
H143   H     0.47015   0.10245   0.38861   0.00000  Uiso   1.00
H144   H     0.53260   0.23192   0.38975   0.00000  Uiso   1.00
H145   H     0.52304   0.09541   0.11283   0.00000  Uiso   1.00
H146   H     0.37438   0.10212   0.28555   0.00000  Uiso   1.00
N147   N     0.50000   0.28402   0.25000   0.00000  Uiso   1.00
N148   N     0.50000   0.04931   0.25000   0.00000  Uiso   1.00
O149   O     0.43988   0.20625   0.25000   0.00000  Uiso   1.00
O150   O     0.56012   0.12709   0.25001   0.00000  Uiso   1.00
O151   O     0.56012   0.20625   0.25001   0.00000  Uiso   1.00
O152   O     0.43988   0.12709   0.25000   0.00000  Uiso   1.00
O153   O     0.50000   0.20626   0.18573   0.00000  Uiso   1.00
O154   O     0.50000   0.12707   0.31427   0.00000  Uiso   1.00
O155   O     0.50000   0.20626   0.31427   0.00000  Uiso   1.00
O156   O     0.50000   0.12707   0.18573   0.00000  Uiso   1.00
C157   C     0.75422   0.16681   0.25002   0.00000  Uiso   1.00
C158   C     0.97635   0.20126   0.22890   0.00000  Uiso   1.00
C159   C     0.98034   0.12940   0.26927   0.00000  Uiso   1.00
C160   C     0.68563   0.20167   0.22916   0.00000  Uiso   1.00
C161   C     0.83370   0.20763   0.04699   0.00000  Uiso   1.00
C162   C     0.82125   0.13010   0.45228   0.00000  Uiso   1.00
C163   C     0.85620   0.20289   0.45282   0.00000  Uiso   1.00
C164   C     0.84982   0.12656   0.04901   0.00000  Uiso   1.00
C165   C     0.83303   0.20774   0.09286   0.00000  Uiso   1.00
C166   C     0.81888   0.13026   0.40617   0.00000  Uiso   1.00
C167   C     0.85339   0.20327   0.40676   0.00000  Uiso   1.00
C168   C     0.91234   0.16632   0.25008   0.00000  Uiso   1.00
C169   C     0.84870   0.12668   0.09492   0.00000  Uiso   1.00
C170   C     0.83868   0.16695   0.11712   0.00000  Uiso   1.00
C171   C     0.83514   0.16672   0.38316   0.00000  Uiso   1.00
C172   C     0.84140   0.16686   0.02462   0.00000  Uiso   1.00
C173   C     0.84004   0.16637   0.47595   0.00000  Uiso   1.00
C174   C     0.95692   0.16558   0.24955   0.00000  Uiso   1.00
C175   C     0.70939   0.16652   0.25001   0.00000  Uiso   1.00
C176   C     0.79163   0.04420   0.17450   0.00000  Uiso   1.00
C177   C     0.75166   0.07275   0.17524   0.00000  Uiso   1.00
C178   C     0.90860   0.29477   0.27915   0.00000  Uiso   1.00
C179   C     0.83494   0.16672   0.16529   0.00000  Uiso   1.00
C180   C     0.92109   0.26804   0.32164   0.00000  Uiso   1.00
C181   C     0.86222   0.03701   0.32982   0.00000  Uiso   1.00
C182   C     0.90192   0.06301   0.34241   0.00000  Uiso   1.00
C183   C     0.76078   0.29219   0.21108   0.00000  Uiso   1.00
C184   C     0.75820   0.26495   0.16769   0.00000  Uiso   1.00
C185   C     0.83358   0.16664   0.33476   0.00000  Uiso   1.00
C186   C     0.80914   0.02459   0.21900   0.00000  Uiso   1.00
C187   C     0.86337   0.30929   0.27361   0.00000  Uiso   1.00
C188   C     0.85624   0.02323   0.28149   0.00000  Uiso   1.00
C189   C     0.80347   0.30994   0.22553   0.00000  Uiso   1.00
C190   C     0.68987   0.12995   0.26965   0.00000  Uiso   1.00
Cu191  Cu    0.83333   0.21355   0.25000   0.00000  Uiso   1.00
Cu192  Cu    0.83333   0.11978   0.25000   0.00000  Uiso   1.00
H193   H     0.82737   0.23931   0.02903   0.00000  Uiso   1.00
H194   H     0.95863   0.22830   0.21162   0.00000  Uiso   1.00
H195   H     0.96568   0.10114   0.28480   0.00000  Uiso   1.00
H196   H     0.69939   0.22885   0.21187   0.00000  Uiso   1.00
H197   H     0.73583   0.06696   0.20611   0.00000  Uiso   1.00
H198   H     0.75788   0.10953   0.17090   0.00000  Uiso   1.00
H199   H     0.72978   0.06308   0.14695   0.00000  Uiso   1.00
H200   H     0.81576   0.06025   0.15664   0.00000  Uiso   1.00
H201   H     0.78443   0.01616   0.15103   0.00000  Uiso   1.00
H202   H     0.90227   0.23735   0.32488   0.00000  Uiso   1.00
H203   H     0.95397   0.25687   0.32111   0.00000  Uiso   1.00
H204   H     0.80763   0.10210   0.46940   0.00000  Uiso   1.00
H205   H     0.91828   0.28970   0.35130   0.00000  Uiso   1.00
H206   H     0.91782   0.27782   0.24888   0.00000  Uiso   1.00
H207   H     0.92849   0.32542   0.27960   0.00000  Uiso   1.00
H208   H     0.92969   0.04161   0.33752   0.00000  Uiso   1.00
H209   H     0.90373   0.09484   0.32324   0.00000  Uiso   1.00
H210   H     0.90258   0.07226   0.37805   0.00000  Uiso   1.00
H211   H     0.83417   0.05450   0.34006   0.00000  Uiso   1.00
H212   H     0.86306   0.00602   0.35122   0.00000  Uiso   1.00
H213   H     0.78233   0.27544   0.14597   0.00000  Uiso   1.00
H214   H     0.76075   0.22774   0.17331   0.00000  Uiso   1.00
H215   H     0.87123   0.23104   0.47031   0.00000  Uiso   1.00
H216   H     0.72769   0.27140   0.14938   0.00000  Uiso   1.00
H217   H     0.74691   0.27612   0.23928   0.00000  Uiso   1.00
H218   H     0.73870   0.32121   0.20551   0.00000  Uiso   1.00
H219   H     0.85742   0.09503   0.03258   0.00000  Uiso   1.00
H220   H     0.82796   0.23982   0.10907   0.00000  Uiso   1.00
H221   H     0.80348   0.10245   0.38861   0.00000  Uiso   1.00
H222   H     0.86594   0.23192   0.38975   0.00000  Uiso   1.00
H223   H     0.85637   0.09541   0.11283   0.00000  Uiso   1.00
H224   H     0.70771   0.10212   0.28555   0.00000  Uiso   1.00
N225   N     0.83333   0.28402   0.25000   0.00000  Uiso   1.00
N226   N     0.83333   0.04931   0.25000   0.00000  Uiso   1.00
O227   O     0.77321   0.20625   0.25000   0.00000  Uiso   1.00
O228   O     0.89345   0.12709   0.25001   0.00000  Uiso   1.00
O229   O     0.89345   0.20625   0.25001   0.00000  Uiso   1.00
O230   O     0.77321   0.12709   0.25000   0.00000  Uiso   1.00
O231   O     0.83333   0.20626   0.18573   0.00000  Uiso   1.00
O232   O     0.83334   0.12707   0.31427   0.00000  Uiso   1.00
O233   O     0.83334   0.20626   0.31427   0.00000  Uiso   1.00
O234   O     0.83333   0.12707   0.18573   0.00000  Uiso   1.00
C235   C     0.08756   0.50014   0.25002   0.00000  Uiso   1.00
C236   C     0.30968   0.53460   0.22890   0.00000  Uiso   1.00
C237   C     0.31367   0.46273   0.26927   0.00000  Uiso   1.00
C238   C     0.01896   0.53500   0.22916   0.00000  Uiso   1.00
C239   C     0.16703   0.54096   0.04699   0.00000  Uiso   1.00
C240   C     0.15458   0.46343   0.45228   0.00000  Uiso   1.00
C241   C     0.18953   0.53622   0.45282   0.00000  Uiso   1.00
C242   C     0.18315   0.45989   0.04901   0.00000  Uiso   1.00
C243   C     0.16636   0.54107   0.09286   0.00000  Uiso   1.00
C244   C     0.15221   0.46359   0.40617   0.00000  Uiso   1.00
C245   C     0.18672   0.53660   0.40676   0.00000  Uiso   1.00
C246   C     0.24567   0.49965   0.25008   0.00000  Uiso   1.00
C247   C     0.18203   0.46002   0.09492   0.00000  Uiso   1.00
C248   C     0.17201   0.50029   0.11712   0.00000  Uiso   1.00
C249   C     0.16848   0.50006   0.38316   0.00000  Uiso   1.00
C250   C     0.17474   0.50019   0.02462   0.00000  Uiso   1.00
C251   C     0.17337   0.49970   0.47595   0.00000  Uiso   1.00
C252   C     0.29026   0.49892   0.24955   0.00000  Uiso   1.00
C253   C     0.04272   0.49985   0.25001   0.00000  Uiso   1.00
C254   C     0.12496   0.37753   0.17450   0.00000  Uiso   1.00
C255   C     0.08500   0.40609   0.17524   0.00000  Uiso   1.00
C256   C     0.24193   0.62810   0.27915   0.00000  Uiso   1.00
C257   C     0.16828   0.50006   0.16529   0.00000  Uiso   1.00
C258   C     0.25442   0.60137   0.32164   0.00000  Uiso   1.00
C259   C     0.19555   0.37034   0.32982   0.00000  Uiso   1.00
C260   C     0.23525   0.39634   0.34241   0.00000  Uiso   1.00
C261   C     0.09411   0.62552   0.21108   0.00000  Uiso   1.00
C262   C     0.09153   0.59828   0.16769   0.00000  Uiso   1.00
C263   C     0.16691   0.49997   0.33476   0.00000  Uiso   1.00
C264   C     0.14247   0.35793   0.21900   0.00000  Uiso   1.00
C265   C     0.19670   0.64262   0.27361   0.00000  Uiso   1.00
C266   C     0.18958   0.35656   0.28149   0.00000  Uiso   1.00
C267   C     0.13680   0.64327   0.22553   0.00000  Uiso   1.00
C268   C     0.02320   0.46329   0.26965   0.00000  Uiso   1.00
Cu269  Cu    0.16667   0.54689   0.25000   0.00000  Uiso   1.00
Cu270  Cu    0.16667   0.45311   0.25000   0.00000  Uiso   1.00
H271   H     0.16070   0.57264   0.02903   0.00000  Uiso   1.00
H272   H     0.29196   0.56163   0.21162   0.00000  Uiso   1.00
H273   H     0.29901   0.43447   0.28480   0.00000  Uiso   1.00
H274   H     0.03272   0.56218   0.21187   0.00000  Uiso   1.00
H275   H     0.06917   0.40029   0.20611   0.00000  Uiso   1.00
H276   H     0.09121   0.44287   0.17090   0.00000  Uiso   1.00
H277   H     0.06311   0.39642   0.14695   0.00000  Uiso   1.00
H278   H     0.14909   0.39359   0.15664   0.00000  Uiso   1.00
H279   H     0.11776   0.34950   0.15103   0.00000  Uiso   1.00
H280   H     0.23560   0.57068   0.32488   0.00000  Uiso   1.00
H281   H     0.28730   0.59020   0.32111   0.00000  Uiso   1.00
H282   H     0.14097   0.43544   0.46940   0.00000  Uiso   1.00
H283   H     0.25161   0.62304   0.35130   0.00000  Uiso   1.00
H284   H     0.25115   0.61115   0.24888   0.00000  Uiso   1.00
H285   H     0.26182   0.65875   0.27960   0.00000  Uiso   1.00
H286   H     0.26302   0.37494   0.33752   0.00000  Uiso   1.00
H287   H     0.23706   0.42817   0.32324   0.00000  Uiso   1.00
H288   H     0.23592   0.40560   0.37805   0.00000  Uiso   1.00
H289   H     0.16751   0.38783   0.34006   0.00000  Uiso   1.00
H290   H     0.19640   0.33935   0.35122   0.00000  Uiso   1.00
H291   H     0.11566   0.60878   0.14597   0.00000  Uiso   1.00
H292   H     0.09409   0.56107   0.17331   0.00000  Uiso   1.00
H293   H     0.20456   0.56437   0.47031   0.00000  Uiso   1.00
H294   H     0.06102   0.60473   0.14938   0.00000  Uiso   1.00
H295   H     0.08024   0.60946   0.23928   0.00000  Uiso   1.00
H296   H     0.07204   0.65454   0.20551   0.00000  Uiso   1.00
H297   H     0.19076   0.42836   0.03258   0.00000  Uiso   1.00
H298   H     0.16129   0.57315   0.10907   0.00000  Uiso   1.00
H299   H     0.13681   0.43579   0.38861   0.00000  Uiso   1.00
H300   H     0.19927   0.56526   0.38975   0.00000  Uiso   1.00
H301   H     0.18971   0.42874   0.11283   0.00000  Uiso   1.00
H302   H     0.04105   0.43545   0.28555   0.00000  Uiso   1.00
N303   N     0.16667   0.61736   0.25000   0.00000  Uiso   1.00
N304   N     0.16667   0.38264   0.25000   0.00000  Uiso   1.00
O305   O     0.10655   0.53958   0.25000   0.00000  Uiso   1.00
O306   O     0.22679   0.46042   0.25001   0.00000  Uiso   1.00
O307   O     0.22679   0.53958   0.25001   0.00000  Uiso   1.00
O308   O     0.10655   0.46042   0.25000   0.00000  Uiso   1.00
O309   O     0.16666   0.53959   0.18573   0.00000  Uiso   1.00
O310   O     0.16667   0.46041   0.31427   0.00000  Uiso   1.00
O311   O     0.16667   0.53959   0.31427   0.00000  Uiso   1.00
O312   O     0.16666   0.46041   0.18573   0.00000  Uiso   1.00
C313   C     0.42089   0.50014   0.25002   0.00000  Uiso   1.00
C314   C     0.64302   0.53460   0.22890   0.00000  Uiso   1.00
C315   C     0.64700   0.46273   0.26927   0.00000  Uiso   1.00
C316   C     0.35229   0.53500   0.22916   0.00000  Uiso   1.00
C317   C     0.50037   0.54096   0.04699   0.00000  Uiso   1.00
C318   C     0.48792   0.46343   0.45228   0.00000  Uiso   1.00
C319   C     0.52287   0.53622   0.45282   0.00000  Uiso   1.00
C320   C     0.51648   0.45989   0.04901   0.00000  Uiso   1.00
C321   C     0.49970   0.54107   0.09286   0.00000  Uiso   1.00
C322   C     0.48555   0.46359   0.40617   0.00000  Uiso   1.00
C323   C     0.52006   0.53660   0.40676   0.00000  Uiso   1.00
C324   C     0.57900   0.49965   0.25008   0.00000  Uiso   1.00
C325   C     0.51536   0.46002   0.09492   0.00000  Uiso   1.00
C326   C     0.50534   0.50029   0.11712   0.00000  Uiso   1.00
C327   C     0.50181   0.50006   0.38316   0.00000  Uiso   1.00
C328   C     0.50807   0.50019   0.02462   0.00000  Uiso   1.00
C329   C     0.50671   0.49970   0.47595   0.00000  Uiso   1.00
C330   C     0.62359   0.49892   0.24955   0.00000  Uiso   1.00
C331   C     0.37605   0.49985   0.25001   0.00000  Uiso   1.00
C332   C     0.45830   0.37753   0.17450   0.00000  Uiso   1.00
C333   C     0.41833   0.40609   0.17524   0.00000  Uiso   1.00
C334   C     0.57526   0.62810   0.27915   0.00000  Uiso   1.00
C335   C     0.50161   0.50006   0.16529   0.00000  Uiso   1.00
C336   C     0.58776   0.60137   0.32164   0.00000  Uiso   1.00
C337   C     0.52888   0.37034   0.32982   0.00000  Uiso   1.00
C338   C     0.56858   0.39634   0.34241   0.00000  Uiso   1.00
C339   C     0.42744   0.62552   0.21108   0.00000  Uiso   1.00
C340   C     0.42487   0.59828   0.16769   0.00000  Uiso   1.00
C341   C     0.50025   0.49997   0.33476   0.00000  Uiso   1.00
C342   C     0.47580   0.35793   0.21900   0.00000  Uiso   1.00
C343   C     0.53004   0.64262   0.27361   0.00000  Uiso   1.00
C344   C     0.52291   0.35656   0.28149   0.00000  Uiso   1.00
C345   C     0.47013   0.64327   0.22553   0.00000  Uiso   1.00
C346   C     0.35653   0.46329   0.26965   0.00000  Uiso   1.00
Cu347  Cu    0.50000   0.54689   0.25000   0.00000  Uiso   1.00
Cu348  Cu    0.50000   0.45311   0.25000   0.00000  Uiso   1.00
H349   H     0.49404   0.57264   0.02903   0.00000  Uiso   1.00
H350   H     0.62529   0.56163   0.21162   0.00000  Uiso   1.00
H351   H     0.63234   0.43447   0.28480   0.00000  Uiso   1.00
H352   H     0.36605   0.56218   0.21187   0.00000  Uiso   1.00
H353   H     0.40250   0.40029   0.20611   0.00000  Uiso   1.00
H354   H     0.42454   0.44287   0.17090   0.00000  Uiso   1.00
H355   H     0.39644   0.39642   0.14695   0.00000  Uiso   1.00
H356   H     0.48243   0.39359   0.15664   0.00000  Uiso   1.00
H357   H     0.45109   0.34950   0.15103   0.00000  Uiso   1.00
H358   H     0.56893   0.57068   0.32488   0.00000  Uiso   1.00
H359   H     0.62064   0.59020   0.32111   0.00000  Uiso   1.00
H360   H     0.47430   0.43544   0.46940   0.00000  Uiso   1.00
H361   H     0.58495   0.62304   0.35130   0.00000  Uiso   1.00
H362   H     0.58449   0.61115   0.24888   0.00000  Uiso   1.00
H363   H     0.59515   0.65875   0.27960   0.00000  Uiso   1.00
H364   H     0.59635   0.37494   0.33752   0.00000  Uiso   1.00
H365   H     0.57039   0.42817   0.32324   0.00000  Uiso   1.00
H366   H     0.56925   0.40560   0.37805   0.00000  Uiso   1.00
H367   H     0.50084   0.38783   0.34006   0.00000  Uiso   1.00
H368   H     0.52973   0.33935   0.35122   0.00000  Uiso   1.00
H369   H     0.44900   0.60878   0.14597   0.00000  Uiso   1.00
H370   H     0.42742   0.56107   0.17331   0.00000  Uiso   1.00
H371   H     0.53789   0.56437   0.47031   0.00000  Uiso   1.00
H372   H     0.39436   0.60473   0.14938   0.00000  Uiso   1.00
H373   H     0.41358   0.60946   0.23928   0.00000  Uiso   1.00
H374   H     0.40537   0.65454   0.20551   0.00000  Uiso   1.00
H375   H     0.52409   0.42836   0.03258   0.00000  Uiso   1.00
H376   H     0.49463   0.57315   0.10907   0.00000  Uiso   1.00
H377   H     0.47015   0.43579   0.38861   0.00000  Uiso   1.00
H378   H     0.53260   0.56526   0.38975   0.00000  Uiso   1.00
H379   H     0.52304   0.42874   0.11283   0.00000  Uiso   1.00
H380   H     0.37438   0.43545   0.28555   0.00000  Uiso   1.00
N381   N     0.50000   0.61736   0.25000   0.00000  Uiso   1.00
N382   N     0.50000   0.38264   0.25000   0.00000  Uiso   1.00
O383   O     0.43988   0.53958   0.25000   0.00000  Uiso   1.00
O384   O     0.56012   0.46042   0.25001   0.00000  Uiso   1.00
O385   O     0.56012   0.53958   0.25001   0.00000  Uiso   1.00
O386   O     0.43988   0.46042   0.25000   0.00000  Uiso   1.00
O387   O     0.50000   0.53959   0.18573   0.00000  Uiso   1.00
O388   O     0.50000   0.46041   0.31427   0.00000  Uiso   1.00
O389   O     0.50000   0.53959   0.31427   0.00000  Uiso   1.00
O390   O     0.50000   0.46041   0.18573   0.00000  Uiso   1.00
C391   C     0.75422   0.50014   0.25002   0.00000  Uiso   1.00
C392   C     0.97635   0.53460   0.22890   0.00000  Uiso   1.00
C393   C     0.98034   0.46273   0.26927   0.00000  Uiso   1.00
C394   C     0.68563   0.53500   0.22916   0.00000  Uiso   1.00
C395   C     0.83370   0.54096   0.04699   0.00000  Uiso   1.00
C396   C     0.82125   0.46343   0.45228   0.00000  Uiso   1.00
C397   C     0.85620   0.53622   0.45282   0.00000  Uiso   1.00
C398   C     0.84982   0.45989   0.04901   0.00000  Uiso   1.00
C399   C     0.83303   0.54107   0.09286   0.00000  Uiso   1.00
C400   C     0.81888   0.46359   0.40617   0.00000  Uiso   1.00
C401   C     0.85339   0.53660   0.40676   0.00000  Uiso   1.00
C402   C     0.91234   0.49965   0.25008   0.00000  Uiso   1.00
C403   C     0.84870   0.46002   0.09492   0.00000  Uiso   1.00
C404   C     0.83868   0.50029   0.11712   0.00000  Uiso   1.00
C405   C     0.83514   0.50006   0.38316   0.00000  Uiso   1.00
C406   C     0.84140   0.50019   0.02462   0.00000  Uiso   1.00
C407   C     0.84004   0.49970   0.47595   0.00000  Uiso   1.00
C408   C     0.95692   0.49892   0.24955   0.00000  Uiso   1.00
C409   C     0.70939   0.49985   0.25001   0.00000  Uiso   1.00
C410   C     0.79163   0.37753   0.17450   0.00000  Uiso   1.00
C411   C     0.75166   0.40609   0.17524   0.00000  Uiso   1.00
C412   C     0.90860   0.62810   0.27915   0.00000  Uiso   1.00
C413   C     0.83494   0.50006   0.16529   0.00000  Uiso   1.00
C414   C     0.92109   0.60137   0.32164   0.00000  Uiso   1.00
C415   C     0.86222   0.37034   0.32982   0.00000  Uiso   1.00
C416   C     0.90192   0.39634   0.34241   0.00000  Uiso   1.00
C417   C     0.76078   0.62552   0.21108   0.00000  Uiso   1.00
C418   C     0.75820   0.59828   0.16769   0.00000  Uiso   1.00
C419   C     0.83358   0.49997   0.33476   0.00000  Uiso   1.00
C420   C     0.80914   0.35793   0.21900   0.00000  Uiso   1.00
C421   C     0.86337   0.64262   0.27361   0.00000  Uiso   1.00
C422   C     0.85624   0.35656   0.28149   0.00000  Uiso   1.00
C423   C     0.80347   0.64327   0.22553   0.00000  Uiso   1.00
C424   C     0.68987   0.46329   0.26965   0.00000  Uiso   1.00
Cu425  Cu    0.83333   0.54689   0.25000   0.00000  Uiso   1.00
Cu426  Cu    0.83333   0.45311   0.25000   0.00000  Uiso   1.00
H427   H     0.82737   0.57264   0.02903   0.00000  Uiso   1.00
H428   H     0.95863   0.56163   0.21162   0.00000  Uiso   1.00
H429   H     0.96568   0.43447   0.28480   0.00000  Uiso   1.00
H430   H     0.69939   0.56218   0.21187   0.00000  Uiso   1.00
H431   H     0.73583   0.40029   0.20611   0.00000  Uiso   1.00
H432   H     0.75788   0.44287   0.17090   0.00000  Uiso   1.00
H433   H     0.72978   0.39642   0.14695   0.00000  Uiso   1.00
H434   H     0.81576   0.39359   0.15664   0.00000  Uiso   1.00
H435   H     0.78443   0.34950   0.15103   0.00000  Uiso   1.00
H436   H     0.90227   0.57068   0.32488   0.00000  Uiso   1.00
H437   H     0.95397   0.59020   0.32111   0.00000  Uiso   1.00
H438   H     0.80763   0.43544   0.46940   0.00000  Uiso   1.00
H439   H     0.91828   0.62304   0.35130   0.00000  Uiso   1.00
H440   H     0.91782   0.61115   0.24888   0.00000  Uiso   1.00
H441   H     0.92849   0.65875   0.27960   0.00000  Uiso   1.00
H442   H     0.92969   0.37494   0.33752   0.00000  Uiso   1.00
H443   H     0.90373   0.42817   0.32324   0.00000  Uiso   1.00
H444   H     0.90258   0.40560   0.37805   0.00000  Uiso   1.00
H445   H     0.83417   0.38783   0.34006   0.00000  Uiso   1.00
H446   H     0.86306   0.33935   0.35122   0.00000  Uiso   1.00
H447   H     0.78233   0.60878   0.14597   0.00000  Uiso   1.00
H448   H     0.76075   0.56107   0.17331   0.00000  Uiso   1.00
H449   H     0.87123   0.56437   0.47031   0.00000  Uiso   1.00
H450   H     0.72769   0.60473   0.14938   0.00000  Uiso   1.00
H451   H     0.74691   0.60946   0.23928   0.00000  Uiso   1.00
H452   H     0.73870   0.65454   0.20551   0.00000  Uiso   1.00
H453   H     0.85742   0.42836   0.03258   0.00000  Uiso   1.00
H454   H     0.82796   0.57315   0.10907   0.00000  Uiso   1.00
H455   H     0.80348   0.43579   0.38861   0.00000  Uiso   1.00
H456   H     0.86594   0.56526   0.38975   0.00000  Uiso   1.00
H457   H     0.85637   0.42874   0.11283   0.00000  Uiso   1.00
H458   H     0.70771   0.43545   0.28555   0.00000  Uiso   1.00
N459   N     0.83333   0.61736   0.25000   0.00000  Uiso   1.00
N460   N     0.83333   0.38264   0.25000   0.00000  Uiso   1.00
O461   O     0.77321   0.53958   0.25000   0.00000  Uiso   1.00
O462   O     0.89345   0.46042   0.25001   0.00000  Uiso   1.00
O463   O     0.89345   0.53958   0.25001   0.00000  Uiso   1.00
O464   O     0.77321   0.46042   0.25000   0.00000  Uiso   1.00
O465   O     0.83333   0.53959   0.18573   0.00000  Uiso   1.00
O466   O     0.83334   0.46041   0.31427   0.00000  Uiso   1.00
O467   O     0.83334   0.53959   0.31427   0.00000  Uiso   1.00
O468   O     0.83333   0.46041   0.18573   0.00000  Uiso   1.00
C469   C     0.08756   0.83347   0.25002   0.00000  Uiso   1.00
C470   C     0.30968   0.86793   0.22890   0.00000  Uiso   1.00
C471   C     0.31367   0.79606   0.26927   0.00000  Uiso   1.00
C472   C     0.01896   0.86834   0.22916   0.00000  Uiso   1.00
C473   C     0.16703   0.87429   0.04699   0.00000  Uiso   1.00
C474   C     0.15458   0.79677   0.45228   0.00000  Uiso   1.00
C475   C     0.18953   0.86956   0.45282   0.00000  Uiso   1.00
C476   C     0.18315   0.79323   0.04901   0.00000  Uiso   1.00
C477   C     0.16636   0.87441   0.09286   0.00000  Uiso   1.00
C478   C     0.15221   0.79693   0.40617   0.00000  Uiso   1.00
C479   C     0.18672   0.86993   0.40676   0.00000  Uiso   1.00
C480   C     0.24567   0.83299   0.25008   0.00000  Uiso   1.00
C481   C     0.18203   0.79335   0.09492   0.00000  Uiso   1.00
C482   C     0.17201   0.83362   0.11712   0.00000  Uiso   1.00
C483   C     0.16848   0.83339   0.38316   0.00000  Uiso   1.00
C484   C     0.17474   0.83353   0.02462   0.00000  Uiso   1.00
C485   C     0.17337   0.83304   0.47595   0.00000  Uiso   1.00
C486   C     0.29026   0.83225   0.24955   0.00000  Uiso   1.00
C487   C     0.04272   0.83319   0.25001   0.00000  Uiso   1.00
C488   C     0.12496   0.71086   0.17450   0.00000  Uiso   1.00
C489   C     0.08500   0.73942   0.17524   0.00000  Uiso   1.00
C490   C     0.24193   0.96144   0.27915   0.00000  Uiso   1.00
C491   C     0.16828   0.83339   0.16529   0.00000  Uiso   1.00
C492   C     0.25442   0.93471   0.32164   0.00000  Uiso   1.00
C493   C     0.19555   0.70367   0.32982   0.00000  Uiso   1.00
C494   C     0.23525   0.72967   0.34241   0.00000  Uiso   1.00
C495   C     0.09411   0.95885   0.21108   0.00000  Uiso   1.00
C496   C     0.09153   0.93161   0.16769   0.00000  Uiso   1.00
C497   C     0.16691   0.83330   0.33476   0.00000  Uiso   1.00
C498   C     0.14247   0.69126   0.21900   0.00000  Uiso   1.00
C499   C     0.19670   0.97596   0.27361   0.00000  Uiso   1.00
C500   C     0.18958   0.68990   0.28149   0.00000  Uiso   1.00
C501   C     0.13680   0.97660   0.22553   0.00000  Uiso   1.00
C502   C     0.02320   0.79662   0.26965   0.00000  Uiso   1.00
Cu503  Cu    0.16667   0.88022   0.25000   0.00000  Uiso   1.00
Cu504  Cu    0.16667   0.78645   0.25000   0.00000  Uiso   1.00
H505   H     0.16070   0.90598   0.02903   0.00000  Uiso   1.00
H506   H     0.29196   0.89497   0.21162   0.00000  Uiso   1.00
H507   H     0.29901   0.76780   0.28480   0.00000  Uiso   1.00
H508   H     0.03272   0.89551   0.21187   0.00000  Uiso   1.00
H509   H     0.06917   0.73362   0.20611   0.00000  Uiso   1.00
H510   H     0.09121   0.77620   0.17090   0.00000  Uiso   1.00
H511   H     0.06311   0.72975   0.14695   0.00000  Uiso   1.00
H512   H     0.14909   0.72692   0.15664   0.00000  Uiso   1.00
H513   H     0.11776   0.68283   0.15103   0.00000  Uiso   1.00
H514   H     0.23560   0.90401   0.32488   0.00000  Uiso   1.00
H515   H     0.28730   0.92353   0.32111   0.00000  Uiso   1.00
H516   H     0.14097   0.76877   0.46940   0.00000  Uiso   1.00
H517   H     0.25161   0.95637   0.35130   0.00000  Uiso   1.00
H518   H     0.25115   0.94449   0.24888   0.00000  Uiso   1.00
H519   H     0.26182   0.99209   0.27960   0.00000  Uiso   1.00
H520   H     0.26302   0.70828   0.33752   0.00000  Uiso   1.00
H521   H     0.23706   0.76151   0.32324   0.00000  Uiso   1.00
H522   H     0.23592   0.73893   0.37805   0.00000  Uiso   1.00
H523   H     0.16751   0.72116   0.34006   0.00000  Uiso   1.00
H524   H     0.19640   0.67269   0.35122   0.00000  Uiso   1.00
H525   H     0.11566   0.94211   0.14597   0.00000  Uiso   1.00
H526   H     0.09409   0.89441   0.17331   0.00000  Uiso   1.00
H527   H     0.20456   0.89771   0.47031   0.00000  Uiso   1.00
H528   H     0.06102   0.93806   0.14938   0.00000  Uiso   1.00
H529   H     0.08024   0.94279   0.23928   0.00000  Uiso   1.00
H530   H     0.07204   0.98788   0.20551   0.00000  Uiso   1.00
H531   H     0.19076   0.76169   0.03258   0.00000  Uiso   1.00
H532   H     0.16129   0.90648   0.10907   0.00000  Uiso   1.00
H533   H     0.13681   0.76912   0.38861   0.00000  Uiso   1.00
H534   H     0.19927   0.89859   0.38975   0.00000  Uiso   1.00
H535   H     0.18971   0.76208   0.11283   0.00000  Uiso   1.00
H536   H     0.04105   0.76879   0.28555   0.00000  Uiso   1.00
N537   N     0.16667   0.95069   0.25000   0.00000  Uiso   1.00
N538   N     0.16667   0.71598   0.25000   0.00000  Uiso   1.00
O539   O     0.10655   0.87291   0.25000   0.00000  Uiso   1.00
O540   O     0.22679   0.79375   0.25001   0.00000  Uiso   1.00
O541   O     0.22679   0.87291   0.25001   0.00000  Uiso   1.00
O542   O     0.10655   0.79375   0.25000   0.00000  Uiso   1.00
O543   O     0.16666   0.87293   0.18573   0.00000  Uiso   1.00
O544   O     0.16667   0.79374   0.31427   0.00000  Uiso   1.00
O545   O     0.16667   0.87293   0.31427   0.00000  Uiso   1.00
O546   O     0.16666   0.79374   0.18573   0.00000  Uiso   1.00
C547   C     0.42089   0.83347   0.25002   0.00000  Uiso   1.00
C548   C     0.64302   0.86793   0.22890   0.00000  Uiso   1.00
C549   C     0.64700   0.79606   0.26927   0.00000  Uiso   1.00
C550   C     0.35229   0.86834   0.22916   0.00000  Uiso   1.00
C551   C     0.50037   0.87429   0.04699   0.00000  Uiso   1.00
C552   C     0.48792   0.79677   0.45228   0.00000  Uiso   1.00
C553   C     0.52287   0.86956   0.45282   0.00000  Uiso   1.00
C554   C     0.51648   0.79323   0.04901   0.00000  Uiso   1.00
C555   C     0.49970   0.87441   0.09286   0.00000  Uiso   1.00
C556   C     0.48555   0.79693   0.40617   0.00000  Uiso   1.00
C557   C     0.52006   0.86993   0.40676   0.00000  Uiso   1.00
C558   C     0.57900   0.83299   0.25008   0.00000  Uiso   1.00
C559   C     0.51536   0.79335   0.09492   0.00000  Uiso   1.00
C560   C     0.50534   0.83362   0.11712   0.00000  Uiso   1.00
C561   C     0.50181   0.83339   0.38316   0.00000  Uiso   1.00
C562   C     0.50807   0.83353   0.02462   0.00000  Uiso   1.00
C563   C     0.50671   0.83304   0.47595   0.00000  Uiso   1.00
C564   C     0.62359   0.83225   0.24955   0.00000  Uiso   1.00
C565   C     0.37605   0.83319   0.25001   0.00000  Uiso   1.00
C566   C     0.45830   0.71086   0.17450   0.00000  Uiso   1.00
C567   C     0.41833   0.73942   0.17524   0.00000  Uiso   1.00
C568   C     0.57526   0.96144   0.27915   0.00000  Uiso   1.00
C569   C     0.50161   0.83339   0.16529   0.00000  Uiso   1.00
C570   C     0.58776   0.93471   0.32164   0.00000  Uiso   1.00
C571   C     0.52888   0.70367   0.32982   0.00000  Uiso   1.00
C572   C     0.56858   0.72967   0.34241   0.00000  Uiso   1.00
C573   C     0.42744   0.95885   0.21108   0.00000  Uiso   1.00
C574   C     0.42487   0.93161   0.16769   0.00000  Uiso   1.00
C575   C     0.50025   0.83330   0.33476   0.00000  Uiso   1.00
C576   C     0.47580   0.69126   0.21900   0.00000  Uiso   1.00
C577   C     0.53004   0.97596   0.27361   0.00000  Uiso   1.00
C578   C     0.52291   0.68990   0.28149   0.00000  Uiso   1.00
C579   C     0.47013   0.97660   0.22553   0.00000  Uiso   1.00
C580   C     0.35653   0.79662   0.26965   0.00000  Uiso   1.00
Cu581  Cu    0.50000   0.88022   0.25000   0.00000  Uiso   1.00
Cu582  Cu    0.50000   0.78645   0.25000   0.00000  Uiso   1.00
H583   H     0.49404   0.90598   0.02903   0.00000  Uiso   1.00
H584   H     0.62529   0.89497   0.21162   0.00000  Uiso   1.00
H585   H     0.63234   0.76780   0.28480   0.00000  Uiso   1.00
H586   H     0.36605   0.89551   0.21187   0.00000  Uiso   1.00
H587   H     0.40250   0.73362   0.20611   0.00000  Uiso   1.00
H588   H     0.42454   0.77620   0.17090   0.00000  Uiso   1.00
H589   H     0.39644   0.72975   0.14695   0.00000  Uiso   1.00
H590   H     0.48243   0.72692   0.15664   0.00000  Uiso   1.00
H591   H     0.45109   0.68283   0.15103   0.00000  Uiso   1.00
H592   H     0.56893   0.90401   0.32488   0.00000  Uiso   1.00
H593   H     0.62064   0.92353   0.32111   0.00000  Uiso   1.00
H594   H     0.47430   0.76877   0.46940   0.00000  Uiso   1.00
H595   H     0.58495   0.95637   0.35130   0.00000  Uiso   1.00
H596   H     0.58449   0.94449   0.24888   0.00000  Uiso   1.00
H597   H     0.59515   0.99209   0.27960   0.00000  Uiso   1.00
H598   H     0.59635   0.70828   0.33752   0.00000  Uiso   1.00
H599   H     0.57039   0.76151   0.32324   0.00000  Uiso   1.00
H600   H     0.56925   0.73893   0.37805   0.00000  Uiso   1.00
H601   H     0.50084   0.72116   0.34006   0.00000  Uiso   1.00
H602   H     0.52973   0.67269   0.35122   0.00000  Uiso   1.00
H603   H     0.44900   0.94211   0.14597   0.00000  Uiso   1.00
H604   H     0.42742   0.89441   0.17331   0.00000  Uiso   1.00
H605   H     0.53789   0.89771   0.47031   0.00000  Uiso   1.00
H606   H     0.39436   0.93806   0.14938   0.00000  Uiso   1.00
H607   H     0.41358   0.94279   0.23928   0.00000  Uiso   1.00
H608   H     0.40537   0.98788   0.20551   0.00000  Uiso   1.00
H609   H     0.52409   0.76169   0.03258   0.00000  Uiso   1.00
H610   H     0.49463   0.90648   0.10907   0.00000  Uiso   1.00
H611   H     0.47015   0.76912   0.38861   0.00000  Uiso   1.00
H612   H     0.53260   0.89859   0.38975   0.00000  Uiso   1.00
H613   H     0.52304   0.76208   0.11283   0.00000  Uiso   1.00
H614   H     0.37438   0.76879   0.28555   0.00000  Uiso   1.00
N615   N     0.50000   0.95069   0.25000   0.00000  Uiso   1.00
N616   N     0.50000   0.71598   0.25000   0.00000  Uiso   1.00
O617   O     0.43988   0.87291   0.25000   0.00000  Uiso   1.00
O618   O     0.56012   0.79375   0.25001   0.00000  Uiso   1.00
O619   O     0.56012   0.87291   0.25001   0.00000  Uiso   1.00
O620   O     0.43988   0.79375   0.25000   0.00000  Uiso   1.00
O621   O     0.50000   0.87293   0.18573   0.00000  Uiso   1.00
O622   O     0.50000   0.79374   0.31427   0.00000  Uiso   1.00
O623   O     0.50000   0.87293   0.31427   0.00000  Uiso   1.00
O624   O     0.50000   0.79374   0.18573   0.00000  Uiso   1.00
C625   C     0.75422   0.83347   0.25002   0.00000  Uiso   1.00
C626   C     0.97635   0.86793   0.22890   0.00000  Uiso   1.00
C627   C     0.98034   0.79606   0.26927   0.00000  Uiso   1.00
C628   C     0.68563   0.86834   0.22916   0.00000  Uiso   1.00
C629   C     0.83370   0.87429   0.04699   0.00000  Uiso   1.00
C630   C     0.82125   0.79677   0.45228   0.00000  Uiso   1.00
C631   C     0.85620   0.86956   0.45282   0.00000  Uiso   1.00
C632   C     0.84982   0.79323   0.04901   0.00000  Uiso   1.00
C633   C     0.83303   0.87441   0.09286   0.00000  Uiso   1.00
C634   C     0.81888   0.79693   0.40617   0.00000  Uiso   1.00
C635   C     0.85339   0.86993   0.40676   0.00000  Uiso   1.00
C636   C     0.91234   0.83299   0.25008   0.00000  Uiso   1.00
C637   C     0.84870   0.79335   0.09492   0.00000  Uiso   1.00
C638   C     0.83868   0.83362   0.11712   0.00000  Uiso   1.00
C639   C     0.83514   0.83339   0.38316   0.00000  Uiso   1.00
C640   C     0.84140   0.83353   0.02462   0.00000  Uiso   1.00
C641   C     0.84004   0.83304   0.47595   0.00000  Uiso   1.00
C642   C     0.95692   0.83225   0.24955   0.00000  Uiso   1.00
C643   C     0.70939   0.83319   0.25001   0.00000  Uiso   1.00
C644   C     0.79163   0.71086   0.17450   0.00000  Uiso   1.00
C645   C     0.75166   0.73942   0.17524   0.00000  Uiso   1.00
C646   C     0.90860   0.96144   0.27915   0.00000  Uiso   1.00
C647   C     0.83494   0.83339   0.16529   0.00000  Uiso   1.00
C648   C     0.92109   0.93471   0.32164   0.00000  Uiso   1.00
C649   C     0.86222   0.70367   0.32982   0.00000  Uiso   1.00
C650   C     0.90192   0.72967   0.34241   0.00000  Uiso   1.00
C651   C     0.76078   0.95885   0.21108   0.00000  Uiso   1.00
C652   C     0.75820   0.93161   0.16769   0.00000  Uiso   1.00
C653   C     0.83358   0.83330   0.33476   0.00000  Uiso   1.00
C654   C     0.80914   0.69126   0.21900   0.00000  Uiso   1.00
C655   C     0.86337   0.97596   0.27361   0.00000  Uiso   1.00
C656   C     0.85624   0.68990   0.28149   0.00000  Uiso   1.00
C657   C     0.80347   0.97660   0.22553   0.00000  Uiso   1.00
C658   C     0.68987   0.79662   0.26965   0.00000  Uiso   1.00
Cu659  Cu    0.83333   0.88022   0.25000   0.00000  Uiso   1.00
Cu660  Cu    0.83333   0.78645   0.25000   0.00000  Uiso   1.00
H661   H     0.82737   0.90598   0.02903   0.00000  Uiso   1.00
H662   H     0.95863   0.89497   0.21162   0.00000  Uiso   1.00
H663   H     0.96568   0.76780   0.28480   0.00000  Uiso   1.00
H664   H     0.69939   0.89551   0.21187   0.00000  Uiso   1.00
H665   H     0.73583   0.73362   0.20611   0.00000  Uiso   1.00
H666   H     0.75788   0.77620   0.17090   0.00000  Uiso   1.00
H667   H     0.72978   0.72975   0.14695   0.00000  Uiso   1.00
H668   H     0.81576   0.72692   0.15664   0.00000  Uiso   1.00
H669   H     0.78443   0.68283   0.15103   0.00000  Uiso   1.00
H670   H     0.90227   0.90401   0.32488   0.00000  Uiso   1.00
H671   H     0.95397   0.92353   0.32111   0.00000  Uiso   1.00
H672   H     0.80763   0.76877   0.46940   0.00000  Uiso   1.00
H673   H     0.91828   0.95637   0.35130   0.00000  Uiso   1.00
H674   H     0.91782   0.94449   0.24888   0.00000  Uiso   1.00
H675   H     0.92849   0.99209   0.27960   0.00000  Uiso   1.00
H676   H     0.92969   0.70828   0.33752   0.00000  Uiso   1.00
H677   H     0.90373   0.76151   0.32324   0.00000  Uiso   1.00
H678   H     0.90258   0.73893   0.37805   0.00000  Uiso   1.00
H679   H     0.83417   0.72116   0.34006   0.00000  Uiso   1.00
H680   H     0.86306   0.67269   0.35122   0.00000  Uiso   1.00
H681   H     0.78233   0.94211   0.14597   0.00000  Uiso   1.00
H682   H     0.76075   0.89441   0.17331   0.00000  Uiso   1.00
H683   H     0.87123   0.89771   0.47031   0.00000  Uiso   1.00
H684   H     0.72769   0.93806   0.14938   0.00000  Uiso   1.00
H685   H     0.74691   0.94279   0.23928   0.00000  Uiso   1.00
H686   H     0.73870   0.98788   0.20551   0.00000  Uiso   1.00
H687   H     0.85742   0.76169   0.03258   0.00000  Uiso   1.00
H688   H     0.82796   0.90648   0.10907   0.00000  Uiso   1.00
H689   H     0.80348   0.76912   0.38861   0.00000  Uiso   1.00
H690   H     0.86594   0.89859   0.38975   0.00000  Uiso   1.00
H691   H     0.85637   0.76208   0.11283   0.00000  Uiso   1.00
H692   H     0.70771   0.76879   0.28555   0.00000  Uiso   1.00
N693   N     0.83333   0.95069   0.25000   0.00000  Uiso   1.00
N694   N     0.83333   0.71598   0.25000   0.00000  Uiso   1.00
O695   O     0.77321   0.87291   0.25000   0.00000  Uiso   1.00
O696   O     0.89345   0.79375   0.25001   0.00000  Uiso   1.00
O697   O     0.89345   0.87291   0.25001   0.00000  Uiso   1.00
O698   O     0.77321   0.79375   0.25000   0.00000  Uiso   1.00
O699   O     0.83333   0.87293   0.18573   0.00000  Uiso   1.00
O700   O     0.83334   0.79374   0.31427   0.00000  Uiso   1.00
O701   O     0.83334   0.87293   0.31427   0.00000  Uiso   1.00
O702   O     0.83333   0.79374   0.18573   0.00000  Uiso   1.00
C703   C     0.08756   0.16681   0.75002   0.00000  Uiso   1.00
C704   C     0.30968   0.20126   0.72890   0.00000  Uiso   1.00
C705   C     0.31367   0.12940   0.76927   0.00000  Uiso   1.00
C706   C     0.01896   0.20167   0.72916   0.00000  Uiso   1.00
C707   C     0.16703   0.20763   0.54699   0.00000  Uiso   1.00
C708   C     0.15458   0.13010   0.95228   0.00000  Uiso   1.00
C709   C     0.18953   0.20289   0.95282   0.00000  Uiso   1.00
C710   C     0.18315   0.12656   0.54901   0.00000  Uiso   1.00
C711   C     0.16636   0.20774   0.59286   0.00000  Uiso   1.00
C712   C     0.15221   0.13026   0.90617   0.00000  Uiso   1.00
C713   C     0.18672   0.20327   0.90676   0.00000  Uiso   1.00
C714   C     0.24567   0.16632   0.75008   0.00000  Uiso   1.00
C715   C     0.18203   0.12668   0.59492   0.00000  Uiso   1.00
C716   C     0.17201   0.16695   0.61712   0.00000  Uiso   1.00
C717   C     0.16848   0.16672   0.88316   0.00000  Uiso   1.00
C718   C     0.17474   0.16686   0.52462   0.00000  Uiso   1.00
C719   C     0.17337   0.16637   0.97595   0.00000  Uiso   1.00
C720   C     0.29026   0.16558   0.74955   0.00000  Uiso   1.00
C721   C     0.04272   0.16652   0.75001   0.00000  Uiso   1.00
C722   C     0.12496   0.04420   0.67450   0.00000  Uiso   1.00
C723   C     0.08500   0.07275   0.67524   0.00000  Uiso   1.00
C724   C     0.24193   0.29477   0.77915   0.00000  Uiso   1.00
C725   C     0.16828   0.16672   0.66529   0.00000  Uiso   1.00
C726   C     0.25442   0.26804   0.82164   0.00000  Uiso   1.00
C727   C     0.19555   0.03701   0.82982   0.00000  Uiso   1.00
C728   C     0.23525   0.06301   0.84241   0.00000  Uiso   1.00
C729   C     0.09411   0.29219   0.71108   0.00000  Uiso   1.00
C730   C     0.09153   0.26495   0.66769   0.00000  Uiso   1.00
C731   C     0.16691   0.16664   0.83476   0.00000  Uiso   1.00
C732   C     0.14247   0.02459   0.71900   0.00000  Uiso   1.00
C733   C     0.19670   0.30929   0.77361   0.00000  Uiso   1.00
C734   C     0.18958   0.02323   0.78149   0.00000  Uiso   1.00
C735   C     0.13680   0.30994   0.72553   0.00000  Uiso   1.00
C736   C     0.02320   0.12995   0.76965   0.00000  Uiso   1.00
Cu737  Cu    0.16667   0.21355   0.75000   0.00000  Uiso   1.00
Cu738  Cu    0.16667   0.11978   0.75000   0.00000  Uiso   1.00
H739   H     0.16070   0.23931   0.52903   0.00000  Uiso   1.00
H740   H     0.29196   0.22830   0.71162   0.00000  Uiso   1.00
H741   H     0.29901   0.10114   0.78480   0.00000  Uiso   1.00
H742   H     0.03272   0.22885   0.71187   0.00000  Uiso   1.00
H743   H     0.06917   0.06696   0.70611   0.00000  Uiso   1.00
H744   H     0.09121   0.10953   0.67090   0.00000  Uiso   1.00
H745   H     0.06311   0.06308   0.64695   0.00000  Uiso   1.00
H746   H     0.14909   0.06025   0.65664   0.00000  Uiso   1.00
H747   H     0.11776   0.01616   0.65103   0.00000  Uiso   1.00
H748   H     0.23560   0.23735   0.82488   0.00000  Uiso   1.00
H749   H     0.28730   0.25687   0.82111   0.00000  Uiso   1.00
H750   H     0.14097   0.10210   0.96940   0.00000  Uiso   1.00
H751   H     0.25161   0.28970   0.85130   0.00000  Uiso   1.00
H752   H     0.25115   0.27782   0.74888   0.00000  Uiso   1.00
H753   H     0.26182   0.32542   0.77960   0.00000  Uiso   1.00
H754   H     0.26302   0.04161   0.83752   0.00000  Uiso   1.00
H755   H     0.23706   0.09484   0.82324   0.00000  Uiso   1.00
H756   H     0.23592   0.07226   0.87805   0.00000  Uiso   1.00
H757   H     0.16751   0.05450   0.84006   0.00000  Uiso   1.00
H758   H     0.19640   0.00602   0.85122   0.00000  Uiso   1.00
H759   H     0.11566   0.27544   0.64597   0.00000  Uiso   1.00
H760   H     0.09409   0.22774   0.67331   0.00000  Uiso   1.00
H761   H     0.20456   0.23104   0.97031   0.00000  Uiso   1.00
H762   H     0.06102   0.27140   0.64938   0.00000  Uiso   1.00
H763   H     0.08024   0.27612   0.73928   0.00000  Uiso   1.00
H764   H     0.07204   0.32121   0.70551   0.00000  Uiso   1.00
H765   H     0.19076   0.09503   0.53258   0.00000  Uiso   1.00
H766   H     0.16129   0.23982   0.60907   0.00000  Uiso   1.00
H767   H     0.13681   0.10245   0.88861   0.00000  Uiso   1.00
H768   H     0.19927   0.23192   0.88975   0.00000  Uiso   1.00
H769   H     0.18971   0.09541   0.61283   0.00000  Uiso   1.00
H770   H     0.04105   0.10212   0.78555   0.00000  Uiso   1.00
N771   N     0.16667   0.28402   0.75000   0.00000  Uiso   1.00
N772   N     0.16667   0.04931   0.75000   0.00000  Uiso   1.00
O773   O     0.10655   0.20625   0.75000   0.00000  Uiso   1.00
O774   O     0.22679   0.12709   0.75001   0.00000  Uiso   1.00
O775   O     0.22679   0.20625   0.75001   0.00000  Uiso   1.00
O776   O     0.10655   0.12709   0.75000   0.00000  Uiso   1.00
O777   O     0.16666   0.20626   0.68573   0.00000  Uiso   1.00
O778   O     0.16667   0.12707   0.81427   0.00000  Uiso   1.00
O779   O     0.16667   0.20626   0.81427   0.00000  Uiso   1.00
O780   O     0.16666   0.12707   0.68573   0.00000  Uiso   1.00
C781   C     0.42089   0.16681   0.75002   0.00000  Uiso   1.00
C782   C     0.64302   0.20126   0.72890   0.00000  Uiso   1.00
C783   C     0.64700   0.12940   0.76927   0.00000  Uiso   1.00
C784   C     0.35229   0.20167   0.72916   0.00000  Uiso   1.00
C785   C     0.50037   0.20763   0.54699   0.00000  Uiso   1.00
C786   C     0.48792   0.13010   0.95228   0.00000  Uiso   1.00
C787   C     0.52287   0.20289   0.95282   0.00000  Uiso   1.00
C788   C     0.51648   0.12656   0.54901   0.00000  Uiso   1.00
C789   C     0.49970   0.20774   0.59286   0.00000  Uiso   1.00
C790   C     0.48555   0.13026   0.90617   0.00000  Uiso   1.00
C791   C     0.52006   0.20327   0.90676   0.00000  Uiso   1.00
C792   C     0.57900   0.16632   0.75008   0.00000  Uiso   1.00
C793   C     0.51536   0.12668   0.59492   0.00000  Uiso   1.00
C794   C     0.50534   0.16695   0.61712   0.00000  Uiso   1.00
C795   C     0.50181   0.16672   0.88316   0.00000  Uiso   1.00
C796   C     0.50807   0.16686   0.52462   0.00000  Uiso   1.00
C797   C     0.50671   0.16637   0.97595   0.00000  Uiso   1.00
C798   C     0.62359   0.16558   0.74955   0.00000  Uiso   1.00
C799   C     0.37605   0.16652   0.75001   0.00000  Uiso   1.00
C800   C     0.45830   0.04420   0.67450   0.00000  Uiso   1.00
C801   C     0.41833   0.07275   0.67524   0.00000  Uiso   1.00
C802   C     0.57526   0.29477   0.77915   0.00000  Uiso   1.00
C803   C     0.50161   0.16672   0.66529   0.00000  Uiso   1.00
C804   C     0.58776   0.26804   0.82164   0.00000  Uiso   1.00
C805   C     0.52888   0.03701   0.82982   0.00000  Uiso   1.00
C806   C     0.56858   0.06301   0.84241   0.00000  Uiso   1.00
C807   C     0.42744   0.29219   0.71108   0.00000  Uiso   1.00
C808   C     0.42487   0.26495   0.66769   0.00000  Uiso   1.00
C809   C     0.50025   0.16664   0.83476   0.00000  Uiso   1.00
C810   C     0.47580   0.02459   0.71900   0.00000  Uiso   1.00
C811   C     0.53004   0.30929   0.77361   0.00000  Uiso   1.00
C812   C     0.52291   0.02323   0.78149   0.00000  Uiso   1.00
C813   C     0.47013   0.30994   0.72553   0.00000  Uiso   1.00
C814   C     0.35653   0.12995   0.76965   0.00000  Uiso   1.00
Cu815  Cu    0.50000   0.21355   0.75000   0.00000  Uiso   1.00
Cu816  Cu    0.50000   0.11978   0.75000   0.00000  Uiso   1.00
H817   H     0.49404   0.23931   0.52903   0.00000  Uiso   1.00
H818   H     0.62529   0.22830   0.71162   0.00000  Uiso   1.00
H819   H     0.63234   0.10114   0.78480   0.00000  Uiso   1.00
H820   H     0.36605   0.22885   0.71187   0.00000  Uiso   1.00
H821   H     0.40250   0.06696   0.70611   0.00000  Uiso   1.00
H822   H     0.42454   0.10953   0.67090   0.00000  Uiso   1.00
H823   H     0.39644   0.06308   0.64695   0.00000  Uiso   1.00
H824   H     0.48243   0.06025   0.65664   0.00000  Uiso   1.00
H825   H     0.45109   0.01616   0.65103   0.00000  Uiso   1.00
H826   H     0.56893   0.23735   0.82488   0.00000  Uiso   1.00
H827   H     0.62064   0.25687   0.82111   0.00000  Uiso   1.00
H828   H     0.47430   0.10210   0.96940   0.00000  Uiso   1.00
H829   H     0.58495   0.28970   0.85130   0.00000  Uiso   1.00
H830   H     0.58449   0.27782   0.74888   0.00000  Uiso   1.00
H831   H     0.59515   0.32542   0.77960   0.00000  Uiso   1.00
H832   H     0.59635   0.04161   0.83752   0.00000  Uiso   1.00
H833   H     0.57039   0.09484   0.82324   0.00000  Uiso   1.00
H834   H     0.56925   0.07226   0.87805   0.00000  Uiso   1.00
H835   H     0.50084   0.05450   0.84006   0.00000  Uiso   1.00
H836   H     0.52973   0.00602   0.85122   0.00000  Uiso   1.00
H837   H     0.44900   0.27544   0.64597   0.00000  Uiso   1.00
H838   H     0.42742   0.22774   0.67331   0.00000  Uiso   1.00
H839   H     0.53789   0.23104   0.97031   0.00000  Uiso   1.00
H840   H     0.39436   0.27140   0.64938   0.00000  Uiso   1.00
H841   H     0.41358   0.27612   0.73928   0.00000  Uiso   1.00
H842   H     0.40537   0.32121   0.70551   0.00000  Uiso   1.00
H843   H     0.52409   0.09503   0.53258   0.00000  Uiso   1.00
H844   H     0.49463   0.23982   0.60907   0.00000  Uiso   1.00
H845   H     0.47015   0.10245   0.88861   0.00000  Uiso   1.00
H846   H     0.53260   0.23192   0.88975   0.00000  Uiso   1.00
H847   H     0.52304   0.09541   0.61283   0.00000  Uiso   1.00
H848   H     0.37438   0.10212   0.78555   0.00000  Uiso   1.00
N849   N     0.50000   0.28402   0.75000   0.00000  Uiso   1.00
N850   N     0.50000   0.04931   0.75000   0.00000  Uiso   1.00
O851   O     0.43988   0.20625   0.75000   0.00000  Uiso   1.00
O852   O     0.56012   0.12709   0.75001   0.00000  Uiso   1.00
O853   O     0.56012   0.20625   0.75001   0.00000  Uiso   1.00
O854   O     0.43988   0.12709   0.75000   0.00000  Uiso   1.00
O855   O     0.50000   0.20626   0.68573   0.00000  Uiso   1.00
O856   O     0.50000   0.12707   0.81427   0.00000  Uiso   1.00
O857   O     0.50000   0.20626   0.81427   0.00000  Uiso   1.00
O858   O     0.50000   0.12707   0.68573   0.00000  Uiso   1.00
C859   C     0.75422   0.16681   0.75002   0.00000  Uiso   1.00
C860   C     0.97635   0.20126   0.72890   0.00000  Uiso   1.00
C861   C     0.98034   0.12940   0.76927   0.00000  Uiso   1.00
C862   C     0.68563   0.20167   0.72916   0.00000  Uiso   1.00
C863   C     0.83370   0.20763   0.54699   0.00000  Uiso   1.00
C864   C     0.82125   0.13010   0.95228   0.00000  Uiso   1.00
C865   C     0.85620   0.20289   0.95282   0.00000  Uiso   1.00
C866   C     0.84982   0.12656   0.54901   0.00000  Uiso   1.00
C867   C     0.83303   0.20774   0.59286   0.00000  Uiso   1.00
C868   C     0.81888   0.13026   0.90617   0.00000  Uiso   1.00
C869   C     0.85339   0.20327   0.90676   0.00000  Uiso   1.00
C870   C     0.91234   0.16632   0.75008   0.00000  Uiso   1.00
C871   C     0.84870   0.12668   0.59492   0.00000  Uiso   1.00
C872   C     0.83868   0.16695   0.61712   0.00000  Uiso   1.00
C873   C     0.83514   0.16672   0.88316   0.00000  Uiso   1.00
C874   C     0.84140   0.16686   0.52462   0.00000  Uiso   1.00
C875   C     0.84004   0.16637   0.97595   0.00000  Uiso   1.00
C876   C     0.95692   0.16558   0.74955   0.00000  Uiso   1.00
C877   C     0.70939   0.16652   0.75001   0.00000  Uiso   1.00
C878   C     0.79163   0.04420   0.67450   0.00000  Uiso   1.00
C879   C     0.75166   0.07275   0.67524   0.00000  Uiso   1.00
C880   C     0.90860   0.29477   0.77915   0.00000  Uiso   1.00
C881   C     0.83494   0.16672   0.66529   0.00000  Uiso   1.00
C882   C     0.92109   0.26804   0.82164   0.00000  Uiso   1.00
C883   C     0.86222   0.03701   0.82982   0.00000  Uiso   1.00
C884   C     0.90192   0.06301   0.84241   0.00000  Uiso   1.00
C885   C     0.76078   0.29219   0.71108   0.00000  Uiso   1.00
C886   C     0.75820   0.26495   0.66769   0.00000  Uiso   1.00
C887   C     0.83358   0.16664   0.83476   0.00000  Uiso   1.00
C888   C     0.80914   0.02459   0.71900   0.00000  Uiso   1.00
C889   C     0.86337   0.30929   0.77361   0.00000  Uiso   1.00
C890   C     0.85624   0.02323   0.78149   0.00000  Uiso   1.00
C891   C     0.80347   0.30994   0.72553   0.00000  Uiso   1.00
C892   C     0.68987   0.12995   0.76965   0.00000  Uiso   1.00
Cu893  Cu    0.83333   0.21355   0.75000   0.00000  Uiso   1.00
Cu894  Cu    0.83333   0.11978   0.75000   0.00000  Uiso   1.00
H895   H     0.82737   0.23931   0.52903   0.00000  Uiso   1.00
H896   H     0.95863   0.22830   0.71162   0.00000  Uiso   1.00
H897   H     0.96568   0.10114   0.78480   0.00000  Uiso   1.00
H898   H     0.69939   0.22885   0.71187   0.00000  Uiso   1.00
H899   H     0.73583   0.06696   0.70611   0.00000  Uiso   1.00
H900   H     0.75788   0.10953   0.67090   0.00000  Uiso   1.00
H901   H     0.72978   0.06308   0.64695   0.00000  Uiso   1.00
H902   H     0.81576   0.06025   0.65664   0.00000  Uiso   1.00
H903   H     0.78443   0.01616   0.65103   0.00000  Uiso   1.00
H904   H     0.90227   0.23735   0.82488   0.00000  Uiso   1.00
H905   H     0.95397   0.25687   0.82111   0.00000  Uiso   1.00
H906   H     0.80763   0.10210   0.96940   0.00000  Uiso   1.00
H907   H     0.91828   0.28970   0.85130   0.00000  Uiso   1.00
H908   H     0.91782   0.27782   0.74888   0.00000  Uiso   1.00
H909   H     0.92849   0.32542   0.77960   0.00000  Uiso   1.00
H910   H     0.92969   0.04161   0.83752   0.00000  Uiso   1.00
H911   H     0.90373   0.09484   0.82324   0.00000  Uiso   1.00
H912   H     0.90258   0.07226   0.87805   0.00000  Uiso   1.00
H913   H     0.83417   0.05450   0.84006   0.00000  Uiso   1.00
H914   H     0.86306   0.00602   0.85122   0.00000  Uiso   1.00
H915   H     0.78233   0.27544   0.64597   0.00000  Uiso   1.00
H916   H     0.76075   0.22774   0.67331   0.00000  Uiso   1.00
H917   H     0.87123   0.23104   0.97031   0.00000  Uiso   1.00
H918   H     0.72769   0.27140   0.64938   0.00000  Uiso   1.00
H919   H     0.74691   0.27612   0.73928   0.00000  Uiso   1.00
H920   H     0.73870   0.32121   0.70551   0.00000  Uiso   1.00
H921   H     0.85742   0.09503   0.53258   0.00000  Uiso   1.00
H922   H     0.82796   0.23982   0.60907   0.00000  Uiso   1.00
H923   H     0.80348   0.10245   0.88861   0.00000  Uiso   1.00
H924   H     0.86594   0.23192   0.88975   0.00000  Uiso   1.00
H925   H     0.85637   0.09541   0.61283   0.00000  Uiso   1.00
H926   H     0.70771   0.10212   0.78555   0.00000  Uiso   1.00
N927   N     0.83333   0.28402   0.75000   0.00000  Uiso   1.00
N928   N     0.83333   0.04931   0.75000   0.00000  Uiso   1.00
O929   O     0.77321   0.20625   0.75000   0.00000  Uiso   1.00
O930   O     0.89345   0.12709   0.75001   0.00000  Uiso   1.00
O931   O     0.89345   0.20625   0.75001   0.00000  Uiso   1.00
O932   O     0.77321   0.12709   0.75000   0.00000  Uiso   1.00
O933   O     0.83333   0.20626   0.68573   0.00000  Uiso   1.00
O934   O     0.83334   0.12707   0.81427   0.00000  Uiso   1.00
O935   O     0.83334   0.20626   0.81427   0.00000  Uiso   1.00
O936   O     0.83333   0.12707   0.68573   0.00000  Uiso   1.00
C937   C     0.08756   0.50014   0.75002   0.00000  Uiso   1.00
C938   C     0.30968   0.53460   0.72890   0.00000  Uiso   1.00
C939   C     0.31367   0.46273   0.76927   0.00000  Uiso   1.00
C940   C     0.01896   0.53500   0.72916   0.00000  Uiso   1.00
C941   C     0.16703   0.54096   0.54699   0.00000  Uiso   1.00
C942   C     0.15458   0.46343   0.95228   0.00000  Uiso   1.00
C943   C     0.18953   0.53622   0.95282   0.00000  Uiso   1.00
C944   C     0.18315   0.45989   0.54901   0.00000  Uiso   1.00
C945   C     0.16636   0.54107   0.59286   0.00000  Uiso   1.00
C946   C     0.15221   0.46359   0.90617   0.00000  Uiso   1.00
C947   C     0.18672   0.53660   0.90676   0.00000  Uiso   1.00
C948   C     0.24567   0.49965   0.75008   0.00000  Uiso   1.00
C949   C     0.18203   0.46002   0.59492   0.00000  Uiso   1.00
C950   C     0.17201   0.50029   0.61712   0.00000  Uiso   1.00
C951   C     0.16848   0.50006   0.88316   0.00000  Uiso   1.00
C952   C     0.17474   0.50019   0.52462   0.00000  Uiso   1.00
C953   C     0.17337   0.49970   0.97595   0.00000  Uiso   1.00
C954   C     0.29026   0.49892   0.74955   0.00000  Uiso   1.00
C955   C     0.04272   0.49985   0.75001   0.00000  Uiso   1.00
C956   C     0.12496   0.37753   0.67450   0.00000  Uiso   1.00
C957   C     0.08500   0.40609   0.67524   0.00000  Uiso   1.00
C958   C     0.24193   0.62810   0.77915   0.00000  Uiso   1.00
C959   C     0.16828   0.50006   0.66529   0.00000  Uiso   1.00
C960   C     0.25442   0.60137   0.82164   0.00000  Uiso   1.00
C961   C     0.19555   0.37034   0.82982   0.00000  Uiso   1.00
C962   C     0.23525   0.39634   0.84241   0.00000  Uiso   1.00
C963   C     0.09411   0.62552   0.71108   0.00000  Uiso   1.00
C964   C     0.09153   0.59828   0.66769   0.00000  Uiso   1.00
C965   C     0.16691   0.49997   0.83476   0.00000  Uiso   1.00
C966   C     0.14247   0.35793   0.71900   0.00000  Uiso   1.00
C967   C     0.19670   0.64262   0.77361   0.00000  Uiso   1.00
C968   C     0.18958   0.35656   0.78149   0.00000  Uiso   1.00
C969   C     0.13680   0.64327   0.72553   0.00000  Uiso   1.00
C970   C     0.02320   0.46329   0.76965   0.00000  Uiso   1.00
Cu971  Cu    0.16667   0.54689   0.75000   0.00000  Uiso   1.00
Cu972  Cu    0.16667   0.45311   0.75000   0.00000  Uiso   1.00
H973   H     0.16070   0.57264   0.52903   0.00000  Uiso   1.00
H974   H     0.29196   0.56163   0.71162   0.00000  Uiso   1.00
H975   H     0.29901   0.43447   0.78480   0.00000  Uiso   1.00
H976   H     0.03272   0.56218   0.71187   0.00000  Uiso   1.00
H977   H     0.06917   0.40029   0.70611   0.00000  Uiso   1.00
H978   H     0.09121   0.44287   0.67090   0.00000  Uiso   1.00
H979   H     0.06311   0.39642   0.64695   0.00000  Uiso   1.00
H980   H     0.14909   0.39359   0.65664   0.00000  Uiso   1.00
H981   H     0.11776   0.34950   0.65103   0.00000  Uiso   1.00
H982   H     0.23560   0.57068   0.82488   0.00000  Uiso   1.00
H983   H     0.28730   0.59020   0.82111   0.00000  Uiso   1.00
H984   H     0.14097   0.43544   0.96940   0.00000  Uiso   1.00
H985   H     0.25161   0.62304   0.85130   0.00000  Uiso   1.00
H986   H     0.25115   0.61115   0.74888   0.00000  Uiso   1.00
H987   H     0.26182   0.65875   0.77960   0.00000  Uiso   1.00
H988   H     0.26302   0.37494   0.83752   0.00000  Uiso   1.00
H989   H     0.23706   0.42817   0.82324   0.00000  Uiso   1.00
H990   H     0.23592   0.40560   0.87805   0.00000  Uiso   1.00
H991   H     0.16751   0.38783   0.84006   0.00000  Uiso   1.00
H992   H     0.19640   0.33935   0.85122   0.00000  Uiso   1.00
H993   H     0.11566   0.60878   0.64597   0.00000  Uiso   1.00
H994   H     0.09409   0.56107   0.67331   0.00000  Uiso   1.00
H995   H     0.20456   0.56437   0.97031   0.00000  Uiso   1.00
H996   H     0.06102   0.60473   0.64938   0.00000  Uiso   1.00
H997   H     0.08024   0.60946   0.73928   0.00000  Uiso   1.00
H998   H     0.07204   0.65454   0.70551   0.00000  Uiso   1.00
H999   H     0.19076   0.42836   0.53258   0.00000  Uiso   1.00
H1000  H     0.16129   0.57315   0.60907   0.00000  Uiso   1.00
H1001  H     0.13681   0.43579   0.88861   0.00000  Uiso   1.00
H1002  H     0.19927   0.56526   0.88975   0.00000  Uiso   1.00
H1003  H     0.18971   0.42874   0.61283   0.00000  Uiso   1.00
H1004  H     0.04105   0.43545   0.78555   0.00000  Uiso   1.00
N1005  N     0.16667   0.61736   0.75000   0.00000  Uiso   1.00
N1006  N     0.16667   0.38264   0.75000   0.00000  Uiso   1.00
O1007  O     0.10655   0.53958   0.75000   0.00000  Uiso   1.00
O1008  O     0.22679   0.46042   0.75001   0.00000  Uiso   1.00
O1009  O     0.22679   0.53958   0.75001   0.00000  Uiso   1.00
O1010  O     0.10655   0.46042   0.75000   0.00000  Uiso   1.00
O1011  O     0.16666   0.53959   0.68573   0.00000  Uiso   1.00
O1012  O     0.16667   0.46041   0.81427   0.00000  Uiso   1.00
O1013  O     0.16667   0.53959   0.81427   0.00000  Uiso   1.00
O1014  O     0.16666   0.46041   0.68573   0.00000  Uiso   1.00
C1015  C     0.42089   0.50014   0.75002   0.00000  Uiso   1.00
C1016  C     0.64302   0.53460   0.72890   0.00000  Uiso   1.00
C1017  C     0.64700   0.46273   0.76927   0.00000  Uiso   1.00
C1018  C     0.35229   0.53500   0.72916   0.00000  Uiso   1.00
C1019  C     0.50037   0.54096   0.54699   0.00000  Uiso   1.00
C1020  C     0.48792   0.46343   0.95228   0.00000  Uiso   1.00
C1021  C     0.52287   0.53622   0.95282   0.00000  Uiso   1.00
C1022  C     0.51648   0.45989   0.54901   0.00000  Uiso   1.00
C1023  C     0.49970   0.54107   0.59286   0.00000  Uiso   1.00
C1024  C     0.48555   0.46359   0.90617   0.00000  Uiso   1.00
C1025  C     0.52006   0.53660   0.90676   0.00000  Uiso   1.00
C1026  C     0.57900   0.49965   0.75008   0.00000  Uiso   1.00
C1027  C     0.51536   0.46002   0.59492   0.00000  Uiso   1.00
C1028  C     0.50534   0.50029   0.61712   0.00000  Uiso   1.00
C1029  C     0.50181   0.50006   0.88316   0.00000  Uiso   1.00
C1030  C     0.50807   0.50019   0.52462   0.00000  Uiso   1.00
C1031  C     0.50671   0.49970   0.97595   0.00000  Uiso   1.00
C1032  C     0.62359   0.49892   0.74955   0.00000  Uiso   1.00
C1033  C     0.37605   0.49985   0.75001   0.00000  Uiso   1.00
C1034  C     0.45830   0.37753   0.67450   0.00000  Uiso   1.00
C1035  C     0.41833   0.40609   0.67524   0.00000  Uiso   1.00
C1036  C     0.57526   0.62810   0.77915   0.00000  Uiso   1.00
C1037  C     0.50161   0.50006   0.66529   0.00000  Uiso   1.00
C1038  C     0.58776   0.60137   0.82164   0.00000  Uiso   1.00
C1039  C     0.52888   0.37034   0.82982   0.00000  Uiso   1.00
C1040  C     0.56858   0.39634   0.84241   0.00000  Uiso   1.00
C1041  C     0.42744   0.62552   0.71108   0.00000  Uiso   1.00
C1042  C     0.42487   0.59828   0.66769   0.00000  Uiso   1.00
C1043  C     0.50025   0.49997   0.83476   0.00000  Uiso   1.00
C1044  C     0.47580   0.35793   0.71900   0.00000  Uiso   1.00
C1045  C     0.53004   0.64262   0.77361   0.00000  Uiso   1.00
C1046  C     0.52291   0.35656   0.78149   0.00000  Uiso   1.00
C1047  C     0.47013   0.64327   0.72553   0.00000  Uiso   1.00
C1048  C     0.35653   0.46329   0.76965   0.00000  Uiso   1.00
Cu1049 Cu    0.50000   0.54689   0.75000   0.00000  Uiso   1.00
Cu1050 Cu    0.50000   0.45311   0.75000   0.00000  Uiso   1.00
H1051  H     0.49404   0.57264   0.52903   0.00000  Uiso   1.00
H1052  H     0.62529   0.56163   0.71162   0.00000  Uiso   1.00
H1053  H     0.63234   0.43447   0.78480   0.00000  Uiso   1.00
H1054  H     0.36605   0.56218   0.71187   0.00000  Uiso   1.00
H1055  H     0.40250   0.40029   0.70611   0.00000  Uiso   1.00
H1056  H     0.42454   0.44287   0.67090   0.00000  Uiso   1.00
H1057  H     0.39644   0.39642   0.64695   0.00000  Uiso   1.00
H1058  H     0.48243   0.39359   0.65664   0.00000  Uiso   1.00
H1059  H     0.45109   0.34950   0.65103   0.00000  Uiso   1.00
H1060  H     0.56893   0.57068   0.82488   0.00000  Uiso   1.00
H1061  H     0.62064   0.59020   0.82111   0.00000  Uiso   1.00
H1062  H     0.47430   0.43544   0.96940   0.00000  Uiso   1.00
H1063  H     0.58495   0.62304   0.85130   0.00000  Uiso   1.00
H1064  H     0.58449   0.61115   0.74888   0.00000  Uiso   1.00
H1065  H     0.59515   0.65875   0.77960   0.00000  Uiso   1.00
H1066  H     0.59635   0.37494   0.83752   0.00000  Uiso   1.00
H1067  H     0.57039   0.42817   0.82324   0.00000  Uiso   1.00
H1068  H     0.56925   0.40560   0.87805   0.00000  Uiso   1.00
H1069  H     0.50084   0.38783   0.84006   0.00000  Uiso   1.00
H1070  H     0.52973   0.33935   0.85122   0.00000  Uiso   1.00
H1071  H     0.44900   0.60878   0.64597   0.00000  Uiso   1.00
H1072  H     0.42742   0.56107   0.67331   0.00000  Uiso   1.00
H1073  H     0.53789   0.56437   0.97031   0.00000  Uiso   1.00
H1074  H     0.39436   0.60473   0.64938   0.00000  Uiso   1.00
H1075  H     0.41358   0.60946   0.73928   0.00000  Uiso   1.00
H1076  H     0.40537   0.65454   0.70551   0.00000  Uiso   1.00
H1077  H     0.52409   0.42836   0.53258   0.00000  Uiso   1.00
H1078  H     0.49463   0.57315   0.60907   0.00000  Uiso   1.00
H1079  H     0.47015   0.43579   0.88861   0.00000  Uiso   1.00
H1080  H     0.53260   0.56526   0.88975   0.00000  Uiso   1.00
H1081  H     0.52304   0.42874   0.61283   0.00000  Uiso   1.00
H1082  H     0.37438   0.43545   0.78555   0.00000  Uiso   1.00
N1083  N     0.50000   0.61736   0.75000   0.00000  Uiso   1.00
N1084  N     0.50000   0.38264   0.75000   0.00000  Uiso   1.00
O1085  O     0.43988   0.53958   0.75000   0.00000  Uiso   1.00
O1086  O     0.56012   0.46042   0.75001   0.00000  Uiso   1.00
O1087  O     0.56012   0.53958   0.75001   0.00000  Uiso   1.00
O1088  O     0.43988   0.46042   0.75000   0.00000  Uiso   1.00
O1089  O     0.50000   0.53959   0.68573   0.00000  Uiso   1.00
O1090  O     0.50000   0.46041   0.81427   0.00000  Uiso   1.00
O1091  O     0.50000   0.53959   0.81427   0.00000  Uiso   1.00
O1092  O     0.50000   0.46041   0.68573   0.00000  Uiso   1.00
C1093  C     0.75422   0.50014   0.75002   0.00000  Uiso   1.00
C1094  C     0.97635   0.53460   0.72890   0.00000  Uiso   1.00
C1095  C     0.98034   0.46273   0.76927   0.00000  Uiso   1.00
C1096  C     0.68563   0.53500   0.72916   0.00000  Uiso   1.00
C1097  C     0.83370   0.54096   0.54699   0.00000  Uiso   1.00
C1098  C     0.82125   0.46343   0.95228   0.00000  Uiso   1.00
C1099  C     0.85620   0.53622   0.95282   0.00000  Uiso   1.00
C1100  C     0.84982   0.45989   0.54901   0.00000  Uiso   1.00
C1101  C     0.83303   0.54107   0.59286   0.00000  Uiso   1.00
C1102  C     0.81888   0.46359   0.90617   0.00000  Uiso   1.00
C1103  C     0.85339   0.53660   0.90676   0.00000  Uiso   1.00
C1104  C     0.91234   0.49965   0.75008   0.00000  Uiso   1.00
C1105  C     0.84870   0.46002   0.59492   0.00000  Uiso   1.00
C1106  C     0.83868   0.50029   0.61712   0.00000  Uiso   1.00
C1107  C     0.83514   0.50006   0.88316   0.00000  Uiso   1.00
C1108  C     0.84140   0.50019   0.52462   0.00000  Uiso   1.00
C1109  C     0.84004   0.49970   0.97595   0.00000  Uiso   1.00
C1110  C     0.95692   0.49892   0.74955   0.00000  Uiso   1.00
C1111  C     0.70939   0.49985   0.75001   0.00000  Uiso   1.00
C1112  C     0.79163   0.37753   0.67450   0.00000  Uiso   1.00
C1113  C     0.75166   0.40609   0.67524   0.00000  Uiso   1.00
C1114  C     0.90860   0.62810   0.77915   0.00000  Uiso   1.00
C1115  C     0.83494   0.50006   0.66529   0.00000  Uiso   1.00
C1116  C     0.92109   0.60137   0.82164   0.00000  Uiso   1.00
C1117  C     0.86222   0.37034   0.82982   0.00000  Uiso   1.00
C1118  C     0.90192   0.39634   0.84241   0.00000  Uiso   1.00
C1119  C     0.76078   0.62552   0.71108   0.00000  Uiso   1.00
C1120  C     0.75820   0.59828   0.66769   0.00000  Uiso   1.00
C1121  C     0.83358   0.49997   0.83476   0.00000  Uiso   1.00
C1122  C     0.80914   0.35793   0.71900   0.00000  Uiso   1.00
C1123  C     0.86337   0.64262   0.77361   0.00000  Uiso   1.00
C1124  C     0.85624   0.35656   0.78149   0.00000  Uiso   1.00
C1125  C     0.80347   0.64327   0.72553   0.00000  Uiso   1.00
C1126  C     0.68987   0.46329   0.76965   0.00000  Uiso   1.00
Cu1127 Cu    0.83333   0.54689   0.75000   0.00000  Uiso   1.00
Cu1128 Cu    0.83333   0.45311   0.75000   0.00000  Uiso   1.00
H1129  H     0.82737   0.57264   0.52903   0.00000  Uiso   1.00
H1130  H     0.95863   0.56163   0.71162   0.00000  Uiso   1.00
H1131  H     0.96568   0.43447   0.78480   0.00000  Uiso   1.00
H1132  H     0.69939   0.56218   0.71187   0.00000  Uiso   1.00
H1133  H     0.73583   0.40029   0.70611   0.00000  Uiso   1.00
H1134  H     0.75788   0.44287   0.67090   0.00000  Uiso   1.00
H1135  H     0.72978   0.39642   0.64695   0.00000  Uiso   1.00
H1136  H     0.81576   0.39359   0.65664   0.00000  Uiso   1.00
H1137  H     0.78443   0.34950   0.65103   0.00000  Uiso   1.00
H1138  H     0.90227   0.57068   0.82488   0.00000  Uiso   1.00
H1139  H     0.95397   0.59020   0.82111   0.00000  Uiso   1.00
H1140  H     0.80763   0.43544   0.96940   0.00000  Uiso   1.00
H1141  H     0.91828   0.62304   0.85130   0.00000  Uiso   1.00
H1142  H     0.91782   0.61115   0.74888   0.00000  Uiso   1.00
H1143  H     0.92849   0.65875   0.77960   0.00000  Uiso   1.00
H1144  H     0.92969   0.37494   0.83752   0.00000  Uiso   1.00
H1145  H     0.90373   0.42817   0.82324   0.00000  Uiso   1.00
H1146  H     0.90258   0.40560   0.87805   0.00000  Uiso   1.00
H1147  H     0.83417   0.38783   0.84006   0.00000  Uiso   1.00
H1148  H     0.86306   0.33935   0.85122   0.00000  Uiso   1.00
H1149  H     0.78233   0.60878   0.64597   0.00000  Uiso   1.00
H1150  H     0.76075   0.56107   0.67331   0.00000  Uiso   1.00
H1151  H     0.87123   0.56437   0.97031   0.00000  Uiso   1.00
H1152  H     0.72769   0.60473   0.64938   0.00000  Uiso   1.00
H1153  H     0.74691   0.60946   0.73928   0.00000  Uiso   1.00
H1154  H     0.73870   0.65454   0.70551   0.00000  Uiso   1.00
H1155  H     0.85742   0.42836   0.53258   0.00000  Uiso   1.00
H1156  H     0.82796   0.57315   0.60907   0.00000  Uiso   1.00
H1157  H     0.80348   0.43579   0.88861   0.00000  Uiso   1.00
H1158  H     0.86594   0.56526   0.88975   0.00000  Uiso   1.00
H1159  H     0.85637   0.42874   0.61283   0.00000  Uiso   1.00
H1160  H     0.70771   0.43545   0.78555   0.00000  Uiso   1.00
N1161  N     0.83333   0.61736   0.75000   0.00000  Uiso   1.00
N1162  N     0.83333   0.38264   0.75000   0.00000  Uiso   1.00
O1163  O     0.77321   0.53958   0.75000   0.00000  Uiso   1.00
O1164  O     0.89345   0.46042   0.75001   0.00000  Uiso   1.00
O1165  O     0.89345   0.53958   0.75001   0.00000  Uiso   1.00
O1166  O     0.77321   0.46042   0.75000   0.00000  Uiso   1.00
O1167  O     0.83333   0.53959   0.68573   0.00000  Uiso   1.00
O1168  O     0.83334   0.46041   0.81427   0.00000  Uiso   1.00
O1169  O     0.83334   0.53959   0.81427   0.00000  Uiso   1.00
O1170  O     0.83333   0.46041   0.68573   0.00000  Uiso   1.00
C1171  C     0.08756   0.83347   0.75002   0.00000  Uiso   1.00
C1172  C     0.30968   0.86793   0.72890   0.00000  Uiso   1.00
C1173  C     0.31367   0.79606   0.76927   0.00000  Uiso   1.00
C1174  C     0.01896   0.86834   0.72916   0.00000  Uiso   1.00
C1175  C     0.16703   0.87429   0.54699   0.00000  Uiso   1.00
C1176  C     0.15458   0.79677   0.95228   0.00000  Uiso   1.00
C1177  C     0.18953   0.86956   0.95282   0.00000  Uiso   1.00
C1178  C     0.18315   0.79323   0.54901   0.00000  Uiso   1.00
C1179  C     0.16636   0.87441   0.59286   0.00000  Uiso   1.00
C1180  C     0.15221   0.79693   0.90617   0.00000  Uiso   1.00
C1181  C     0.18672   0.86993   0.90676   0.00000  Uiso   1.00
C1182  C     0.24567   0.83299   0.75008   0.00000  Uiso   1.00
C1183  C     0.18203   0.79335   0.59492   0.00000  Uiso   1.00
C1184  C     0.17201   0.83362   0.61712   0.00000  Uiso   1.00
C1185  C     0.16848   0.83339   0.88316   0.00000  Uiso   1.00
C1186  C     0.17474   0.83353   0.52462   0.00000  Uiso   1.00
C1187  C     0.17337   0.83304   0.97595   0.00000  Uiso   1.00
C1188  C     0.29026   0.83225   0.74955   0.00000  Uiso   1.00
C1189  C     0.04272   0.83319   0.75001   0.00000  Uiso   1.00
C1190  C     0.12496   0.71086   0.67450   0.00000  Uiso   1.00
C1191  C     0.08500   0.73942   0.67524   0.00000  Uiso   1.00
C1192  C     0.24193   0.96144   0.77915   0.00000  Uiso   1.00
C1193  C     0.16828   0.83339   0.66529   0.00000  Uiso   1.00
C1194  C     0.25442   0.93471   0.82164   0.00000  Uiso   1.00
C1195  C     0.19555   0.70367   0.82982   0.00000  Uiso   1.00
C1196  C     0.23525   0.72967   0.84241   0.00000  Uiso   1.00
C1197  C     0.09411   0.95885   0.71108   0.00000  Uiso   1.00
C1198  C     0.09153   0.93161   0.66769   0.00000  Uiso   1.00
C1199  C     0.16691   0.83330   0.83476   0.00000  Uiso   1.00
C1200  C     0.14247   0.69126   0.71900   0.00000  Uiso   1.00
C1201  C     0.19670   0.97596   0.77361   0.00000  Uiso   1.00
C1202  C     0.18958   0.68990   0.78149   0.00000  Uiso   1.00
C1203  C     0.13680   0.97660   0.72553   0.00000  Uiso   1.00
C1204  C     0.02320   0.79662   0.76965   0.00000  Uiso   1.00
Cu1205 Cu    0.16667   0.88022   0.75000   0.00000  Uiso   1.00
Cu1206 Cu    0.16667   0.78645   0.75000   0.00000  Uiso   1.00
H1207  H     0.16070   0.90598   0.52903   0.00000  Uiso   1.00
H1208  H     0.29196   0.89497   0.71162   0.00000  Uiso   1.00
H1209  H     0.29901   0.76780   0.78480   0.00000  Uiso   1.00
H1210  H     0.03272   0.89551   0.71187   0.00000  Uiso   1.00
H1211  H     0.06917   0.73362   0.70611   0.00000  Uiso   1.00
H1212  H     0.09121   0.77620   0.67090   0.00000  Uiso   1.00
H1213  H     0.06311   0.72975   0.64695   0.00000  Uiso   1.00
H1214  H     0.14909   0.72692   0.65664   0.00000  Uiso   1.00
H1215  H     0.11776   0.68283   0.65103   0.00000  Uiso   1.00
H1216  H     0.23560   0.90401   0.82488   0.00000  Uiso   1.00
H1217  H     0.28730   0.92353   0.82111   0.00000  Uiso   1.00
H1218  H     0.14097   0.76877   0.96940   0.00000  Uiso   1.00
H1219  H     0.25161   0.95637   0.85130   0.00000  Uiso   1.00
H1220  H     0.25115   0.94449   0.74888   0.00000  Uiso   1.00
H1221  H     0.26182   0.99209   0.77960   0.00000  Uiso   1.00
H1222  H     0.26302   0.70828   0.83752   0.00000  Uiso   1.00
H1223  H     0.23706   0.76151   0.82324   0.00000  Uiso   1.00
H1224  H     0.23592   0.73893   0.87805   0.00000  Uiso   1.00
H1225  H     0.16751   0.72116   0.84006   0.00000  Uiso   1.00
H1226  H     0.19640   0.67269   0.85122   0.00000  Uiso   1.00
H1227  H     0.11566   0.94211   0.64597   0.00000  Uiso   1.00
H1228  H     0.09409   0.89441   0.67331   0.00000  Uiso   1.00
H1229  H     0.20456   0.89771   0.97031   0.00000  Uiso   1.00
H1230  H     0.06102   0.93806   0.64938   0.00000  Uiso   1.00
H1231  H     0.08024   0.94279   0.73928   0.00000  Uiso   1.00
H1232  H     0.07204   0.98788   0.70551   0.00000  Uiso   1.00
H1233  H     0.19076   0.76169   0.53258   0.00000  Uiso   1.00
H1234  H     0.16129   0.90648   0.60907   0.00000  Uiso   1.00
H1235  H     0.13681   0.76912   0.88861   0.00000  Uiso   1.00
H1236  H     0.19927   0.89859   0.88975   0.00000  Uiso   1.00
H1237  H     0.18971   0.76208   0.61283   0.00000  Uiso   1.00
H1238  H     0.04105   0.76879   0.78555   0.00000  Uiso   1.00
N1239  N     0.16667   0.95069   0.75000   0.00000  Uiso   1.00
N1240  N     0.16667   0.71598   0.75000   0.00000  Uiso   1.00
O1241  O     0.10655   0.87291   0.75000   0.00000  Uiso   1.00
O1242  O     0.22679   0.79375   0.75001   0.00000  Uiso   1.00
O1243  O     0.22679   0.87291   0.75001   0.00000  Uiso   1.00
O1244  O     0.10655   0.79375   0.75000   0.00000  Uiso   1.00
O1245  O     0.16666   0.87293   0.68573   0.00000  Uiso   1.00
O1246  O     0.16667   0.79374   0.81427   0.00000  Uiso   1.00
O1247  O     0.16667   0.87293   0.81427   0.00000  Uiso   1.00
O1248  O     0.16666   0.79374   0.68573   0.00000  Uiso   1.00
C1249  C     0.42089   0.83347   0.75002   0.00000  Uiso   1.00
C1250  C     0.64302   0.86793   0.72890   0.00000  Uiso   1.00
C1251  C     0.64700   0.79606   0.76927   0.00000  Uiso   1.00
C1252  C     0.35229   0.86834   0.72916   0.00000  Uiso   1.00
C1253  C     0.50037   0.87429   0.54699   0.00000  Uiso   1.00
C1254  C     0.48792   0.79677   0.95228   0.00000  Uiso   1.00
C1255  C     0.52287   0.86956   0.95282   0.00000  Uiso   1.00
C1256  C     0.51648   0.79323   0.54901   0.00000  Uiso   1.00
C1257  C     0.49970   0.87441   0.59286   0.00000  Uiso   1.00
C1258  C     0.48555   0.79693   0.90617   0.00000  Uiso   1.00
C1259  C     0.52006   0.86993   0.90676   0.00000  Uiso   1.00
C1260  C     0.57900   0.83299   0.75008   0.00000  Uiso   1.00
C1261  C     0.51536   0.79335   0.59492   0.00000  Uiso   1.00
C1262  C     0.50534   0.83362   0.61712   0.00000  Uiso   1.00
C1263  C     0.50181   0.83339   0.88316   0.00000  Uiso   1.00
C1264  C     0.50807   0.83353   0.52462   0.00000  Uiso   1.00
C1265  C     0.50671   0.83304   0.97595   0.00000  Uiso   1.00
C1266  C     0.62359   0.83225   0.74955   0.00000  Uiso   1.00
C1267  C     0.37605   0.83319   0.75001   0.00000  Uiso   1.00
C1268  C     0.45830   0.71086   0.67450   0.00000  Uiso   1.00
C1269  C     0.41833   0.73942   0.67524   0.00000  Uiso   1.00
C1270  C     0.57526   0.96144   0.77915   0.00000  Uiso   1.00
C1271  C     0.50161   0.83339   0.66529   0.00000  Uiso   1.00
C1272  C     0.58776   0.93471   0.82164   0.00000  Uiso   1.00
C1273  C     0.52888   0.70367   0.82982   0.00000  Uiso   1.00
C1274  C     0.56858   0.72967   0.84241   0.00000  Uiso   1.00
C1275  C     0.42744   0.95885   0.71108   0.00000  Uiso   1.00
C1276  C     0.42487   0.93161   0.66769   0.00000  Uiso   1.00
C1277  C     0.50025   0.83330   0.83476   0.00000  Uiso   1.00
C1278  C     0.47580   0.69126   0.71900   0.00000  Uiso   1.00
C1279  C     0.53004   0.97596   0.77361   0.00000  Uiso   1.00
C1280  C     0.52291   0.68990   0.78149   0.00000  Uiso   1.00
C1281  C     0.47013   0.97660   0.72553   0.00000  Uiso   1.00
C1282  C     0.35653   0.79662   0.76965   0.00000  Uiso   1.00
Cu1283 Cu    0.50000   0.88022   0.75000   0.00000  Uiso   1.00
Cu1284 Cu    0.50000   0.78645   0.75000   0.00000  Uiso   1.00
H1285  H     0.49404   0.90598   0.52903   0.00000  Uiso   1.00
H1286  H     0.62529   0.89497   0.71162   0.00000  Uiso   1.00
H1287  H     0.63234   0.76780   0.78480   0.00000  Uiso   1.00
H1288  H     0.36605   0.89551   0.71187   0.00000  Uiso   1.00
H1289  H     0.40250   0.73362   0.70611   0.00000  Uiso   1.00
H1290  H     0.42454   0.77620   0.67090   0.00000  Uiso   1.00
H1291  H     0.39644   0.72975   0.64695   0.00000  Uiso   1.00
H1292  H     0.48243   0.72692   0.65664   0.00000  Uiso   1.00
H1293  H     0.45109   0.68283   0.65103   0.00000  Uiso   1.00
H1294  H     0.56893   0.90401   0.82488   0.00000  Uiso   1.00
H1295  H     0.62064   0.92353   0.82111   0.00000  Uiso   1.00
H1296  H     0.47430   0.76877   0.96940   0.00000  Uiso   1.00
H1297  H     0.58495   0.95637   0.85130   0.00000  Uiso   1.00
H1298  H     0.58449   0.94449   0.74888   0.00000  Uiso   1.00
H1299  H     0.59515   0.99209   0.77960   0.00000  Uiso   1.00
H1300  H     0.59635   0.70828   0.83752   0.00000  Uiso   1.00
H1301  H     0.57039   0.76151   0.82324   0.00000  Uiso   1.00
H1302  H     0.56925   0.73893   0.87805   0.00000  Uiso   1.00
H1303  H     0.50084   0.72116   0.84006   0.00000  Uiso   1.00
H1304  H     0.52973   0.67269   0.85122   0.00000  Uiso   1.00
H1305  H     0.44900   0.94211   0.64597   0.00000  Uiso   1.00
H1306  H     0.42742   0.89441   0.67331   0.00000  Uiso   1.00
H1307  H     0.53789   0.89771   0.97031   0.00000  Uiso   1.00
H1308  H     0.39436   0.93806   0.64938   0.00000  Uiso   1.00
H1309  H     0.41358   0.94279   0.73928   0.00000  Uiso   1.00
H1310  H     0.40537   0.98788   0.70551   0.00000  Uiso   1.00
H1311  H     0.52409   0.76169   0.53258   0.00000  Uiso   1.00
H1312  H     0.49463   0.90648   0.60907   0.00000  Uiso   1.00
H1313  H     0.47015   0.76912   0.88861   0.00000  Uiso   1.00
H1314  H     0.53260   0.89859   0.88975   0.00000  Uiso   1.00
H1315  H     0.52304   0.76208   0.61283   0.00000  Uiso   1.00
H1316  H     0.37438   0.76879   0.78555   0.00000  Uiso   1.00
N1317  N     0.50000   0.95069   0.75000   0.00000  Uiso   1.00
N1318  N     0.50000   0.71598   0.75000   0.00000  Uiso   1.00
O1319  O     0.43988   0.87291   0.75000   0.00000  Uiso   1.00
O1320  O     0.56012   0.79375   0.75001   0.00000  Uiso   1.00
O1321  O     0.56012   0.87291   0.75001   0.00000  Uiso   1.00
O1322  O     0.43988   0.79375   0.75000   0.00000  Uiso   1.00
O1323  O     0.50000   0.87293   0.68573   0.00000  Uiso   1.00
O1324  O     0.50000   0.79374   0.81427   0.00000  Uiso   1.00
O1325  O     0.50000   0.87293   0.81427   0.00000  Uiso   1.00
O1326  O     0.50000   0.79374   0.68573   0.00000  Uiso   1.00
C1327  C     0.75422   0.83347   0.75002   0.00000  Uiso   1.00
C1328  C     0.97635   0.86793   0.72890   0.00000  Uiso   1.00
C1329  C     0.98034   0.79606   0.76927   0.00000  Uiso   1.00
C1330  C     0.68563   0.86834   0.72916   0.00000  Uiso   1.00
C1331  C     0.83370   0.87429   0.54699   0.00000  Uiso   1.00
C1332  C     0.82125   0.79677   0.95228   0.00000  Uiso   1.00
C1333  C     0.85620   0.86956   0.95282   0.00000  Uiso   1.00
C1334  C     0.84982   0.79323   0.54901   0.00000  Uiso   1.00
C1335  C     0.83303   0.87441   0.59286   0.00000  Uiso   1.00
C1336  C     0.81888   0.79693   0.90617   0.00000  Uiso   1.00
C1337  C     0.85339   0.86993   0.90676   0.00000  Uiso   1.00
C1338  C     0.91234   0.83299   0.75008   0.00000  Uiso   1.00
C1339  C     0.84870   0.79335   0.59492   0.00000  Uiso   1.00
C1340  C     0.83868   0.83362   0.61712   0.00000  Uiso   1.00
C1341  C     0.83514   0.83339   0.88316   0.00000  Uiso   1.00
C1342  C     0.84140   0.83353   0.52462   0.00000  Uiso   1.00
C1343  C     0.84004   0.83304   0.97595   0.00000  Uiso   1.00
C1344  C     0.95692   0.83225   0.74955   0.00000  Uiso   1.00
C1345  C     0.70939   0.83319   0.75001   0.00000  Uiso   1.00
C1346  C     0.79163   0.71086   0.67450   0.00000  Uiso   1.00
C1347  C     0.75166   0.73942   0.67524   0.00000  Uiso   1.00
C1348  C     0.90860   0.96144   0.77915   0.00000  Uiso   1.00
C1349  C     0.83494   0.83339   0.66529   0.00000  Uiso   1.00
C1350  C     0.92109   0.93471   0.82164   0.00000  Uiso   1.00
C1351  C     0.86222   0.70367   0.82982   0.00000  Uiso   1.00
C1352  C     0.90192   0.72967   0.84241   0.00000  Uiso   1.00
C1353  C     0.76078   0.95885   0.71108   0.00000  Uiso   1.00
C1354  C     0.75820   0.93161   0.66769   0.00000  Uiso   1.00
C1355  C     0.83358   0.83330   0.83476   0.00000  Uiso   1.00
C1356  C     0.80914   0.69126   0.71900   0.00000  Uiso   1.00
C1357  C     0.86337   0.97596   0.77361   0.00000  Uiso   1.00
C1358  C     0.85624   0.68990   0.78149   0.00000  Uiso   1.00
C1359  C     0.80347   0.97660   0.72553   0.00000  Uiso   1.00
C1360  C     0.68987   0.79662   0.76965   0.00000  Uiso   1.00
Cu1361 Cu    0.83333   0.88022   0.75000   0.00000  Uiso   1.00
Cu1362 Cu    0.83333   0.78645   0.75000   0.00000  Uiso   1.00
H1363  H     0.82737   0.90598   0.52903   0.00000  Uiso   1.00
H1364  H     0.95863   0.89497   0.71162   0.00000  Uiso   1.00
H1365  H     0.96568   0.76780   0.78480   0.00000  Uiso   1.00
H1366  H     0.69939   0.89551   0.71187   0.00000  Uiso   1.00
H1367  H     0.73583   0.73362   0.70611   0.00000  Uiso   1.00
H1368  H     0.75788   0.77620   0.67090   0.00000  Uiso   1.00
H1369  H     0.72978   0.72975   0.64695   0.00000  Uiso   1.00
H1370  H     0.81576   0.72692   0.65664   0.00000  Uiso   1.00
H1371  H     0.78443   0.68283   0.65103   0.00000  Uiso   1.00
H1372  H     0.90227   0.90401   0.82488   0.00000  Uiso   1.00
H1373  H     0.95397   0.92353   0.82111   0.00000  Uiso   1.00
H1374  H     0.80763   0.76877   0.96940   0.00000  Uiso   1.00
H1375  H     0.91828   0.95637   0.85130   0.00000  Uiso   1.00
H1376  H     0.91782   0.94449   0.74888   0.00000  Uiso   1.00
H1377  H     0.92849   0.99209   0.77960   0.00000  Uiso   1.00
H1378  H     0.92969   0.70828   0.83752   0.00000  Uiso   1.00
H1379  H     0.90373   0.76151   0.82324   0.00000  Uiso   1.00
H1380  H     0.90258   0.73893   0.87805   0.00000  Uiso   1.00
H1381  H     0.83417   0.72116   0.84006   0.00000  Uiso   1.00
H1382  H     0.86306   0.67269   0.85122   0.00000  Uiso   1.00
H1383  H     0.78233   0.94211   0.64597   0.00000  Uiso   1.00
H1384  H     0.76075   0.89441   0.67331   0.00000  Uiso   1.00
H1385  H     0.87123   0.89771   0.97031   0.00000  Uiso   1.00
H1386  H     0.72769   0.93806   0.64938   0.00000  Uiso   1.00
H1387  H     0.74691   0.94279   0.73928   0.00000  Uiso   1.00
H1388  H     0.73870   0.98788   0.70551   0.00000  Uiso   1.00
H1389  H     0.85742   0.76169   0.53258   0.00000  Uiso   1.00
H1390  H     0.82796   0.90648   0.60907   0.00000  Uiso   1.00
H1391  H     0.80348   0.76912   0.88861   0.00000  Uiso   1.00
H1392  H     0.86594   0.89859   0.88975   0.00000  Uiso   1.00
H1393  H     0.85637   0.76208   0.61283   0.00000  Uiso   1.00
H1394  H     0.70771   0.76879   0.78555   0.00000  Uiso   1.00
N1395  N     0.83333   0.95069   0.75000   0.00000  Uiso   1.00
N1396  N     0.83333   0.71598   0.75000   0.00000  Uiso   1.00
O1397  O     0.77321   0.87291   0.75000   0.00000  Uiso   1.00
O1398  O     0.89345   0.79375   0.75001   0.00000  Uiso   1.00
O1399  O     0.89345   0.87291   0.75001   0.00000  Uiso   1.00
O1400  O     0.77321   0.79375   0.75000   0.00000  Uiso   1.00
O1401  O     0.83333   0.87293   0.68573   0.00000  Uiso   1.00
O1402  O     0.83334   0.79374   0.81427   0.00000  Uiso   1.00
O1403  O     0.83334   0.87293   0.81427   0.00000  Uiso   1.00
O1404  O     0.83333   0.79374   0.68573   0.00000  Uiso   1.00
loop_
_geom_bond_atom_site_label_1
_geom_bond_atom_site_label_2
_geom_bond_distance
_geom_bond_site_symmetry_2
_ccdc_geom_bond_type
C1     O71     1.315   .     A
C1     O74     1.308   .     A
C1     C19     1.452   .     S
C2     C18     1.395   .     A
C2     H38     1.082   .     S
C2     C82     1.379   .     S
C3     C18     1.401   .     A
C3     H39     1.082   .     S
C3     C112    1.387   .     S
C4     C19     1.397   .     A
C4     H40     1.070   .     S
C4     C158    1.379   1_455 S
C5     H37     1.083   .     S
C5     C16     1.402   .     A
C5     C9      1.388   .     A
C6     H48     1.083   .     S
C6     C17     1.404   .     A
C6     C10     1.390   .     A
C7     C11     1.389   .     A
C7     C17     1.403   .     A
C7     H59     1.083   .     S
C8     C13     1.391   .     A
C8     C16     1.402   .     A
C8     H63     1.083   .     S
C9     H64     1.076   .     S
C9     C14     1.402   .     A
C10    C15     1.401   .     A
C10    H65     1.081   .     S
C11    C15     1.402   .     A
C11    H66     1.081   .     S
C12    O72     1.308   .     A
C12    O73     1.311   .     A
C12    C18     1.445   .     S
C13    H67     1.079   .     S
C13    C14     1.404   .     A
C14    C23     1.469   .     S
C15    C29     1.460   .     S
C16    C719    1.469   1_554 S
C17    C718    1.469   .     S
C19    C34     1.402   .     A
C20    C30     1.529   .     S
C20    H44     1.091   .     S
C20    H45     1.103   .     S
C20    C21     1.532   .     S
C21    H43     1.111   .     S
C21    H41     1.109   .     S
C21    H42     1.107   .     S
C22    H50     1.100   .     S
C22    C31     1.517   .     S
C22    C24     1.529   .     S
C22    H51     1.111   .     S
C23    O75     1.316   .     A
C23    O78     1.316   .     A
C24    H49     1.108   .     S
C24    H47     1.111   .     S
C24    H46     1.100   .     S
C25    H56     1.111   .     S
C25    C32     1.517   .     S
C25    C26     1.528   .     S
C25    H55     1.100   .     S
C26    H54     1.111   .     S
C26    H52     1.108   .     S
C26    H53     1.100   .     S
C27    C33     1.519   .     S
C27    H61     1.098   .     S
C27    H62     1.107   .     S
C27    C28     1.535   .     S
C28    H57     1.102   .     S
C28    H60     1.111   .     S
C28    H58     1.103   .     S
C29    O76     1.315   .     A
C29    O77     1.313   .     A
C30    N70     1.390   .     A
C30    C501    1.434   1_545 S
C31    N69     1.388   .     A
C31    C266    1.423   .     S
C32    N70     1.385   .     A
C32    C499    1.423   1_545 S
C33    N69     1.390   .     A
C33    C264    1.434   .     S
C34    H68     1.083   .     S
C34    C159    1.387   1_455 S
Cu35   Cu36    2.745   .     S
Cu35   O75     1.955   .     S
Cu35   O71     1.961   .     S
Cu35   O77     1.954   .     S
Cu35   O73     1.955   .     S
Cu35   N69     2.063   .     S
Cu36   O76     1.955   .     S
Cu36   N70     2.063   .     S
Cu36   O74     1.955   .     S
Cu36   O78     1.954   .     S
Cu36   O72     1.961   .     S
C79    O149    1.315   .     A
C79    O152    1.308   .     A
C79    C97     1.452   .     S
C80    C96     1.395   .     A
C80    H116    1.082   .     S
C80    C160    1.379   .     S
C81    C96     1.401   .     A
C81    H117    1.082   .     S
C81    C190    1.387   .     S
C82    C97     1.397   .     A
C82    H118    1.070   .     S
C83    H115    1.083   .     S
C83    C94     1.402   .     A
C83    C87     1.388   .     A
C84    H126    1.083   .     S
C84    C95     1.404   .     A
C84    C88     1.390   .     A
C85    C89     1.389   .     A
C85    C95     1.403   .     A
C85    H137    1.083   .     S
C86    C91     1.391   .     A
C86    C94     1.402   .     A
C86    H141    1.083   .     S
C87    H142    1.076   .     S
C87    C92     1.402   .     A
C88    C93     1.401   .     A
C88    H143    1.081   .     S
C89    C93     1.402   .     A
C89    H144    1.081   .     S
C90    O150    1.308   .     A
C90    O151    1.311   .     A
C90    C96     1.445   .     S
C91    H145    1.079   .     S
C91    C92     1.404   .     A
C92    C101    1.469   .     S
C93    C107    1.460   .     S
C94    C797    1.469   1_554 S
C95    C796    1.469   .     S
C97    C112    1.402   .     A
C98    C108    1.529   .     S
C98    H122    1.091   .     S
C98    H123    1.103   .     S
C98    C99     1.532   .     S
C99    H121    1.111   .     S
C99    H119    1.109   .     S
C99    H120    1.107   .     S
C100   H128    1.100   .     S
C100   C109    1.517   .     S
C100   C102    1.529   .     S
C100   H129    1.111   .     S
C101   O153    1.316   .     A
C101   O156    1.316   .     A
C102   H127    1.108   .     S
C102   H125    1.111   .     S
C102   H124    1.100   .     S
C103   H134    1.111   .     S
C103   C110    1.517   .     S
C103   C104    1.528   .     S
C103   H133    1.100   .     S
C104   H132    1.111   .     S
C104   H130    1.108   .     S
C104   H131    1.100   .     S
C105   C111    1.519   .     S
C105   H139    1.098   .     S
C105   H140    1.107   .     S
C105   C106    1.535   .     S
C106   H135    1.102   .     S
C106   H138    1.111   .     S
C106   H136    1.103   .     S
C107   O154    1.315   .     A
C107   O155    1.313   .     A
C108   N148    1.390   .     A
C108   C579    1.434   1_545 S
C109   N147    1.388   .     A
C109   C344    1.423   .     S
C110   N148    1.385   .     A
C110   C577    1.423   1_545 S
C111   N147    1.390   .     A
C111   C342    1.434   .     S
C112   H146    1.083   .     S
Cu113  Cu114   2.745   .     S
Cu113  O153    1.955   .     S
Cu113  O149    1.961   .     S
Cu113  O155    1.954   .     S
Cu113  O151    1.955   .     S
Cu113  N147    2.063   .     S
Cu114  O154    1.955   .     S
Cu114  N148    2.063   .     S
Cu114  O152    1.955   .     S
Cu114  O156    1.954   .     S
Cu114  O150    1.961   .     S
C157   O227    1.315   .     A
C157   O230    1.308   .     A
C157   C175    1.452   .     S
C158   C174    1.395   .     A
C158   H194    1.082   .     S
C158   C4      1.379   1_655 S
C159   C174    1.401   .     A
C159   H195    1.082   .     S
C159   C34     1.387   1_655 S
C160   C175    1.397   .     A
C160   H196    1.070   .     S
C161   H193    1.083   .     S
C161   C172    1.402   .     A
C161   C165    1.388   .     A
C162   H204    1.083   .     S
C162   C173    1.404   .     A
C162   C166    1.390   .     A
C163   C167    1.389   .     A
C163   C173    1.403   .     A
C163   H215    1.083   .     S
C164   C169    1.391   .     A
C164   C172    1.402   .     A
C164   H219    1.083   .     S
C165   H220    1.076   .     S
C165   C170    1.402   .     A
C166   C171    1.401   .     A
C166   H221    1.081   .     S
C167   C171    1.402   .     A
C167   H222    1.081   .     S
C168   O228    1.308   .     A
C168   O229    1.311   .     A
C168   C174    1.445   .     S
C169   H223    1.079   .     S
C169   C170    1.404   .     A
C170   C179    1.469   .     S
C171   C185    1.460   .     S
C172   C875    1.469   1_554 S
C173   C874    1.469   .     S
C175   C190    1.402   .     A
C176   C186    1.529   .     S
C176   H200    1.091   .     S
C176   H201    1.103   .     S
C176   C177    1.532   .     S
C177   H199    1.111   .     S
C177   H197    1.109   .     S
C177   H198    1.107   .     S
C178   H206    1.100   .     S
C178   C187    1.517   .     S
C178   C180    1.529   .     S
C178   H207    1.111   .     S
C179   O231    1.316   .     A
C179   O234    1.316   .     A
C180   H205    1.108   .     S
C180   H203    1.111   .     S
C180   H202    1.100   .     S
C181   H212    1.111   .     S
C181   C188    1.517   .     S
C181   C182    1.528   .     S
C181   H211    1.100   .     S
C182   H210    1.111   .     S
C182   H208    1.108   .     S
C182   H209    1.100   .     S
C183   C189    1.519   .     S
C183   H217    1.098   .     S
C183   H218    1.107   .     S
C183   C184    1.535   .     S
C184   H213    1.102   .     S
C184   H216    1.111   .     S
C184   H214    1.103   .     S
C185   O232    1.315   .     A
C185   O233    1.313   .     A
C186   N226    1.390   .     A
C186   C657    1.434   1_545 S
C187   N225    1.388   .     A
C187   C422    1.423   .     S
C188   N226    1.385   .     A
C188   C655    1.423   1_545 S
C189   N225    1.390   .     A
C189   C420    1.434   .     S
C190   H224    1.083   .     S
Cu191  Cu192   2.745   .     S
Cu191  O231    1.955   .     S
Cu191  O227    1.961   .     S
Cu191  O233    1.954   .     S
Cu191  O229    1.955   .     S
Cu191  N225    2.063   .     S
Cu192  O232    1.955   .     S
Cu192  N226    2.063   .     S
Cu192  O230    1.955   .     S
Cu192  O234    1.954   .     S
Cu192  O228    1.961   .     S
C235   O305    1.315   .     A
C235   O308    1.308   .     A
C235   C253    1.452   .     S
C236   C252    1.395   .     A
C236   H272    1.082   .     S
C236   C316    1.379   .     S
C237   C252    1.401   .     A
C237   H273    1.082   .     S
C237   C346    1.387   .     S
C238   C253    1.397   .     A
C238   H274    1.070   .     S
C238   C392    1.379   1_455 S
C239   H271    1.083   .     S
C239   C250    1.402   .     A
C239   C243    1.388   .     A
C240   H282    1.083   .     S
C240   C251    1.404   .     A
C240   C244    1.390   .     A
C241   C245    1.389   .     A
C241   C251    1.403   .     A
C241   H293    1.083   .     S
C242   C247    1.391   .     A
C242   C250    1.402   .     A
C242   H297    1.083   .     S
C243   H298    1.076   .     S
C243   C248    1.402   .     A
C244   C249    1.401   .     A
C244   H299    1.081   .     S
C245   C249    1.402   .     A
C245   H300    1.081   .     S
C246   O306    1.308   .     A
C246   O307    1.311   .     A
C246   C252    1.445   .     S
C247   H301    1.079   .     S
C247   C248    1.404   .     A
C248   C257    1.469   .     S
C249   C263    1.460   .     S
C250   C953    1.469   1_554 S
C251   C952    1.469   .     S
C253   C268    1.402   .     A
C254   C264    1.529   .     S
C254   H278    1.091   .     S
C254   H279    1.103   .     S
C254   C255    1.532   .     S
C255   H277    1.111   .     S
C255   H275    1.109   .     S
C255   H276    1.107   .     S
C256   H284    1.100   .     S
C256   C265    1.517   .     S
C256   C258    1.529   .     S
C256   H285    1.111   .     S
C257   O309    1.316   .     A
C257   O312    1.316   .     A
C258   H283    1.108   .     S
C258   H281    1.111   .     S
C258   H280    1.100   .     S
C259   H290    1.111   .     S
C259   C266    1.517   .     S
C259   C260    1.528   .     S
C259   H289    1.100   .     S
C260   H288    1.111   .     S
C260   H286    1.108   .     S
C260   H287    1.100   .     S
C261   C267    1.519   .     S
C261   H295    1.098   .     S
C261   H296    1.107   .     S
C261   C262    1.535   .     S
C262   H291    1.102   .     S
C262   H294    1.111   .     S
C262   H292    1.103   .     S
C263   O310    1.315   .     A
C263   O311    1.313   .     A
C264   N304    1.390   .     A
C265   N303    1.388   .     A
C265   C500    1.423   .     S
C266   N304    1.385   .     A
C267   N303    1.390   .     A
C267   C498    1.434   .     S
C268   H302    1.083   .     S
C268   C393    1.387   1_455 S
Cu269  Cu270   2.745   .     S
Cu269  O309    1.955   .     S
Cu269  O305    1.961   .     S
Cu269  O311    1.954   .     S
Cu269  O307    1.955   .     S
Cu269  N303    2.063   .     S
Cu270  O310    1.955   .     S
Cu270  N304    2.063   .     S
Cu270  O308    1.955   .     S
Cu270  O312    1.954   .     S
Cu270  O306    1.961   .     S
C313   O383    1.315   .     A
C313   O386    1.308   .     A
C313   C331    1.452   .     S
C314   C330    1.395   .     A
C314   H350    1.082   .     S
C314   C394    1.379   .     S
C315   C330    1.401   .     A
C315   H351    1.082   .     S
C315   C424    1.387   .     S
C316   C331    1.397   .     A
C316   H352    1.070   .     S
C317   H349    1.083   .     S
C317   C328    1.402   .     A
C317   C321    1.388   .     A
C318   H360    1.083   .     S
C318   C329    1.404   .     A
C318   C322    1.390   .     A
C319   C323    1.389   .     A
C319   C329    1.403   .     A
C319   H371    1.083   .     S
C320   C325    1.391   .     A
C320   C328    1.402   .     A
C320   H375    1.083   .     S
C321   H376    1.076   .     S
C321   C326    1.402   .     A
C322   C327    1.401   .     A
C322   H377    1.081   .     S
C323   C327    1.402   .     A
C323   H378    1.081   .     S
C324   O384    1.308   .     A
C324   O385    1.311   .     A
C324   C330    1.445   .     S
C325   H379    1.079   .     S
C325   C326    1.404   .     A
C326   C335    1.469   .     S
C327   C341    1.460   .     S
C328   C1031   1.469   1_554 S
C329   C1030   1.469   .     S
C331   C346    1.402   .     A
C332   C342    1.529   .     S
C332   H356    1.091   .     S
C332   H357    1.103   .     S
C332   C333    1.532   .     S
C333   H355    1.111   .     S
C333   H353    1.109   .     S
C333   H354    1.107   .     S
C334   H362    1.100   .     S
C334   C343    1.517   .     S
C334   C336    1.529   .     S
C334   H363    1.111   .     S
C335   O387    1.316   .     A
C335   O390    1.316   .     A
C336   H361    1.108   .     S
C336   H359    1.111   .     S
C336   H358    1.100   .     S
C337   H368    1.111   .     S
C337   C344    1.517   .     S
C337   C338    1.528   .     S
C337   H367    1.100   .     S
C338   H366    1.111   .     S
C338   H364    1.108   .     S
C338   H365    1.100   .     S
C339   C345    1.519   .     S
C339   H373    1.098   .     S
C339   H374    1.107   .     S
C339   C340    1.535   .     S
C340   H369    1.102   .     S
C340   H372    1.111   .     S
C340   H370    1.103   .     S
C341   O388    1.315   .     A
C341   O389    1.313   .     A
C342   N382    1.390   .     A
C343   N381    1.388   .     A
C343   C578    1.423   .     S
C344   N382    1.385   .     A
C345   N381    1.390   .     A
C345   C576    1.434   .     S
C346   H380    1.083   .     S
Cu347  Cu348   2.745   .     S
Cu347  O387    1.955   .     S
Cu347  O383    1.961   .     S
Cu347  O389    1.954   .     S
Cu347  O385    1.955   .     S
Cu347  N381    2.063   .     S
Cu348  O388    1.955   .     S
Cu348  N382    2.063   .     S
Cu348  O386    1.955   .     S
Cu348  O390    1.954   .     S
Cu348  O384    1.961   .     S
C391   O461    1.315   .     A
C391   O464    1.308   .     A
C391   C409    1.452   .     S
C392   C408    1.395   .     A
C392   H428    1.082   .     S
C392   C238    1.379   1_655 S
C393   C408    1.401   .     A
C393   H429    1.082   .     S
C393   C268    1.387   1_655 S
C394   C409    1.397   .     A
C394   H430    1.070   .     S
C395   H427    1.083   .     S
C395   C406    1.402   .     A
C395   C399    1.388   .     A
C396   H438    1.083   .     S
C396   C407    1.404   .     A
C396   C400    1.390   .     A
C397   C401    1.389   .     A
C397   C407    1.403   .     A
C397   H449    1.083   .     S
C398   C403    1.391   .     A
C398   C406    1.402   .     A
C398   H453    1.083   .     S
C399   H454    1.076   .     S
C399   C404    1.402   .     A
C400   C405    1.401   .     A
C400   H455    1.081   .     S
C401   C405    1.402   .     A
C401   H456    1.081   .     S
C402   O462    1.308   .     A
C402   O463    1.311   .     A
C402   C408    1.445   .     S
C403   H457    1.079   .     S
C403   C404    1.404   .     A
C404   C413    1.469   .     S
C405   C419    1.460   .     S
C406   C1109   1.469   1_554 S
C407   C1108   1.469   .     S
C409   C424    1.402   .     A
C410   C420    1.529   .     S
C410   H434    1.091   .     S
C410   H435    1.103   .     S
C410   C411    1.532   .     S
C411   H433    1.111   .     S
C411   H431    1.109   .     S
C411   H432    1.107   .     S
C412   H440    1.100   .     S
C412   C421    1.517   .     S
C412   C414    1.529   .     S
C412   H441    1.111   .     S
C413   O465    1.316   .     A
C413   O468    1.316   .     A
C414   H439    1.108   .     S
C414   H437    1.111   .     S
C414   H436    1.100   .     S
C415   H446    1.111   .     S
C415   C422    1.517   .     S
C415   C416    1.528   .     S
C415   H445    1.100   .     S
C416   H444    1.111   .     S
C416   H442    1.108   .     S
C416   H443    1.100   .     S
C417   C423    1.519   .     S
C417   H451    1.098   .     S
C417   H452    1.107   .     S
C417   C418    1.535   .     S
C418   H447    1.102   .     S
C418   H450    1.111   .     S
C418   H448    1.103   .     S
C419   O466    1.315   .     A
C419   O467    1.313   .     A
C420   N460    1.390   .     A
C421   N459    1.388   .     A
C421   C656    1.423   .     S
C422   N460    1.385   .     A
C423   N459    1.390   .     A
C423   C654    1.434   .     S
C424   H458    1.083   .     S
Cu425  Cu426   2.745   .     S
Cu425  O465    1.955   .     S
Cu425  O461    1.961   .     S
Cu425  O467    1.954   .     S
Cu425  O463    1.955   .     S
Cu425  N459    2.063   .     S
Cu426  O466    1.955   .     S
Cu426  N460    2.063   .     S
Cu426  O464    1.955   .     S
Cu426  O468    1.954   .     S
Cu426  O462    1.961   .     S
C469   O539    1.315   .     A
C469   O542    1.308   .     A
C469   C487    1.452   .     S
C470   C486    1.395   .     A
C470   H506    1.082   .     S
C470   C550    1.379   .     S
C471   C486    1.401   .     A
C471   H507    1.082   .     S
C471   C580    1.387   .     S
C472   C487    1.397   .     A
C472   H508    1.070   .     S
C472   C626    1.379   1_455 S
C473   H505    1.083   .     S
C473   C484    1.402   .     A
C473   C477    1.388   .     A
C474   H516    1.083   .     S
C474   C485    1.404   .     A
C474   C478    1.390   .     A
C475   C479    1.389   .     A
C475   C485    1.403   .     A
C475   H527    1.083   .     S
C476   C481    1.391   .     A
C476   C484    1.402   .     A
C476   H531    1.083   .     S
C477   H532    1.076   .     S
C477   C482    1.402   .     A
C478   C483    1.401   .     A
C478   H533    1.081   .     S
C479   C483    1.402   .     A
C479   H534    1.081   .     S
C480   O540    1.308   .     A
C480   O541    1.311   .     A
C480   C486    1.445   .     S
C481   H535    1.079   .     S
C481   C482    1.404   .     A
C482   C491    1.469   .     S
C483   C497    1.460   .     S
C484   C1187   1.469   1_554 S
C485   C1186   1.469   .     S
C487   C502    1.402   .     A
C488   C498    1.529   .     S
C488   H512    1.091   .     S
C488   H513    1.103   .     S
C488   C489    1.532   .     S
C489   H511    1.111   .     S
C489   H509    1.109   .     S
C489   H510    1.107   .     S
C490   H518    1.100   .     S
C490   C499    1.517   .     S
C490   C492    1.529   .     S
C490   H519    1.111   .     S
C491   O543    1.316   .     A
C491   O546    1.316   .     A
C492   H517    1.108   .     S
C492   H515    1.111   .     S
C492   H514    1.100   .     S
C493   H524    1.111   .     S
C493   C500    1.517   .     S
C493   C494    1.528   .     S
C493   H523    1.100   .     S
C494   H522    1.111   .     S
C494   H520    1.108   .     S
C494   H521    1.100   .     S
C495   C501    1.519   .     S
C495   H529    1.098   .     S
C495   H530    1.107   .     S
C495   C496    1.535   .     S
C496   H525    1.102   .     S
C496   H528    1.111   .     S
C496   H526    1.103   .     S
C497   O544    1.315   .     A
C497   O545    1.313   .     A
C498   N538    1.390   .     A
C499   N537    1.388   .     A
C499   C32     1.423   1_565 S
C500   N538    1.385   .     A
C501   N537    1.390   .     A
C501   C30     1.434   1_565 S
C502   H536    1.083   .     S
C502   C627    1.387   1_455 S
Cu503  Cu504   2.745   .     S
Cu503  O543    1.955   .     S
Cu503  O539    1.961   .     S
Cu503  O545    1.954   .     S
Cu503  O541    1.955   .     S
Cu503  N537    2.063   .     S
Cu504  O544    1.955   .     S
Cu504  N538    2.063   .     S
Cu504  O542    1.955   .     S
Cu504  O546    1.954   .     S
Cu504  O540    1.961   .     S
C547   O617    1.315   .     A
C547   O620    1.308   .     A
C547   C565    1.452   .     S
C548   C564    1.395   .     A
C548   H584    1.082   .     S
C548   C628    1.379   .     S
C549   C564    1.401   .     A
C549   H585    1.082   .     S
C549   C658    1.387   .     S
C550   C565    1.397   .     A
C550   H586    1.070   .     S
C551   H583    1.083   .     S
C551   C562    1.402   .     A
C551   C555    1.388   .     A
C552   H594    1.083   .     S
C552   C563    1.404   .     A
C552   C556    1.390   .     A
C553   C557    1.389   .     A
C553   C563    1.403   .     A
C553   H605    1.083   .     S
C554   C559    1.391   .     A
C554   C562    1.402   .     A
C554   H609    1.083   .     S
C555   H610    1.076   .     S
C555   C560    1.402   .     A
C556   C561    1.401   .     A
C556   H611    1.081   .     S
C557   C561    1.402   .     A
C557   H612    1.081   .     S
C558   O618    1.308   .     A
C558   O619    1.311   .     A
C558   C564    1.445   .     S
C559   H613    1.079   .     S
C559   C560    1.404   .     A
C560   C569    1.469   .     S
C561   C575    1.460   .     S
C562   C1265   1.469   1_554 S
C563   C1264   1.469   .     S
C565   C580    1.402   .     A
C566   C576    1.529   .     S
C566   H590    1.091   .     S
C566   H591    1.103   .     S
C566   C567    1.532   .     S
C567   H589    1.111   .     S
C567   H587    1.109   .     S
C567   H588    1.107   .     S
C568   H596    1.100   .     S
C568   C577    1.517   .     S
C568   C570    1.529   .     S
C568   H597    1.111   .     S
C569   O621    1.316   .     A
C569   O624    1.316   .     A
C570   H595    1.108   .     S
C570   H593    1.111   .     S
C570   H592    1.100   .     S
C571   H602    1.111   .     S
C571   C578    1.517   .     S
C571   C572    1.528   .     S
C571   H601    1.100   .     S
C572   H600    1.111   .     S
C572   H598    1.108   .     S
C572   H599    1.100   .     S
C573   C579    1.519   .     S
C573   H607    1.098   .     S
C573   H608    1.107   .     S
C573   C574    1.535   .     S
C574   H603    1.102   .     S
C574   H606    1.111   .     S
C574   H604    1.103   .     S
C575   O622    1.315   .     A
C575   O623    1.313   .     A
C576   N616    1.390   .     A
C577   N615    1.388   .     A
C577   C110    1.423   1_565 S
C578   N616    1.385   .     A
C579   N615    1.390   .     A
C579   C108    1.434   1_565 S
C580   H614    1.083   .     S
Cu581  Cu582   2.745   .     S
Cu581  O621    1.955   .     S
Cu581  O617    1.961   .     S
Cu581  O623    1.954   .     S
Cu581  O619    1.955   .     S
Cu581  N615    2.063   .     S
Cu582  O622    1.955   .     S
Cu582  N616    2.063   .     S
Cu582  O620    1.955   .     S
Cu582  O624    1.954   .     S
Cu582  O618    1.961   .     S
C625   O695    1.315   .     A
C625   O698    1.308   .     A
C625   C643    1.452   .     S
C626   C642    1.395   .     A
C626   H662    1.082   .     S
C626   C472    1.379   1_655 S
C627   C642    1.401   .     A
C627   H663    1.082   .     S
C627   C502    1.387   1_655 S
C628   C643    1.397   .     A
C628   H664    1.070   .     S
C629   H661    1.083   .     S
C629   C640    1.402   .     A
C629   C633    1.388   .     A
C630   H672    1.083   .     S
C630   C641    1.404   .     A
C630   C634    1.390   .     A
C631   C635    1.389   .     A
C631   C641    1.403   .     A
C631   H683    1.083   .     S
C632   C637    1.391   .     A
C632   C640    1.402   .     A
C632   H687    1.083   .     S
C633   H688    1.076   .     S
C633   C638    1.402   .     A
C634   C639    1.401   .     A
C634   H689    1.081   .     S
C635   C639    1.402   .     A
C635   H690    1.081   .     S
C636   O696    1.308   .     A
C636   O697    1.311   .     A
C636   C642    1.445   .     S
C637   H691    1.079   .     S
C637   C638    1.404   .     A
C638   C647    1.469   .     S
C639   C653    1.460   .     S
C640   C1343   1.469   1_554 S
C641   C1342   1.469   .     S
C643   C658    1.402   .     A
C644   C654    1.529   .     S
C644   H668    1.091   .     S
C644   H669    1.103   .     S
C644   C645    1.532   .     S
C645   H667    1.111   .     S
C645   H665    1.109   .     S
C645   H666    1.107   .     S
C646   H674    1.100   .     S
C646   C655    1.517   .     S
C646   C648    1.529   .     S
C646   H675    1.111   .     S
C647   O699    1.316   .     A
C647   O702    1.316   .     A
C648   H673    1.108   .     S
C648   H671    1.111   .     S
C648   H670    1.100   .     S
C649   H680    1.111   .     S
C649   C656    1.517   .     S
C649   C650    1.528   .     S
C649   H679    1.100   .     S
C650   H678    1.111   .     S
C650   H676    1.108   .     S
C650   H677    1.100   .     S
C651   C657    1.519   .     S
C651   H685    1.098   .     S
C651   H686    1.107   .     S
C651   C652    1.535   .     S
C652   H681    1.102   .     S
C652   H684    1.111   .     S
C652   H682    1.103   .     S
C653   O700    1.315   .     A
C653   O701    1.313   .     A
C654   N694    1.390   .     A
C655   N693    1.388   .     A
C655   C188    1.423   1_565 S
C656   N694    1.385   .     A
C657   N693    1.390   .     A
C657   C186    1.434   1_565 S
C658   H692    1.083   .     S
Cu659  Cu660   2.745   .     S
Cu659  O699    1.955   .     S
Cu659  O695    1.961   .     S
Cu659  O701    1.954   .     S
Cu659  O697    1.955   .     S
Cu659  N693    2.063   .     S
Cu660  O700    1.955   .     S
Cu660  N694    2.063   .     S
Cu660  O698    1.955   .     S
Cu660  O702    1.954   .     S
Cu660  O696    1.961   .     S
C703   O773    1.315   .     A
C703   O776    1.308   .     A
C703   C721    1.452   .     S
C704   C720    1.395   .     A
C704   H740    1.082   .     S
C704   C784    1.379   .     S
C705   C720    1.401   .     A
C705   H741    1.082   .     S
C705   C814    1.387   .     S
C706   C721    1.397   .     A
C706   H742    1.070   .     S
C706   C860    1.379   1_455 S
C707   H739    1.083   .     S
C707   C718    1.402   .     A
C707   C711    1.388   .     A
C708   H750    1.083   .     S
C708   C719    1.404   .     A
C708   C712    1.390   .     A
C709   C713    1.389   .     A
C709   C719    1.403   .     A
C709   H761    1.083   .     S
C710   C715    1.391   .     A
C710   C718    1.402   .     A
C710   H765    1.083   .     S
C711   H766    1.076   .     S
C711   C716    1.402   .     A
C712   C717    1.401   .     A
C712   H767    1.081   .     S
C713   C717    1.402   .     A
C713   H768    1.081   .     S
C714   O774    1.308   .     A
C714   O775    1.311   .     A
C714   C720    1.445   .     S
C715   H769    1.079   .     S
C715   C716    1.404   .     A
C716   C725    1.469   .     S
C717   C731    1.460   .     S
C719   C16     1.469   1_556 S
C721   C736    1.402   .     A
C722   C732    1.529   .     S
C722   H746    1.091   .     S
C722   H747    1.103   .     S
C722   C723    1.532   .     S
C723   H745    1.111   .     S
C723   H743    1.109   .     S
C723   H744    1.107   .     S
C724   H752    1.100   .     S
C724   C733    1.517   .     S
C724   C726    1.529   .     S
C724   H753    1.111   .     S
C725   O777    1.316   .     A
C725   O780    1.316   .     A
C726   H751    1.108   .     S
C726   H749    1.111   .     S
C726   H748    1.100   .     S
C727   H758    1.111   .     S
C727   C734    1.517   .     S
C727   C728    1.528   .     S
C727   H757    1.100   .     S
C728   H756    1.111   .     S
C728   H754    1.108   .     S
C728   H755    1.100   .     S
C729   C735    1.519   .     S
C729   H763    1.098   .     S
C729   H764    1.107   .     S
C729   C730    1.535   .     S
C730   H759    1.102   .     S
C730   H762    1.111   .     S
C730   H760    1.103   .     S
C731   O778    1.315   .     A
C731   O779    1.313   .     A
C732   N772    1.390   .     A
C732   C1203   1.434   1_545 S
C733   N771    1.388   .     A
C733   C968    1.423   .     S
C734   N772    1.385   .     A
C734   C1201   1.423   1_545 S
C735   N771    1.390   .     A
C735   C966    1.434   .     S
C736   H770    1.083   .     S
C736   C861    1.387   1_455 S
Cu737  Cu738   2.745   .     S
Cu737  O777    1.955   .     S
Cu737  O773    1.961   .     S
Cu737  O779    1.954   .     S
Cu737  O775    1.955   .     S
Cu737  N771    2.063   .     S
Cu738  O778    1.955   .     S
Cu738  N772    2.063   .     S
Cu738  O776    1.955   .     S
Cu738  O780    1.954   .     S
Cu738  O774    1.961   .     S
C781   O851    1.315   .     A
C781   O854    1.308   .     A
C781   C799    1.452   .     S
C782   C798    1.395   .     A
C782   H818    1.082   .     S
C782   C862    1.379   .     S
C783   C798    1.401   .     A
C783   H819    1.082   .     S
C783   C892    1.387   .     S
C784   C799    1.397   .     A
C784   H820    1.070   .     S
C785   H817    1.083   .     S
C785   C796    1.402   .     A
C785   C789    1.388   .     A
C786   H828    1.083   .     S
C786   C797    1.404   .     A
C786   C790    1.390   .     A
C787   C791    1.389   .     A
C787   C797    1.403   .     A
C787   H839    1.083   .     S
C788   C793    1.391   .     A
C788   C796    1.402   .     A
C788   H843    1.083   .     S
C789   H844    1.076   .     S
C789   C794    1.402   .     A
C790   C795    1.401   .     A
C790   H845    1.081   .     S
C791   C795    1.402   .     A
C791   H846    1.081   .     S
C792   O852    1.308   .     A
C792   O853    1.311   .     A
C792   C798    1.445   .     S
C793   H847    1.079   .     S
C793   C794    1.404   .     A
C794   C803    1.469   .     S
C795   C809    1.460   .     S
C797   C94     1.469   1_556 S
C799   C814    1.402   .     A
C800   C810    1.529   .     S
C800   H824    1.091   .     S
C800   H825    1.103   .     S
C800   C801    1.532   .     S
C801   H823    1.111   .     S
C801   H821    1.109   .     S
C801   H822    1.107   .     S
C802   H830    1.100   .     S
C802   C811    1.517   .     S
C802   C804    1.529   .     S
C802   H831    1.111   .     S
C803   O855    1.316   .     A
C803   O858    1.316   .     A
C804   H829    1.108   .     S
C804   H827    1.111   .     S
C804   H826    1.100   .     S
C805   H836    1.111   .     S
C805   C812    1.517   .     S
C805   C806    1.528   .     S
C805   H835    1.100   .     S
C806   H834    1.111   .     S
C806   H832    1.108   .     S
C806   H833    1.100   .     S
C807   C813    1.519   .     S
C807   H841    1.098   .     S
C807   H842    1.107   .     S
C807   C808    1.535   .     S
C808   H837    1.102   .     S
C808   H840    1.111   .     S
C808   H838    1.103   .     S
C809   O856    1.315   .     A
C809   O857    1.313   .     A
C810   N850    1.390   .     A
C810   C1281   1.434   1_545 S
C811   N849    1.388   .     A
C811   C1046   1.423   .     S
C812   N850    1.385   .     A
C812   C1279   1.423   1_545 S
C813   N849    1.390   .     A
C813   C1044   1.434   .     S
C814   H848    1.083   .     S
Cu815  Cu816   2.745   .     S
Cu815  O855    1.955   .     S
Cu815  O851    1.961   .     S
Cu815  O857    1.954   .     S
Cu815  O853    1.955   .     S
Cu815  N849    2.063   .     S
Cu816  O856    1.955   .     S
Cu816  N850    2.063   .     S
Cu816  O854    1.955   .     S
Cu816  O858    1.954   .     S
Cu816  O852    1.961   .     S
C859   O929    1.315   .     A
C859   O932    1.308   .     A
C859   C877    1.452   .     S
C860   C876    1.395   .     A
C860   H896    1.082   .     S
C860   C706    1.379   1_655 S
C861   C876    1.401   .     A
C861   H897    1.082   .     S
C861   C736    1.387   1_655 S
C862   C877    1.397   .     A
C862   H898    1.070   .     S
C863   H895    1.083   .     S
C863   C874    1.402   .     A
C863   C867    1.388   .     A
C864   H906    1.083   .     S
C864   C875    1.404   .     A
C864   C868    1.390   .     A
C865   C869    1.389   .     A
C865   C875    1.403   .     A
C865   H917    1.083   .     S
C866   C871    1.391   .     A
C866   C874    1.402   .     A
C866   H921    1.083   .     S
C867   H922    1.076   .     S
C867   C872    1.402   .     A
C868   C873    1.401   .     A
C868   H923    1.081   .     S
C869   C873    1.402   .     A
C869   H924    1.081   .     S
C870   O930    1.308   .     A
C870   O931    1.311   .     A
C870   C876    1.445   .     S
C871   H925    1.079   .     S
C871   C872    1.404   .     A
C872   C881    1.469   .     S
C873   C887    1.460   .     S
C875   C172    1.469   1_556 S
C877   C892    1.402   .     A
C878   C888    1.529   .     S
C878   H902    1.091   .     S
C878   H903    1.103   .     S
C878   C879    1.532   .     S
C879   H901    1.111   .     S
C879   H899    1.109   .     S
C879   H900    1.107   .     S
C880   H908    1.100   .     S
C880   C889    1.517   .     S
C880   C882    1.529   .     S
C880   H909    1.111   .     S
C881   O933    1.316   .     A
C881   O936    1.316   .     A
C882   H907    1.108   .     S
C882   H905    1.111   .     S
C882   H904    1.100   .     S
C883   H914    1.111   .     S
C883   C890    1.517   .     S
C883   C884    1.528   .     S
C883   H913    1.100   .     S
C884   H912    1.111   .     S
C884   H910    1.108   .     S
C884   H911    1.100   .     S
C885   C891    1.519   .     S
C885   H919    1.098   .     S
C885   H920    1.107   .     S
C885   C886    1.535   .     S
C886   H915    1.102   .     S
C886   H918    1.111   .     S
C886   H916    1.103   .     S
C887   O934    1.315   .     A
C887   O935    1.313   .     A
C888   N928    1.390   .     A
C888   C1359   1.434   1_545 S
C889   N927    1.388   .     A
C889   C1124   1.423   .     S
C890   N928    1.385   .     A
C890   C1357   1.423   1_545 S
C891   N927    1.390   .     A
C891   C1122   1.434   .     S
C892   H926    1.083   .     S
Cu893  Cu894   2.745   .     S
Cu893  O933    1.955   .     S
Cu893  O929    1.961   .     S
Cu893  O935    1.954   .     S
Cu893  O931    1.955   .     S
Cu893  N927    2.063   .     S
Cu894  O934    1.955   .     S
Cu894  N928    2.063   .     S
Cu894  O932    1.955   .     S
Cu894  O936    1.954   .     S
Cu894  O930    1.961   .     S
C937   O1007   1.315   .     A
C937   O1010   1.308   .     A
C937   C955    1.452   .     S
C938   C954    1.395   .     A
C938   H974    1.082   .     S
C938   C1018   1.379   .     S
C939   C954    1.401   .     A
C939   H975    1.082   .     S
C939   C1048   1.387   .     S
C940   C955    1.397   .     A
C940   H976    1.070   .     S
C940   C1094   1.379   1_455 S
C941   H973    1.083   .     S
C941   C952    1.402   .     A
C941   C945    1.388   .     A
C942   H984    1.083   .     S
C942   C953    1.404   .     A
C942   C946    1.390   .     A
C943   C947    1.389   .     A
C943   C953    1.403   .     A
C943   H995    1.083   .     S
C944   C949    1.391   .     A
C944   C952    1.402   .     A
C944   H999    1.083   .     S
C945   H1000   1.076   .     S
C945   C950    1.402   .     A
C946   C951    1.401   .     A
C946   H1001   1.081   .     S
C947   C951    1.402   .     A
C947   H1002   1.081   .     S
C948   O1008   1.308   .     A
C948   O1009   1.311   .     A
C948   C954    1.445   .     S
C949   H1003   1.079   .     S
C949   C950    1.404   .     A
C950   C959    1.469   .     S
C951   C965    1.460   .     S
C953   C250    1.469   1_556 S
C955   C970    1.402   .     A
C956   C966    1.529   .     S
C956   H980    1.091   .     S
C956   H981    1.103   .     S
C956   C957    1.532   .     S
C957   H979    1.111   .     S
C957   H977    1.109   .     S
C957   H978    1.107   .     S
C958   H986    1.100   .     S
C958   C967    1.517   .     S
C958   C960    1.529   .     S
C958   H987    1.111   .     S
C959   O1011   1.316   .     A
C959   O1014   1.316   .     A
C960   H985    1.108   .     S
C960   H983    1.111   .     S
C960   H982    1.100   .     S
C961   H992    1.111   .     S
C961   C968    1.517   .     S
C961   C962    1.528   .     S
C961   H991    1.100   .     S
C962   H990    1.111   .     S
C962   H988    1.108   .     S
C962   H989    1.100   .     S
C963   C969    1.519   .     S
C963   H997    1.098   .     S
C963   H998    1.107   .     S
C963   C964    1.535   .     S
C964   H993    1.102   .     S
C964   H996    1.111   .     S
C964   H994    1.103   .     S
C965   O1012   1.315   .     A
C965   O1013   1.313   .     A
C966   N1006   1.390   .     A
C967   N1005   1.388   .     A
C967   C1202   1.423   .     S
C968   N1006   1.385   .     A
C969   N1005   1.390   .     A
C969   C1200   1.434   .     S
C970   H1004   1.083   .     S
C970   C1095   1.387   1_455 S
Cu971  Cu972   2.745   .     S
Cu971  O1011   1.955   .     S
Cu971  O1007   1.961   .     S
Cu971  O1013   1.954   .     S
Cu971  O1009   1.955   .     S
Cu971  N1005   2.063   .     S
Cu972  O1012   1.955   .     S
Cu972  N1006   2.063   .     S
Cu972  O1010   1.955   .     S
Cu972  O1014   1.954   .     S
Cu972  O1008   1.961   .     S
C1015  O1085   1.315   .     A
C1015  O1088   1.308   .     A
C1015  C1033   1.452   .     S
C1016  C1032   1.395   .     A
C1016  H1052   1.082   .     S
C1016  C1096   1.379   .     S
C1017  C1032   1.401   .     A
C1017  H1053   1.082   .     S
C1017  C1126   1.387   .     S
C1018  C1033   1.397   .     A
C1018  H1054   1.070   .     S
C1019  H1051   1.083   .     S
C1019  C1030   1.402   .     A
C1019  C1023   1.388   .     A
C1020  H1062   1.083   .     S
C1020  C1031   1.404   .     A
C1020  C1024   1.390   .     A
C1021  C1025   1.389   .     A
C1021  C1031   1.403   .     A
C1021  H1073   1.083   .     S
C1022  C1027   1.391   .     A
C1022  C1030   1.402   .     A
C1022  H1077   1.083   .     S
C1023  H1078   1.076   .     S
C1023  C1028   1.402   .     A
C1024  C1029   1.401   .     A
C1024  H1079   1.081   .     S
C1025  C1029   1.402   .     A
C1025  H1080   1.081   .     S
C1026  O1086   1.308   .     A
C1026  O1087   1.311   .     A
C1026  C1032   1.445   .     S
C1027  H1081   1.079   .     S
C1027  C1028   1.404   .     A
C1028  C1037   1.469   .     S
C1029  C1043   1.460   .     S
C1031  C328    1.469   1_556 S
C1033  C1048   1.402   .     A
C1034  C1044   1.529   .     S
C1034  H1058   1.091   .     S
C1034  H1059   1.103   .     S
C1034  C1035   1.532   .     S
C1035  H1057   1.111   .     S
C1035  H1055   1.109   .     S
C1035  H1056   1.107   .     S
C1036  H1064   1.100   .     S
C1036  C1045   1.517   .     S
C1036  C1038   1.529   .     S
C1036  H1065   1.111   .     S
C1037  O1089   1.316   .     A
C1037  O1092   1.316   .     A
C1038  H1063   1.108   .     S
C1038  H1061   1.111   .     S
C1038  H1060   1.100   .     S
C1039  H1070   1.111   .     S
C1039  C1046   1.517   .     S
C1039  C1040   1.528   .     S
C1039  H1069   1.100   .     S
C1040  H1068   1.111   .     S
C1040  H1066   1.108   .     S
C1040  H1067   1.100   .     S
C1041  C1047   1.519   .     S
C1041  H1075   1.098   .     S
C1041  H1076   1.107   .     S
C1041  C1042   1.535   .     S
C1042  H1071   1.102   .     S
C1042  H1074   1.111   .     S
C1042  H1072   1.103   .     S
C1043  O1090   1.315   .     A
C1043  O1091   1.313   .     A
C1044  N1084   1.390   .     A
C1045  N1083   1.388   .     A
C1045  C1280   1.423   .     S
C1046  N1084   1.385   .     A
C1047  N1083   1.390   .     A
C1047  C1278   1.434   .     S
C1048  H1082   1.083   .     S
Cu1049 Cu1050  2.745   .     S
Cu1049 O1089   1.955   .     S
Cu1049 O1085   1.961   .     S
Cu1049 O1091   1.954   .     S
Cu1049 O1087   1.955   .     S
Cu1049 N1083   2.063   .     S
Cu1050 O1090   1.955   .     S
Cu1050 N1084   2.063   .     S
Cu1050 O1088   1.955   .     S
Cu1050 O1092   1.954   .     S
Cu1050 O1086   1.961   .     S
C1093  O1163   1.315   .     A
C1093  O1166   1.308   .     A
C1093  C1111   1.452   .     S
C1094  C1110   1.395   .     A
C1094  H1130   1.082   .     S
C1094  C940    1.379   1_655 S
C1095  C1110   1.401   .     A
C1095  H1131   1.082   .     S
C1095  C970    1.387   1_655 S
C1096  C1111   1.397   .     A
C1096  H1132   1.070   .     S
C1097  H1129   1.083   .     S
C1097  C1108   1.402   .     A
C1097  C1101   1.388   .     A
C1098  H1140   1.083   .     S
C1098  C1109   1.404   .     A
C1098  C1102   1.390   .     A
C1099  C1103   1.389   .     A
C1099  C1109   1.403   .     A
C1099  H1151   1.083   .     S
C1100  C1105   1.391   .     A
C1100  C1108   1.402   .     A
C1100  H1155   1.083   .     S
C1101  H1156   1.076   .     S
C1101  C1106   1.402   .     A
C1102  C1107   1.401   .     A
C1102  H1157   1.081   .     S
C1103  C1107   1.402   .     A
C1103  H1158   1.081   .     S
C1104  O1164   1.308   .     A
C1104  O1165   1.311   .     A
C1104  C1110   1.445   .     S
C1105  H1159   1.079   .     S
C1105  C1106   1.404   .     A
C1106  C1115   1.469   .     S
C1107  C1121   1.460   .     S
C1109  C406    1.469   1_556 S
C1111  C1126   1.402   .     A
C1112  C1122   1.529   .     S
C1112  H1136   1.091   .     S
C1112  H1137   1.103   .     S
C1112  C1113   1.532   .     S
C1113  H1135   1.111   .     S
C1113  H1133   1.109   .     S
C1113  H1134   1.107   .     S
C1114  H1142   1.100   .     S
C1114  C1123   1.517   .     S
C1114  C1116   1.529   .     S
C1114  H1143   1.111   .     S
C1115  O1167   1.316   .     A
C1115  O1170   1.316   .     A
C1116  H1141   1.108   .     S
C1116  H1139   1.111   .     S
C1116  H1138   1.100   .     S
C1117  H1148   1.111   .     S
C1117  C1124   1.517   .     S
C1117  C1118   1.528   .     S
C1117  H1147   1.100   .     S
C1118  H1146   1.111   .     S
C1118  H1144   1.108   .     S
C1118  H1145   1.100   .     S
C1119  C1125   1.519   .     S
C1119  H1153   1.098   .     S
C1119  H1154   1.107   .     S
C1119  C1120   1.535   .     S
C1120  H1149   1.102   .     S
C1120  H1152   1.111   .     S
C1120  H1150   1.103   .     S
C1121  O1168   1.315   .     A
C1121  O1169   1.313   .     A
C1122  N1162   1.390   .     A
C1123  N1161   1.388   .     A
C1123  C1358   1.423   .     S
C1124  N1162   1.385   .     A
C1125  N1161   1.390   .     A
C1125  C1356   1.434   .     S
C1126  H1160   1.083   .     S
Cu1127 Cu1128  2.745   .     S
Cu1127 O1167   1.955   .     S
Cu1127 O1163   1.961   .     S
Cu1127 O1169   1.954   .     S
Cu1127 O1165   1.955   .     S
Cu1127 N1161   2.063   .     S
Cu1128 O1168   1.955   .     S
Cu1128 N1162   2.063   .     S
Cu1128 O1166   1.955   .     S
Cu1128 O1170   1.954   .     S
Cu1128 O1164   1.961   .     S
C1171  O1241   1.315   .     A
C1171  O1244   1.308   .     A
C1171  C1189   1.452   .     S
C1172  C1188   1.395   .     A
C1172  H1208   1.082   .     S
C1172  C1252   1.379   .     S
C1173  C1188   1.401   .     A
C1173  H1209   1.082   .     S
C1173  C1282   1.387   .     S
C1174  C1189   1.397   .     A
C1174  H1210   1.070   .     S
C1174  C1328   1.379   1_455 S
C1175  H1207   1.083   .     S
C1175  C1186   1.402   .     A
C1175  C1179   1.388   .     A
C1176  H1218   1.083   .     S
C1176  C1187   1.404   .     A
C1176  C1180   1.390   .     A
C1177  C1181   1.389   .     A
C1177  C1187   1.403   .     A
C1177  H1229   1.083   .     S
C1178  C1183   1.391   .     A
C1178  C1186   1.402   .     A
C1178  H1233   1.083   .     S
C1179  H1234   1.076   .     S
C1179  C1184   1.402   .     A
C1180  C1185   1.401   .     A
C1180  H1235   1.081   .     S
C1181  C1185   1.402   .     A
C1181  H1236   1.081   .     S
C1182  O1242   1.308   .     A
C1182  O1243   1.311   .     A
C1182  C1188   1.445   .     S
C1183  H1237   1.079   .     S
C1183  C1184   1.404   .     A
C1184  C1193   1.469   .     S
C1185  C1199   1.460   .     S
C1187  C484    1.469   1_556 S
C1189  C1204   1.402   .     A
C1190  C1200   1.529   .     S
C1190  H1214   1.091   .     S
C1190  H1215   1.103   .     S
C1190  C1191   1.532   .     S
C1191  H1213   1.111   .     S
C1191  H1211   1.109   .     S
C1191  H1212   1.107   .     S
C1192  H1220   1.100   .     S
C1192  C1201   1.517   .     S
C1192  C1194   1.529   .     S
C1192  H1221   1.111   .     S
C1193  O1245   1.316   .     A
C1193  O1248   1.316   .     A
C1194  H1219   1.108   .     S
C1194  H1217   1.111   .     S
C1194  H1216   1.100   .     S
C1195  H1226   1.111   .     S
C1195  C1202   1.517   .     S
C1195  C1196   1.528   .     S
C1195  H1225   1.100   .     S
C1196  H1224   1.111   .     S
C1196  H1222   1.108   .     S
C1196  H1223   1.100   .     S
C1197  C1203   1.519   .     S
C1197  H1231   1.098   .     S
C1197  H1232   1.107   .     S
C1197  C1198   1.535   .     S
C1198  H1227   1.102   .     S
C1198  H1230   1.111   .     S
C1198  H1228   1.103   .     S
C1199  O1246   1.315   .     A
C1199  O1247   1.313   .     A
C1200  N1240   1.390   .     A
C1201  N1239   1.388   .     A
C1201  C734    1.423   1_565 S
C1202  N1240   1.385   .     A
C1203  N1239   1.390   .     A
C1203  C732    1.434   1_565 S
C1204  H1238   1.083   .     S
C1204  C1329   1.387   1_455 S
Cu1205 Cu1206  2.745   .     S
Cu1205 O1245   1.955   .     S
Cu1205 O1241   1.961   .     S
Cu1205 O1247   1.954   .     S
Cu1205 O1243   1.955   .     S
Cu1205 N1239   2.063   .     S
Cu1206 O1246   1.955   .     S
Cu1206 N1240   2.063   .     S
Cu1206 O1244   1.955   .     S
Cu1206 O1248   1.954   .     S
Cu1206 O1242   1.961   .     S
C1249  O1319   1.315   .     A
C1249  O1322   1.308   .     A
C1249  C1267   1.452   .     S
C1250  C1266   1.395   .     A
C1250  H1286   1.082   .     S
C1250  C1330   1.379   .     S
C1251  C1266   1.401   .     A
C1251  H1287   1.082   .     S
C1251  C1360   1.387   .     S
C1252  C1267   1.397   .     A
C1252  H1288   1.070   .     S
C1253  H1285   1.083   .     S
C1253  C1264   1.402   .     A
C1253  C1257   1.388   .     A
C1254  H1296   1.083   .     S
C1254  C1265   1.404   .     A
C1254  C1258   1.390   .     A
C1255  C1259   1.389   .     A
C1255  C1265   1.403   .     A
C1255  H1307   1.083   .     S
C1256  C1261   1.391   .     A
C1256  C1264   1.402   .     A
C1256  H1311   1.083   .     S
C1257  H1312   1.076   .     S
C1257  C1262   1.402   .     A
C1258  C1263   1.401   .     A
C1258  H1313   1.081   .     S
C1259  C1263   1.402   .     A
C1259  H1314   1.081   .     S
C1260  O1320   1.308   .     A
C1260  O1321   1.311   .     A
C1260  C1266   1.445   .     S
C1261  H1315   1.079   .     S
C1261  C1262   1.404   .     A
C1262  C1271   1.469   .     S
C1263  C1277   1.460   .     S
C1265  C562    1.469   1_556 S
C1267  C1282   1.402   .     A
C1268  C1278   1.529   .     S
C1268  H1292   1.091   .     S
C1268  H1293   1.103   .     S
C1268  C1269   1.532   .     S
C1269  H1291   1.111   .     S
C1269  H1289   1.109   .     S
C1269  H1290   1.107   .     S
C1270  H1298   1.100   .     S
C1270  C1279   1.517   .     S
C1270  C1272   1.529   .     S
C1270  H1299   1.111   .     S
C1271  O1323   1.316   .     A
C1271  O1326   1.316   .     A
C1272  H1297   1.108   .     S
C1272  H1295   1.111   .     S
C1272  H1294   1.100   .     S
C1273  H1304   1.111   .     S
C1273  C1280   1.517   .     S
C1273  C1274   1.528   .     S
C1273  H1303   1.100   .     S
C1274  H1302   1.111   .     S
C1274  H1300   1.108   .     S
C1274  H1301   1.100   .     S
C1275  C1281   1.519   .     S
C1275  H1309   1.098   .     S
C1275  H1310   1.107   .     S
C1275  C1276   1.535   .     S
C1276  H1305   1.102   .     S
C1276  H1308   1.111   .     S
C1276  H1306   1.103   .     S
C1277  O1324   1.315   .     A
C1277  O1325   1.313   .     A
C1278  N1318   1.390   .     A
C1279  N1317   1.388   .     A
C1279  C812    1.423   1_565 S
C1280  N1318   1.385   .     A
C1281  N1317   1.390   .     A
C1281  C810    1.434   1_565 S
C1282  H1316   1.083   .     S
Cu1283 Cu1284  2.745   .     S
Cu1283 O1323   1.955   .     S
Cu1283 O1319   1.961   .     S
Cu1283 O1325   1.954   .     S
Cu1283 O1321   1.955   .     S
Cu1283 N1317   2.063   .     S
Cu1284 O1324   1.955   .     S
Cu1284 N1318   2.063   .     S
Cu1284 O1322   1.955   .     S
Cu1284 O1326   1.954   .     S
Cu1284 O1320   1.961   .     S
C1327  O1397   1.315   .     A
C1327  O1400   1.308   .     A
C1327  C1345   1.452   .     S
C1328  C1344   1.395   .     A
C1328  H1364   1.082   .     S
C1328  C1174   1.379   1_655 S
C1329  C1344   1.401   .     A
C1329  H1365   1.082   .     S
C1329  C1204   1.387   1_655 S
C1330  C1345   1.397   .     A
C1330  H1366   1.070   .     S
C1331  H1363   1.083   .     S
C1331  C1342   1.402   .     A
C1331  C1335   1.388   .     A
C1332  H1374   1.083   .     S
C1332  C1343   1.404   .     A
C1332  C1336   1.390   .     A
C1333  C1337   1.389   .     A
C1333  C1343   1.403   .     A
C1333  H1385   1.083   .     S
C1334  C1339   1.391   .     A
C1334  C1342   1.402   .     A
C1334  H1389   1.083   .     S
C1335  H1390   1.076   .     S
C1335  C1340   1.402   .     A
C1336  C1341   1.401   .     A
C1336  H1391   1.081   .     S
C1337  C1341   1.402   .     A
C1337  H1392   1.081   .     S
C1338  O1398   1.308   .     A
C1338  O1399   1.311   .     A
C1338  C1344   1.445   .     S
C1339  H1393   1.079   .     S
C1339  C1340   1.404   .     A
C1340  C1349   1.469   .     S
C1341  C1355   1.460   .     S
C1343  C640    1.469   1_556 S
C1345  C1360   1.402   .     A
C1346  C1356   1.529   .     S
C1346  H1370   1.091   .     S
C1346  H1371   1.103   .     S
C1346  C1347   1.532   .     S
C1347  H1369   1.111   .     S
C1347  H1367   1.109   .     S
C1347  H1368   1.107   .     S
C1348  H1376   1.100   .     S
C1348  C1357   1.517   .     S
C1348  C1350   1.529   .     S
C1348  H1377   1.111   .     S
C1349  O1401   1.316   .     A
C1349  O1404   1.316   .     A
C1350  H1375   1.108   .     S
C1350  H1373   1.111   .     S
C1350  H1372   1.100   .     S
C1351  H1382   1.111   .     S
C1351  C1358   1.517   .     S
C1351  C1352   1.528   .     S
C1351  H1381   1.100   .     S
C1352  H1380   1.111   .     S
C1352  H1378   1.108   .     S
C1352  H1379   1.100   .     S
C1353  C1359   1.519   .     S
C1353  H1387   1.098   .     S
C1353  H1388   1.107   .     S
C1353  C1354   1.535   .     S
C1354  H1383   1.102   .     S
C1354  H1386   1.111   .     S
C1354  H1384   1.103   .     S
C1355  O1402   1.315   .     A
C1355  O1403   1.313   .     A
C1356  N1396   1.390   .     A
C1357  N1395   1.388   .     A
C1357  C890    1.423   1_565 S
C1358  N1396   1.385   .     A
C1359  N1395   1.390   .     A
C1359  C888    1.434   1_565 S
C1360  H1394   1.083   .     S
Cu1361 Cu1362  2.745   .     S
Cu1361 O1401   1.955   .     S
Cu1361 O1397   1.961   .     S
Cu1361 O1403   1.954   .     S
Cu1361 O1399   1.955   .     S
Cu1361 N1395   2.063   .     S
Cu1362 O1402   1.955   .     S
Cu1362 N1396   2.063   .     S
Cu1362 O1400   1.955   .     S
Cu1362 O1404   1.954   .     S
Cu1362 O1398   1.961   .     S
