data_str_m2_o1_o16_pcu_sym.229
_audit_creation_date              2020-01-03
_audit_creation_method            'Materials Studio'
_symmetry_space_group_name_H-M    'P1'
_symmetry_Int_Tables_number       1
_symmetry_cell_setting            triclinic
loop_
_symmetry_equiv_pos_as_xyz
  x,y,z
_cell_length_a                    28.6038
_cell_length_b                    32.4813
_cell_length_c                    27.0548
_cell_angle_alpha                 90.3411
_cell_angle_beta                  73.4319
_cell_angle_gamma                 89.9550
loop_
_atom_site_label
_atom_site_type_symbol
_atom_site_fract_x
_atom_site_fract_y
_atom_site_fract_z
_atom_site_U_iso_or_equiv
_atom_site_adp_type
_atom_site_occupancy
C1     C     0.16675   0.24595   0.24973   0.00000  Uiso   1.00
C2     C     0.14666   0.16555   0.48861   0.00000  Uiso   1.00
C3     C     0.16002   0.15572   0.43520   0.00000  Uiso   1.00
C4     C     0.18240   0.16286   0.01551   0.00000  Uiso   1.00
C5     C     0.23163   0.15535   0.48809   0.00000  Uiso   1.00
C6     C     0.24321   0.14161   0.43724   0.00000  Uiso   1.00
C7     C     0.20708   0.13913   0.41229   0.00000  Uiso   1.00
C8     C     0.17067   0.16671   0.06906   0.00000  Uiso   1.00
C9     C     0.25649   0.17322   0.06414   0.00000  Uiso   1.00
C10    C     0.12635   0.16386   0.40645   0.00000  Uiso   1.00
C11    C     0.21047   0.31196   0.24431   0.00000  Uiso   1.00
C12    C     0.14100   0.16445   0.34973   0.00000  Uiso   1.00
C13    C     0.21047   0.02123   0.24438   0.00000  Uiso   1.00
C14    C     0.16689   0.04274   0.24924   0.00000  Uiso   1.00
C15    C     0.12341   0.02133   0.25361   0.00000  Uiso   1.00
C16    C     0.12340   0.31208   0.25360   0.00000  Uiso   1.00
C17    C     0.16689   0.29057   0.24917   0.00000  Uiso   1.00
C18    C     0.29922   0.19020   0.28455   0.00000  Uiso   1.00
C19    C     0.01546   0.19016   0.28457   0.00000  Uiso   1.00
C20    C     0.03411   0.14317   0.21540   0.00000  Uiso   1.00
C21    C     0.31787   0.14319   0.21541   0.00000  Uiso   1.00
C22    C     0.16674   0.08737   0.24973   0.00000  Uiso   1.00
C23    C     0.19253   0.16823   0.15034   0.00000  Uiso   1.00
C24    C     0.26839   0.16134   0.01225   0.00000  Uiso   1.00
C25    C     0.20717   0.16987   0.09390   0.00000  Uiso   1.00
C26    C     0.07913   0.17748   0.43208   0.00000  Uiso   1.00
C27    C     0.06608   0.18589   0.48433   0.00000  Uiso   1.00
C28    C     0.09917   0.18059   0.01246   0.00000  Uiso   1.00
Cu29   Cu    0.11978   0.16666   0.25000   0.00000  Uiso   1.00
Cu30   Cu    0.21355   0.16667   0.25000   0.00000  Uiso   1.00
H31    H     0.08936   0.03739   0.25735   0.00000  Uiso   1.00
H32    H     0.08935   0.29610   0.25736   0.00000  Uiso   1.00
H33    H     0.27312   0.20910   0.31224   0.00000  Uiso   1.00
H34    H     0.02663   0.20903   0.31226   0.00000  Uiso   1.00
H35    H     0.06020   0.12426   0.18771   0.00000  Uiso   1.00
H36    H     0.30669   0.12433   0.18771   0.00000  Uiso   1.00
H37    H     0.28011   0.13224   0.41691   0.00000  Uiso   1.00
H38    H     0.30609   0.15747   0.49033   0.00000  Uiso   1.00
H39    H     0.13314   0.16537   0.09213   0.00000  Uiso   1.00
H40    H     0.05282   0.18407   0.41122   0.00000  Uiso   1.00
H41    H     0.08726   0.19043   0.05222   0.00000  Uiso   1.00
H42    H     0.03074   0.19871   0.00258   0.00000  Uiso   1.00
H43    H     0.21721   0.12459   0.37480   0.00000  Uiso   1.00
N44    N     0.04931   0.16666   0.24999   0.00000  Uiso   1.00
N45    N     0.28402   0.16669   0.25000   0.00000  Uiso   1.00
O46    O     0.12708   0.22678   0.25001   0.00000  Uiso   1.00
O47    O     0.20627   0.22679   0.25001   0.00000  Uiso   1.00
O48    O     0.10775   0.16665   0.32549   0.00000  Uiso   1.00
O49    O     0.18694   0.16666   0.32549   0.00000  Uiso   1.00
O50    O     0.12706   0.10654   0.25000   0.00000  Uiso   1.00
O51    O     0.20625   0.10655   0.25000   0.00000  Uiso   1.00
O52    O     0.14640   0.16667   0.17451   0.00000  Uiso   1.00
O53    O     0.22559   0.16668   0.17451   0.00000  Uiso   1.00
O54    O     0.29377   0.18448   0.08507   0.00000  Uiso   1.00
C55    C     0.28553   0.22450   0.10790   0.00000  Uiso   1.00
H56    H     0.29338   0.22311   0.14579   0.00000  Uiso   1.00
H57    H     0.24736   0.23603   0.11563   0.00000  Uiso   1.00
C58    C     0.31977   0.25614   0.07462   0.00000  Uiso   1.00
H59    H     0.02487   0.24710   0.07016   0.00000  Uiso   1.00
H60    H     0.31349   0.25734   0.03596   0.00000  Uiso   1.00
C61    C     0.31118   0.29896   0.09921   0.00000  Uiso   1.00
H62    H     0.27322   0.30932   0.10335   0.00000  Uiso   1.00
H63    H     0.00339   0.32120   0.07441   0.00000  Uiso   1.00
H64    H     0.31762   0.29868   0.13781   0.00000  Uiso   1.00
H65    H     0.24452   0.03722   0.24060   0.00000  Uiso   1.00
H66    H     0.24454   0.29588   0.24043   0.00000  Uiso   1.00
C67    C     0.50008   0.24595   0.24973   0.00000  Uiso   1.00
C68    C     0.48000   0.16555   0.48861   0.00000  Uiso   1.00
C69    C     0.49336   0.15572   0.43520   0.00000  Uiso   1.00
C70    C     0.51573   0.16286   0.01551   0.00000  Uiso   1.00
C71    C     0.56496   0.15535   0.48809   0.00000  Uiso   1.00
C72    C     0.57654   0.14161   0.43724   0.00000  Uiso   1.00
C73    C     0.54041   0.13913   0.41229   0.00000  Uiso   1.00
C74    C     0.50401   0.16671   0.06906   0.00000  Uiso   1.00
C75    C     0.58982   0.17322   0.06414   0.00000  Uiso   1.00
C76    C     0.45968   0.16386   0.40645   0.00000  Uiso   1.00
C77    C     0.54381   0.31196   0.24431   0.00000  Uiso   1.00
C78    C     0.47434   0.16445   0.34973   0.00000  Uiso   1.00
C79    C     0.54380   0.02123   0.24438   0.00000  Uiso   1.00
C80    C     0.50022   0.04274   0.24924   0.00000  Uiso   1.00
C81    C     0.45674   0.02133   0.25361   0.00000  Uiso   1.00
C82    C     0.45674   0.31208   0.25360   0.00000  Uiso   1.00
C83    C     0.50022   0.29057   0.24917   0.00000  Uiso   1.00
C84    C     0.63256   0.19020   0.28455   0.00000  Uiso   1.00
C85    C     0.34879   0.19016   0.28457   0.00000  Uiso   1.00
C86    C     0.36744   0.14317   0.21540   0.00000  Uiso   1.00
C87    C     0.65120   0.14319   0.21541   0.00000  Uiso   1.00
C88    C     0.50008   0.08737   0.24973   0.00000  Uiso   1.00
C89    C     0.52586   0.16823   0.15034   0.00000  Uiso   1.00
C90    C     0.60173   0.16134   0.01225   0.00000  Uiso   1.00
C91    C     0.54051   0.16987   0.09390   0.00000  Uiso   1.00
C92    C     0.41247   0.17748   0.43208   0.00000  Uiso   1.00
C93    C     0.39942   0.18589   0.48433   0.00000  Uiso   1.00
C94    C     0.43250   0.18059   0.01246   0.00000  Uiso   1.00
Cu95   Cu    0.45311   0.16666   0.25000   0.00000  Uiso   1.00
Cu96   Cu    0.54689   0.16667   0.25000   0.00000  Uiso   1.00
H97    H     0.42269   0.03739   0.25735   0.00000  Uiso   1.00
H98    H     0.42268   0.29610   0.25736   0.00000  Uiso   1.00
H99    H     0.60646   0.20910   0.31224   0.00000  Uiso   1.00
H100   H     0.35996   0.20903   0.31226   0.00000  Uiso   1.00
H101   H     0.39353   0.12426   0.18771   0.00000  Uiso   1.00
H102   H     0.64002   0.12433   0.18771   0.00000  Uiso   1.00
H103   H     0.61344   0.13224   0.41691   0.00000  Uiso   1.00
H104   H     0.63942   0.15747   0.49033   0.00000  Uiso   1.00
H105   H     0.46648   0.16537   0.09213   0.00000  Uiso   1.00
H106   H     0.38615   0.18407   0.41122   0.00000  Uiso   1.00
H107   H     0.42059   0.19043   0.05222   0.00000  Uiso   1.00
H108   H     0.36407   0.19871   0.00258   0.00000  Uiso   1.00
H109   H     0.55054   0.12459   0.37480   0.00000  Uiso   1.00
N110   N     0.38265   0.16666   0.24999   0.00000  Uiso   1.00
N111   N     0.61735   0.16669   0.25000   0.00000  Uiso   1.00
O112   O     0.46042   0.22678   0.25001   0.00000  Uiso   1.00
O113   O     0.53961   0.22679   0.25001   0.00000  Uiso   1.00
O114   O     0.44108   0.16665   0.32549   0.00000  Uiso   1.00
O115   O     0.52027   0.16666   0.32549   0.00000  Uiso   1.00
O116   O     0.46039   0.10654   0.25000   0.00000  Uiso   1.00
O117   O     0.53958   0.10655   0.25000   0.00000  Uiso   1.00
O118   O     0.47973   0.16667   0.17451   0.00000  Uiso   1.00
O119   O     0.55892   0.16668   0.17451   0.00000  Uiso   1.00
O120   O     0.62710   0.18448   0.08507   0.00000  Uiso   1.00
C121   C     0.61886   0.22450   0.10790   0.00000  Uiso   1.00
H122   H     0.62671   0.22311   0.14579   0.00000  Uiso   1.00
H123   H     0.58070   0.23603   0.11563   0.00000  Uiso   1.00
C124   C     0.65311   0.25614   0.07462   0.00000  Uiso   1.00
H125   H     0.35820   0.24710   0.07016   0.00000  Uiso   1.00
H126   H     0.64683   0.25734   0.03596   0.00000  Uiso   1.00
C127   C     0.64451   0.29896   0.09921   0.00000  Uiso   1.00
H128   H     0.60655   0.30932   0.10335   0.00000  Uiso   1.00
H129   H     0.33673   0.32120   0.07441   0.00000  Uiso   1.00
H130   H     0.65096   0.29868   0.13781   0.00000  Uiso   1.00
H131   H     0.57785   0.03722   0.24060   0.00000  Uiso   1.00
H132   H     0.57787   0.29588   0.24043   0.00000  Uiso   1.00
C133   C     0.83341   0.24595   0.24973   0.00000  Uiso   1.00
C134   C     0.81333   0.16555   0.48861   0.00000  Uiso   1.00
C135   C     0.82669   0.15572   0.43520   0.00000  Uiso   1.00
C136   C     0.84906   0.16286   0.01551   0.00000  Uiso   1.00
C137   C     0.89829   0.15535   0.48809   0.00000  Uiso   1.00
C138   C     0.90988   0.14161   0.43724   0.00000  Uiso   1.00
C139   C     0.87375   0.13913   0.41229   0.00000  Uiso   1.00
C140   C     0.83734   0.16671   0.06906   0.00000  Uiso   1.00
C141   C     0.92316   0.17322   0.06414   0.00000  Uiso   1.00
C142   C     0.79302   0.16386   0.40645   0.00000  Uiso   1.00
C143   C     0.87714   0.31196   0.24431   0.00000  Uiso   1.00
C144   C     0.80767   0.16445   0.34973   0.00000  Uiso   1.00
C145   C     0.87713   0.02123   0.24438   0.00000  Uiso   1.00
C146   C     0.83356   0.04274   0.24924   0.00000  Uiso   1.00
C147   C     0.79008   0.02133   0.25361   0.00000  Uiso   1.00
C148   C     0.79007   0.31208   0.25360   0.00000  Uiso   1.00
C149   C     0.83355   0.29057   0.24917   0.00000  Uiso   1.00
C150   C     0.96589   0.19020   0.28455   0.00000  Uiso   1.00
C151   C     0.68212   0.19016   0.28457   0.00000  Uiso   1.00
C152   C     0.70078   0.14317   0.21540   0.00000  Uiso   1.00
C153   C     0.98454   0.14319   0.21541   0.00000  Uiso   1.00
C154   C     0.83341   0.08737   0.24973   0.00000  Uiso   1.00
C155   C     0.85920   0.16823   0.15034   0.00000  Uiso   1.00
C156   C     0.93506   0.16134   0.01225   0.00000  Uiso   1.00
C157   C     0.87384   0.16987   0.09390   0.00000  Uiso   1.00
C158   C     0.74580   0.17748   0.43208   0.00000  Uiso   1.00
C159   C     0.73275   0.18589   0.48433   0.00000  Uiso   1.00
C160   C     0.76584   0.18059   0.01246   0.00000  Uiso   1.00
Cu161  Cu    0.78645   0.16666   0.25000   0.00000  Uiso   1.00
Cu162  Cu    0.88022   0.16667   0.25000   0.00000  Uiso   1.00
H163   H     0.75602   0.03739   0.25735   0.00000  Uiso   1.00
H164   H     0.75601   0.29610   0.25736   0.00000  Uiso   1.00
H165   H     0.93979   0.20910   0.31224   0.00000  Uiso   1.00
H166   H     0.69329   0.20903   0.31226   0.00000  Uiso   1.00
H167   H     0.72687   0.12426   0.18771   0.00000  Uiso   1.00
H168   H     0.97336   0.12433   0.18771   0.00000  Uiso   1.00
H169   H     0.94678   0.13224   0.41691   0.00000  Uiso   1.00
H170   H     0.97275   0.15747   0.49033   0.00000  Uiso   1.00
H171   H     0.79981   0.16537   0.09213   0.00000  Uiso   1.00
H172   H     0.71949   0.18407   0.41122   0.00000  Uiso   1.00
H173   H     0.75392   0.19043   0.05222   0.00000  Uiso   1.00
H174   H     0.69740   0.19871   0.00258   0.00000  Uiso   1.00
H175   H     0.88387   0.12459   0.37480   0.00000  Uiso   1.00
N176   N     0.71598   0.16666   0.24999   0.00000  Uiso   1.00
N177   N     0.95069   0.16669   0.25000   0.00000  Uiso   1.00
O178   O     0.79375   0.22678   0.25001   0.00000  Uiso   1.00
O179   O     0.87294   0.22679   0.25001   0.00000  Uiso   1.00
O180   O     0.77441   0.16665   0.32549   0.00000  Uiso   1.00
O181   O     0.85360   0.16666   0.32549   0.00000  Uiso   1.00
O182   O     0.79373   0.10654   0.25000   0.00000  Uiso   1.00
O183   O     0.87292   0.10655   0.25000   0.00000  Uiso   1.00
O184   O     0.81306   0.16667   0.17451   0.00000  Uiso   1.00
O185   O     0.89225   0.16668   0.17451   0.00000  Uiso   1.00
O186   O     0.96044   0.18448   0.08507   0.00000  Uiso   1.00
C187   C     0.95219   0.22450   0.10790   0.00000  Uiso   1.00
H188   H     0.96005   0.22311   0.14579   0.00000  Uiso   1.00
H189   H     0.91403   0.23603   0.11563   0.00000  Uiso   1.00
C190   C     0.98644   0.25614   0.07462   0.00000  Uiso   1.00
H191   H     0.69153   0.24710   0.07016   0.00000  Uiso   1.00
H192   H     0.98016   0.25734   0.03596   0.00000  Uiso   1.00
C193   C     0.97785   0.29896   0.09921   0.00000  Uiso   1.00
H194   H     0.93989   0.30932   0.10335   0.00000  Uiso   1.00
H195   H     0.67006   0.32120   0.07441   0.00000  Uiso   1.00
H196   H     0.98429   0.29868   0.13781   0.00000  Uiso   1.00
H197   H     0.91118   0.03722   0.24060   0.00000  Uiso   1.00
H198   H     0.91121   0.29588   0.24043   0.00000  Uiso   1.00
C199   C     0.16675   0.57928   0.24973   0.00000  Uiso   1.00
C200   C     0.14666   0.49888   0.48861   0.00000  Uiso   1.00
C201   C     0.16002   0.48905   0.43520   0.00000  Uiso   1.00
C202   C     0.18240   0.49619   0.01551   0.00000  Uiso   1.00
C203   C     0.23163   0.48868   0.48809   0.00000  Uiso   1.00
C204   C     0.24321   0.47494   0.43724   0.00000  Uiso   1.00
C205   C     0.20708   0.47247   0.41229   0.00000  Uiso   1.00
C206   C     0.17067   0.50004   0.06906   0.00000  Uiso   1.00
C207   C     0.25649   0.50655   0.06414   0.00000  Uiso   1.00
C208   C     0.12635   0.49719   0.40645   0.00000  Uiso   1.00
C209   C     0.21047   0.64529   0.24431   0.00000  Uiso   1.00
C210   C     0.14100   0.49778   0.34973   0.00000  Uiso   1.00
C211   C     0.21047   0.35456   0.24438   0.00000  Uiso   1.00
C212   C     0.16689   0.37607   0.24924   0.00000  Uiso   1.00
C213   C     0.12341   0.35466   0.25361   0.00000  Uiso   1.00
C214   C     0.12340   0.64541   0.25360   0.00000  Uiso   1.00
C215   C     0.16689   0.62390   0.24917   0.00000  Uiso   1.00
C216   C     0.29922   0.52354   0.28455   0.00000  Uiso   1.00
C217   C     0.01546   0.52350   0.28457   0.00000  Uiso   1.00
C218   C     0.03411   0.47650   0.21540   0.00000  Uiso   1.00
C219   C     0.31787   0.47652   0.21541   0.00000  Uiso   1.00
C220   C     0.16674   0.42071   0.24973   0.00000  Uiso   1.00
C221   C     0.19253   0.50156   0.15034   0.00000  Uiso   1.00
C222   C     0.26839   0.49467   0.01225   0.00000  Uiso   1.00
C223   C     0.20717   0.50320   0.09390   0.00000  Uiso   1.00
C224   C     0.07913   0.51081   0.43208   0.00000  Uiso   1.00
C225   C     0.06608   0.51923   0.48433   0.00000  Uiso   1.00
C226   C     0.09917   0.51393   0.01246   0.00000  Uiso   1.00
Cu227  Cu    0.11978   0.49999   0.25000   0.00000  Uiso   1.00
Cu228  Cu    0.21355   0.50001   0.25000   0.00000  Uiso   1.00
H229   H     0.08936   0.37072   0.25735   0.00000  Uiso   1.00
H230   H     0.08935   0.62943   0.25736   0.00000  Uiso   1.00
H231   H     0.27312   0.54243   0.31224   0.00000  Uiso   1.00
H232   H     0.02663   0.54236   0.31226   0.00000  Uiso   1.00
H233   H     0.06020   0.45760   0.18771   0.00000  Uiso   1.00
H234   H     0.30669   0.45767   0.18771   0.00000  Uiso   1.00
H235   H     0.28011   0.46557   0.41691   0.00000  Uiso   1.00
H236   H     0.30609   0.49080   0.49033   0.00000  Uiso   1.00
H237   H     0.13314   0.49870   0.09213   0.00000  Uiso   1.00
H238   H     0.05282   0.51740   0.41122   0.00000  Uiso   1.00
H239   H     0.08726   0.52376   0.05222   0.00000  Uiso   1.00
H240   H     0.03074   0.53205   0.00258   0.00000  Uiso   1.00
H241   H     0.21721   0.45792   0.37480   0.00000  Uiso   1.00
N242   N     0.04931   0.49999   0.24999   0.00000  Uiso   1.00
N243   N     0.28402   0.50002   0.25000   0.00000  Uiso   1.00
O244   O     0.12708   0.56011   0.25001   0.00000  Uiso   1.00
O245   O     0.20627   0.56012   0.25001   0.00000  Uiso   1.00
O246   O     0.10775   0.49998   0.32549   0.00000  Uiso   1.00
O247   O     0.18694   0.49999   0.32549   0.00000  Uiso   1.00
O248   O     0.12706   0.43988   0.25000   0.00000  Uiso   1.00
O249   O     0.20625   0.43989   0.25000   0.00000  Uiso   1.00
O250   O     0.14640   0.50001   0.17451   0.00000  Uiso   1.00
O251   O     0.22559   0.50002   0.17451   0.00000  Uiso   1.00
O252   O     0.29377   0.51782   0.08507   0.00000  Uiso   1.00
C253   C     0.28553   0.55783   0.10790   0.00000  Uiso   1.00
H254   H     0.29338   0.55645   0.14579   0.00000  Uiso   1.00
H255   H     0.24736   0.56937   0.11563   0.00000  Uiso   1.00
C256   C     0.31977   0.58947   0.07462   0.00000  Uiso   1.00
H257   H     0.02487   0.58043   0.07016   0.00000  Uiso   1.00
H258   H     0.31349   0.59067   0.03596   0.00000  Uiso   1.00
C259   C     0.31118   0.63229   0.09921   0.00000  Uiso   1.00
H260   H     0.27322   0.64265   0.10335   0.00000  Uiso   1.00
H261   H     0.00339   0.65453   0.07441   0.00000  Uiso   1.00
H262   H     0.31762   0.63202   0.13781   0.00000  Uiso   1.00
H263   H     0.24452   0.37055   0.24060   0.00000  Uiso   1.00
H264   H     0.24454   0.62921   0.24043   0.00000  Uiso   1.00
C265   C     0.50008   0.57928   0.24973   0.00000  Uiso   1.00
C266   C     0.48000   0.49888   0.48861   0.00000  Uiso   1.00
C267   C     0.49336   0.48905   0.43520   0.00000  Uiso   1.00
C268   C     0.51573   0.49619   0.01551   0.00000  Uiso   1.00
C269   C     0.56496   0.48868   0.48809   0.00000  Uiso   1.00
C270   C     0.57654   0.47494   0.43724   0.00000  Uiso   1.00
C271   C     0.54041   0.47247   0.41229   0.00000  Uiso   1.00
C272   C     0.50401   0.50004   0.06906   0.00000  Uiso   1.00
C273   C     0.58982   0.50655   0.06414   0.00000  Uiso   1.00
C274   C     0.45968   0.49719   0.40645   0.00000  Uiso   1.00
C275   C     0.54381   0.64529   0.24431   0.00000  Uiso   1.00
C276   C     0.47434   0.49778   0.34973   0.00000  Uiso   1.00
C277   C     0.54380   0.35456   0.24438   0.00000  Uiso   1.00
C278   C     0.50022   0.37607   0.24924   0.00000  Uiso   1.00
C279   C     0.45674   0.35466   0.25361   0.00000  Uiso   1.00
C280   C     0.45674   0.64541   0.25360   0.00000  Uiso   1.00
C281   C     0.50022   0.62390   0.24917   0.00000  Uiso   1.00
C282   C     0.63256   0.52354   0.28455   0.00000  Uiso   1.00
C283   C     0.34879   0.52350   0.28457   0.00000  Uiso   1.00
C284   C     0.36744   0.47650   0.21540   0.00000  Uiso   1.00
C285   C     0.65120   0.47652   0.21541   0.00000  Uiso   1.00
C286   C     0.50008   0.42071   0.24973   0.00000  Uiso   1.00
C287   C     0.52586   0.50156   0.15034   0.00000  Uiso   1.00
C288   C     0.60173   0.49467   0.01225   0.00000  Uiso   1.00
C289   C     0.54051   0.50320   0.09390   0.00000  Uiso   1.00
C290   C     0.41247   0.51081   0.43208   0.00000  Uiso   1.00
C291   C     0.39942   0.51923   0.48433   0.00000  Uiso   1.00
C292   C     0.43250   0.51393   0.01246   0.00000  Uiso   1.00
Cu293  Cu    0.45311   0.49999   0.25000   0.00000  Uiso   1.00
Cu294  Cu    0.54689   0.50001   0.25000   0.00000  Uiso   1.00
H295   H     0.42269   0.37072   0.25735   0.00000  Uiso   1.00
H296   H     0.42268   0.62943   0.25736   0.00000  Uiso   1.00
H297   H     0.60646   0.54243   0.31224   0.00000  Uiso   1.00
H298   H     0.35996   0.54236   0.31226   0.00000  Uiso   1.00
H299   H     0.39353   0.45760   0.18771   0.00000  Uiso   1.00
H300   H     0.64002   0.45767   0.18771   0.00000  Uiso   1.00
H301   H     0.61344   0.46557   0.41691   0.00000  Uiso   1.00
H302   H     0.63942   0.49080   0.49033   0.00000  Uiso   1.00
H303   H     0.46648   0.49870   0.09213   0.00000  Uiso   1.00
H304   H     0.38615   0.51740   0.41122   0.00000  Uiso   1.00
H305   H     0.42059   0.52376   0.05222   0.00000  Uiso   1.00
H306   H     0.36407   0.53205   0.00258   0.00000  Uiso   1.00
H307   H     0.55054   0.45792   0.37480   0.00000  Uiso   1.00
N308   N     0.38265   0.49999   0.24999   0.00000  Uiso   1.00
N309   N     0.61735   0.50002   0.25000   0.00000  Uiso   1.00
O310   O     0.46042   0.56011   0.25001   0.00000  Uiso   1.00
O311   O     0.53961   0.56012   0.25001   0.00000  Uiso   1.00
O312   O     0.44108   0.49998   0.32549   0.00000  Uiso   1.00
O313   O     0.52027   0.49999   0.32549   0.00000  Uiso   1.00
O314   O     0.46039   0.43988   0.25000   0.00000  Uiso   1.00
O315   O     0.53958   0.43989   0.25000   0.00000  Uiso   1.00
O316   O     0.47973   0.50001   0.17451   0.00000  Uiso   1.00
O317   O     0.55892   0.50002   0.17451   0.00000  Uiso   1.00
O318   O     0.62710   0.51782   0.08507   0.00000  Uiso   1.00
C319   C     0.61886   0.55783   0.10790   0.00000  Uiso   1.00
H320   H     0.62671   0.55645   0.14579   0.00000  Uiso   1.00
H321   H     0.58070   0.56937   0.11563   0.00000  Uiso   1.00
C322   C     0.65311   0.58947   0.07462   0.00000  Uiso   1.00
H323   H     0.35820   0.58043   0.07016   0.00000  Uiso   1.00
H324   H     0.64683   0.59067   0.03596   0.00000  Uiso   1.00
C325   C     0.64451   0.63229   0.09921   0.00000  Uiso   1.00
H326   H     0.60655   0.64265   0.10335   0.00000  Uiso   1.00
H327   H     0.33673   0.65453   0.07441   0.00000  Uiso   1.00
H328   H     0.65096   0.63202   0.13781   0.00000  Uiso   1.00
H329   H     0.57785   0.37055   0.24060   0.00000  Uiso   1.00
H330   H     0.57787   0.62921   0.24043   0.00000  Uiso   1.00
C331   C     0.83341   0.57928   0.24973   0.00000  Uiso   1.00
C332   C     0.81333   0.49888   0.48861   0.00000  Uiso   1.00
C333   C     0.82669   0.48905   0.43520   0.00000  Uiso   1.00
C334   C     0.84906   0.49619   0.01551   0.00000  Uiso   1.00
C335   C     0.89829   0.48868   0.48809   0.00000  Uiso   1.00
C336   C     0.90988   0.47494   0.43724   0.00000  Uiso   1.00
C337   C     0.87375   0.47247   0.41229   0.00000  Uiso   1.00
C338   C     0.83734   0.50004   0.06906   0.00000  Uiso   1.00
C339   C     0.92316   0.50655   0.06414   0.00000  Uiso   1.00
C340   C     0.79302   0.49719   0.40645   0.00000  Uiso   1.00
C341   C     0.87714   0.64529   0.24431   0.00000  Uiso   1.00
C342   C     0.80767   0.49778   0.34973   0.00000  Uiso   1.00
C343   C     0.87713   0.35456   0.24438   0.00000  Uiso   1.00
C344   C     0.83356   0.37607   0.24924   0.00000  Uiso   1.00
C345   C     0.79008   0.35466   0.25361   0.00000  Uiso   1.00
C346   C     0.79007   0.64541   0.25360   0.00000  Uiso   1.00
C347   C     0.83355   0.62390   0.24917   0.00000  Uiso   1.00
C348   C     0.96589   0.52354   0.28455   0.00000  Uiso   1.00
C349   C     0.68212   0.52350   0.28457   0.00000  Uiso   1.00
C350   C     0.70078   0.47650   0.21540   0.00000  Uiso   1.00
C351   C     0.98454   0.47652   0.21541   0.00000  Uiso   1.00
C352   C     0.83341   0.42071   0.24973   0.00000  Uiso   1.00
C353   C     0.85920   0.50156   0.15034   0.00000  Uiso   1.00
C354   C     0.93506   0.49467   0.01225   0.00000  Uiso   1.00
C355   C     0.87384   0.50320   0.09390   0.00000  Uiso   1.00
C356   C     0.74580   0.51081   0.43208   0.00000  Uiso   1.00
C357   C     0.73275   0.51923   0.48433   0.00000  Uiso   1.00
C358   C     0.76584   0.51393   0.01246   0.00000  Uiso   1.00
Cu359  Cu    0.78645   0.49999   0.25000   0.00000  Uiso   1.00
Cu360  Cu    0.88022   0.50001   0.25000   0.00000  Uiso   1.00
H361   H     0.75602   0.37072   0.25735   0.00000  Uiso   1.00
H362   H     0.75601   0.62943   0.25736   0.00000  Uiso   1.00
H363   H     0.93979   0.54243   0.31224   0.00000  Uiso   1.00
H364   H     0.69329   0.54236   0.31226   0.00000  Uiso   1.00
H365   H     0.72687   0.45760   0.18771   0.00000  Uiso   1.00
H366   H     0.97336   0.45767   0.18771   0.00000  Uiso   1.00
H367   H     0.94678   0.46557   0.41691   0.00000  Uiso   1.00
H368   H     0.97275   0.49080   0.49033   0.00000  Uiso   1.00
H369   H     0.79981   0.49870   0.09213   0.00000  Uiso   1.00
H370   H     0.71949   0.51740   0.41122   0.00000  Uiso   1.00
H371   H     0.75392   0.52376   0.05222   0.00000  Uiso   1.00
H372   H     0.69740   0.53205   0.00258   0.00000  Uiso   1.00
H373   H     0.88387   0.45792   0.37480   0.00000  Uiso   1.00
N374   N     0.71598   0.49999   0.24999   0.00000  Uiso   1.00
N375   N     0.95069   0.50002   0.25000   0.00000  Uiso   1.00
O376   O     0.79375   0.56011   0.25001   0.00000  Uiso   1.00
O377   O     0.87294   0.56012   0.25001   0.00000  Uiso   1.00
O378   O     0.77441   0.49998   0.32549   0.00000  Uiso   1.00
O379   O     0.85360   0.49999   0.32549   0.00000  Uiso   1.00
O380   O     0.79373   0.43988   0.25000   0.00000  Uiso   1.00
O381   O     0.87292   0.43989   0.25000   0.00000  Uiso   1.00
O382   O     0.81306   0.50001   0.17451   0.00000  Uiso   1.00
O383   O     0.89225   0.50002   0.17451   0.00000  Uiso   1.00
O384   O     0.96044   0.51782   0.08507   0.00000  Uiso   1.00
C385   C     0.95219   0.55783   0.10790   0.00000  Uiso   1.00
H386   H     0.96005   0.55645   0.14579   0.00000  Uiso   1.00
H387   H     0.91403   0.56937   0.11563   0.00000  Uiso   1.00
C388   C     0.98644   0.58947   0.07462   0.00000  Uiso   1.00
H389   H     0.69153   0.58043   0.07016   0.00000  Uiso   1.00
H390   H     0.98016   0.59067   0.03596   0.00000  Uiso   1.00
C391   C     0.97785   0.63229   0.09921   0.00000  Uiso   1.00
H392   H     0.93989   0.64265   0.10335   0.00000  Uiso   1.00
H393   H     0.67006   0.65453   0.07441   0.00000  Uiso   1.00
H394   H     0.98429   0.63202   0.13781   0.00000  Uiso   1.00
H395   H     0.91118   0.37055   0.24060   0.00000  Uiso   1.00
H396   H     0.91121   0.62921   0.24043   0.00000  Uiso   1.00
C397   C     0.16675   0.91262   0.24973   0.00000  Uiso   1.00
C398   C     0.14666   0.83222   0.48861   0.00000  Uiso   1.00
C399   C     0.16002   0.82238   0.43520   0.00000  Uiso   1.00
C400   C     0.18240   0.82953   0.01551   0.00000  Uiso   1.00
C401   C     0.23163   0.82202   0.48809   0.00000  Uiso   1.00
C402   C     0.24321   0.80827   0.43724   0.00000  Uiso   1.00
C403   C     0.20708   0.80580   0.41229   0.00000  Uiso   1.00
C404   C     0.17067   0.83337   0.06906   0.00000  Uiso   1.00
C405   C     0.25649   0.83988   0.06414   0.00000  Uiso   1.00
C406   C     0.12635   0.83053   0.40645   0.00000  Uiso   1.00
C407   C     0.21047   0.97863   0.24431   0.00000  Uiso   1.00
C408   C     0.14100   0.83112   0.34973   0.00000  Uiso   1.00
C409   C     0.21047   0.68789   0.24438   0.00000  Uiso   1.00
C410   C     0.16689   0.70941   0.24924   0.00000  Uiso   1.00
C411   C     0.12341   0.68799   0.25361   0.00000  Uiso   1.00
C412   C     0.12340   0.97875   0.25360   0.00000  Uiso   1.00
C413   C     0.16689   0.95723   0.24917   0.00000  Uiso   1.00
C414   C     0.29922   0.85687   0.28455   0.00000  Uiso   1.00
C415   C     0.01546   0.85683   0.28457   0.00000  Uiso   1.00
C416   C     0.03411   0.80984   0.21540   0.00000  Uiso   1.00
C417   C     0.31787   0.80985   0.21541   0.00000  Uiso   1.00
C418   C     0.16674   0.75404   0.24973   0.00000  Uiso   1.00
C419   C     0.19253   0.83489   0.15034   0.00000  Uiso   1.00
C420   C     0.26839   0.82800   0.01225   0.00000  Uiso   1.00
C421   C     0.20717   0.83653   0.09390   0.00000  Uiso   1.00
C422   C     0.07913   0.84414   0.43208   0.00000  Uiso   1.00
C423   C     0.06608   0.85256   0.48433   0.00000  Uiso   1.00
C424   C     0.09917   0.84726   0.01246   0.00000  Uiso   1.00
Cu425  Cu    0.11978   0.83333   0.25000   0.00000  Uiso   1.00
Cu426  Cu    0.21355   0.83334   0.25000   0.00000  Uiso   1.00
H427   H     0.08936   0.70405   0.25735   0.00000  Uiso   1.00
H428   H     0.08935   0.96277   0.25736   0.00000  Uiso   1.00
H429   H     0.27312   0.87576   0.31224   0.00000  Uiso   1.00
H430   H     0.02663   0.87570   0.31226   0.00000  Uiso   1.00
H431   H     0.06020   0.79093   0.18771   0.00000  Uiso   1.00
H432   H     0.30669   0.79100   0.18771   0.00000  Uiso   1.00
H433   H     0.28011   0.79890   0.41691   0.00000  Uiso   1.00
H434   H     0.30609   0.82414   0.49033   0.00000  Uiso   1.00
H435   H     0.13314   0.83203   0.09213   0.00000  Uiso   1.00
H436   H     0.05282   0.85074   0.41122   0.00000  Uiso   1.00
H437   H     0.08726   0.85710   0.05222   0.00000  Uiso   1.00
H438   H     0.03074   0.86538   0.00258   0.00000  Uiso   1.00
H439   H     0.21721   0.79125   0.37480   0.00000  Uiso   1.00
N440   N     0.04931   0.83332   0.24999   0.00000  Uiso   1.00
N441   N     0.28402   0.83335   0.25000   0.00000  Uiso   1.00
O442   O     0.12708   0.89345   0.25001   0.00000  Uiso   1.00
O443   O     0.20627   0.89346   0.25001   0.00000  Uiso   1.00
O444   O     0.10775   0.83332   0.32549   0.00000  Uiso   1.00
O445   O     0.18694   0.83333   0.32549   0.00000  Uiso   1.00
O446   O     0.12706   0.77321   0.25000   0.00000  Uiso   1.00
O447   O     0.20625   0.77322   0.25000   0.00000  Uiso   1.00
O448   O     0.14640   0.83334   0.17451   0.00000  Uiso   1.00
O449   O     0.22559   0.83335   0.17451   0.00000  Uiso   1.00
O450   O     0.29377   0.85115   0.08507   0.00000  Uiso   1.00
C451   C     0.28553   0.89116   0.10790   0.00000  Uiso   1.00
H452   H     0.29338   0.88978   0.14579   0.00000  Uiso   1.00
H453   H     0.24736   0.90270   0.11563   0.00000  Uiso   1.00
C454   C     0.31977   0.92281   0.07462   0.00000  Uiso   1.00
H455   H     0.02487   0.91376   0.07016   0.00000  Uiso   1.00
H456   H     0.31349   0.92401   0.03596   0.00000  Uiso   1.00
C457   C     0.31118   0.96562   0.09921   0.00000  Uiso   1.00
H458   H     0.27322   0.97598   0.10335   0.00000  Uiso   1.00
H459   H     0.00339   0.98786   0.07441   0.00000  Uiso   1.00
H460   H     0.31762   0.96535   0.13781   0.00000  Uiso   1.00
H461   H     0.24452   0.70388   0.24060   0.00000  Uiso   1.00
H462   H     0.24454   0.96255   0.24043   0.00000  Uiso   1.00
C463   C     0.50008   0.91262   0.24973   0.00000  Uiso   1.00
C464   C     0.48000   0.83222   0.48861   0.00000  Uiso   1.00
C465   C     0.49336   0.82238   0.43520   0.00000  Uiso   1.00
C466   C     0.51573   0.82953   0.01551   0.00000  Uiso   1.00
C467   C     0.56496   0.82202   0.48809   0.00000  Uiso   1.00
C468   C     0.57654   0.80827   0.43724   0.00000  Uiso   1.00
C469   C     0.54041   0.80580   0.41229   0.00000  Uiso   1.00
C470   C     0.50401   0.83337   0.06906   0.00000  Uiso   1.00
C471   C     0.58982   0.83988   0.06414   0.00000  Uiso   1.00
C472   C     0.45968   0.83053   0.40645   0.00000  Uiso   1.00
C473   C     0.54381   0.97863   0.24431   0.00000  Uiso   1.00
C474   C     0.47434   0.83112   0.34973   0.00000  Uiso   1.00
C475   C     0.54380   0.68789   0.24438   0.00000  Uiso   1.00
C476   C     0.50022   0.70941   0.24924   0.00000  Uiso   1.00
C477   C     0.45674   0.68799   0.25361   0.00000  Uiso   1.00
C478   C     0.45674   0.97875   0.25360   0.00000  Uiso   1.00
C479   C     0.50022   0.95723   0.24917   0.00000  Uiso   1.00
C480   C     0.63256   0.85687   0.28455   0.00000  Uiso   1.00
C481   C     0.34879   0.85683   0.28457   0.00000  Uiso   1.00
C482   C     0.36744   0.80984   0.21540   0.00000  Uiso   1.00
C483   C     0.65120   0.80985   0.21541   0.00000  Uiso   1.00
C484   C     0.50008   0.75404   0.24973   0.00000  Uiso   1.00
C485   C     0.52586   0.83489   0.15034   0.00000  Uiso   1.00
C486   C     0.60173   0.82800   0.01225   0.00000  Uiso   1.00
C487   C     0.54051   0.83653   0.09390   0.00000  Uiso   1.00
C488   C     0.41247   0.84414   0.43208   0.00000  Uiso   1.00
C489   C     0.39942   0.85256   0.48433   0.00000  Uiso   1.00
C490   C     0.43250   0.84726   0.01246   0.00000  Uiso   1.00
Cu491  Cu    0.45311   0.83333   0.25000   0.00000  Uiso   1.00
Cu492  Cu    0.54689   0.83334   0.25000   0.00000  Uiso   1.00
H493   H     0.42269   0.70405   0.25735   0.00000  Uiso   1.00
H494   H     0.42268   0.96277   0.25736   0.00000  Uiso   1.00
H495   H     0.60646   0.87576   0.31224   0.00000  Uiso   1.00
H496   H     0.35996   0.87570   0.31226   0.00000  Uiso   1.00
H497   H     0.39353   0.79093   0.18771   0.00000  Uiso   1.00
H498   H     0.64002   0.79100   0.18771   0.00000  Uiso   1.00
H499   H     0.61344   0.79890   0.41691   0.00000  Uiso   1.00
H500   H     0.63942   0.82414   0.49033   0.00000  Uiso   1.00
H501   H     0.46648   0.83203   0.09213   0.00000  Uiso   1.00
H502   H     0.38615   0.85074   0.41122   0.00000  Uiso   1.00
H503   H     0.42059   0.85710   0.05222   0.00000  Uiso   1.00
H504   H     0.36407   0.86538   0.00258   0.00000  Uiso   1.00
H505   H     0.55054   0.79125   0.37480   0.00000  Uiso   1.00
N506   N     0.38265   0.83332   0.24999   0.00000  Uiso   1.00
N507   N     0.61735   0.83335   0.25000   0.00000  Uiso   1.00
O508   O     0.46042   0.89345   0.25001   0.00000  Uiso   1.00
O509   O     0.53961   0.89346   0.25001   0.00000  Uiso   1.00
O510   O     0.44108   0.83332   0.32549   0.00000  Uiso   1.00
O511   O     0.52027   0.83333   0.32549   0.00000  Uiso   1.00
O512   O     0.46039   0.77321   0.25000   0.00000  Uiso   1.00
O513   O     0.53958   0.77322   0.25000   0.00000  Uiso   1.00
O514   O     0.47973   0.83334   0.17451   0.00000  Uiso   1.00
O515   O     0.55892   0.83335   0.17451   0.00000  Uiso   1.00
O516   O     0.62710   0.85115   0.08507   0.00000  Uiso   1.00
C517   C     0.61886   0.89116   0.10790   0.00000  Uiso   1.00
H518   H     0.62671   0.88978   0.14579   0.00000  Uiso   1.00
H519   H     0.58070   0.90270   0.11563   0.00000  Uiso   1.00
C520   C     0.65311   0.92281   0.07462   0.00000  Uiso   1.00
H521   H     0.35820   0.91376   0.07016   0.00000  Uiso   1.00
H522   H     0.64683   0.92401   0.03596   0.00000  Uiso   1.00
C523   C     0.64451   0.96562   0.09921   0.00000  Uiso   1.00
H524   H     0.60655   0.97598   0.10335   0.00000  Uiso   1.00
H525   H     0.33673   0.98786   0.07441   0.00000  Uiso   1.00
H526   H     0.65096   0.96535   0.13781   0.00000  Uiso   1.00
H527   H     0.57785   0.70388   0.24060   0.00000  Uiso   1.00
H528   H     0.57787   0.96255   0.24043   0.00000  Uiso   1.00
C529   C     0.83341   0.91262   0.24973   0.00000  Uiso   1.00
C530   C     0.81333   0.83222   0.48861   0.00000  Uiso   1.00
C531   C     0.82669   0.82238   0.43520   0.00000  Uiso   1.00
C532   C     0.84906   0.82953   0.01551   0.00000  Uiso   1.00
C533   C     0.89829   0.82202   0.48809   0.00000  Uiso   1.00
C534   C     0.90988   0.80827   0.43724   0.00000  Uiso   1.00
C535   C     0.87375   0.80580   0.41229   0.00000  Uiso   1.00
C536   C     0.83734   0.83337   0.06906   0.00000  Uiso   1.00
C537   C     0.92316   0.83988   0.06414   0.00000  Uiso   1.00
C538   C     0.79302   0.83053   0.40645   0.00000  Uiso   1.00
C539   C     0.87714   0.97863   0.24431   0.00000  Uiso   1.00
C540   C     0.80767   0.83112   0.34973   0.00000  Uiso   1.00
C541   C     0.87713   0.68789   0.24438   0.00000  Uiso   1.00
C542   C     0.83356   0.70941   0.24924   0.00000  Uiso   1.00
C543   C     0.79008   0.68799   0.25361   0.00000  Uiso   1.00
C544   C     0.79007   0.97875   0.25360   0.00000  Uiso   1.00
C545   C     0.83355   0.95723   0.24917   0.00000  Uiso   1.00
C546   C     0.96589   0.85687   0.28455   0.00000  Uiso   1.00
C547   C     0.68212   0.85683   0.28457   0.00000  Uiso   1.00
C548   C     0.70078   0.80984   0.21540   0.00000  Uiso   1.00
C549   C     0.98454   0.80985   0.21541   0.00000  Uiso   1.00
C550   C     0.83341   0.75404   0.24973   0.00000  Uiso   1.00
C551   C     0.85920   0.83489   0.15034   0.00000  Uiso   1.00
C552   C     0.93506   0.82800   0.01225   0.00000  Uiso   1.00
C553   C     0.87384   0.83653   0.09390   0.00000  Uiso   1.00
C554   C     0.74580   0.84414   0.43208   0.00000  Uiso   1.00
C555   C     0.73275   0.85256   0.48433   0.00000  Uiso   1.00
C556   C     0.76584   0.84726   0.01246   0.00000  Uiso   1.00
Cu557  Cu    0.78645   0.83333   0.25000   0.00000  Uiso   1.00
Cu558  Cu    0.88022   0.83334   0.25000   0.00000  Uiso   1.00
H559   H     0.75602   0.70405   0.25735   0.00000  Uiso   1.00
H560   H     0.75601   0.96277   0.25736   0.00000  Uiso   1.00
H561   H     0.93979   0.87576   0.31224   0.00000  Uiso   1.00
H562   H     0.69329   0.87570   0.31226   0.00000  Uiso   1.00
H563   H     0.72687   0.79093   0.18771   0.00000  Uiso   1.00
H564   H     0.97336   0.79100   0.18771   0.00000  Uiso   1.00
H565   H     0.94678   0.79890   0.41691   0.00000  Uiso   1.00
H566   H     0.97275   0.82414   0.49033   0.00000  Uiso   1.00
H567   H     0.79981   0.83203   0.09213   0.00000  Uiso   1.00
H568   H     0.71949   0.85074   0.41122   0.00000  Uiso   1.00
H569   H     0.75392   0.85710   0.05222   0.00000  Uiso   1.00
H570   H     0.69740   0.86538   0.00258   0.00000  Uiso   1.00
H571   H     0.88387   0.79125   0.37480   0.00000  Uiso   1.00
N572   N     0.71598   0.83332   0.24999   0.00000  Uiso   1.00
N573   N     0.95069   0.83335   0.25000   0.00000  Uiso   1.00
O574   O     0.79375   0.89345   0.25001   0.00000  Uiso   1.00
O575   O     0.87294   0.89346   0.25001   0.00000  Uiso   1.00
O576   O     0.77441   0.83332   0.32549   0.00000  Uiso   1.00
O577   O     0.85360   0.83333   0.32549   0.00000  Uiso   1.00
O578   O     0.79373   0.77321   0.25000   0.00000  Uiso   1.00
O579   O     0.87292   0.77322   0.25000   0.00000  Uiso   1.00
O580   O     0.81306   0.83334   0.17451   0.00000  Uiso   1.00
O581   O     0.89225   0.83335   0.17451   0.00000  Uiso   1.00
O582   O     0.96044   0.85115   0.08507   0.00000  Uiso   1.00
C583   C     0.95219   0.89116   0.10790   0.00000  Uiso   1.00
H584   H     0.96005   0.88978   0.14579   0.00000  Uiso   1.00
H585   H     0.91403   0.90270   0.11563   0.00000  Uiso   1.00
C586   C     0.98644   0.92281   0.07462   0.00000  Uiso   1.00
H587   H     0.69153   0.91376   0.07016   0.00000  Uiso   1.00
H588   H     0.98016   0.92401   0.03596   0.00000  Uiso   1.00
C589   C     0.97785   0.96562   0.09921   0.00000  Uiso   1.00
H590   H     0.93989   0.97598   0.10335   0.00000  Uiso   1.00
H591   H     0.67006   0.98786   0.07441   0.00000  Uiso   1.00
H592   H     0.98429   0.96535   0.13781   0.00000  Uiso   1.00
H593   H     0.91118   0.70388   0.24060   0.00000  Uiso   1.00
H594   H     0.91121   0.96255   0.24043   0.00000  Uiso   1.00
C595   C     0.16675   0.24595   0.74973   0.00000  Uiso   1.00
C596   C     0.14666   0.16555   0.98861   0.00000  Uiso   1.00
C597   C     0.16002   0.15572   0.93520   0.00000  Uiso   1.00
C598   C     0.18240   0.16286   0.51551   0.00000  Uiso   1.00
C599   C     0.23163   0.15535   0.98809   0.00000  Uiso   1.00
C600   C     0.24321   0.14161   0.93724   0.00000  Uiso   1.00
C601   C     0.20708   0.13913   0.91229   0.00000  Uiso   1.00
C602   C     0.17067   0.16671   0.56906   0.00000  Uiso   1.00
C603   C     0.25649   0.17322   0.56414   0.00000  Uiso   1.00
C604   C     0.12635   0.16386   0.90645   0.00000  Uiso   1.00
C605   C     0.21047   0.31196   0.74431   0.00000  Uiso   1.00
C606   C     0.14100   0.16445   0.84973   0.00000  Uiso   1.00
C607   C     0.21047   0.02123   0.74438   0.00000  Uiso   1.00
C608   C     0.16689   0.04274   0.74924   0.00000  Uiso   1.00
C609   C     0.12341   0.02133   0.75361   0.00000  Uiso   1.00
C610   C     0.12340   0.31208   0.75360   0.00000  Uiso   1.00
C611   C     0.16689   0.29057   0.74917   0.00000  Uiso   1.00
C612   C     0.29922   0.19020   0.78455   0.00000  Uiso   1.00
C613   C     0.01546   0.19016   0.78457   0.00000  Uiso   1.00
C614   C     0.03411   0.14317   0.71540   0.00000  Uiso   1.00
C615   C     0.31787   0.14319   0.71541   0.00000  Uiso   1.00
C616   C     0.16674   0.08737   0.74973   0.00000  Uiso   1.00
C617   C     0.19253   0.16823   0.65034   0.00000  Uiso   1.00
C618   C     0.26839   0.16134   0.51225   0.00000  Uiso   1.00
C619   C     0.20717   0.16987   0.59390   0.00000  Uiso   1.00
C620   C     0.07913   0.17748   0.93208   0.00000  Uiso   1.00
C621   C     0.06608   0.18589   0.98433   0.00000  Uiso   1.00
C622   C     0.09917   0.18059   0.51246   0.00000  Uiso   1.00
Cu623  Cu    0.11978   0.16666   0.75000   0.00000  Uiso   1.00
Cu624  Cu    0.21355   0.16667   0.75000   0.00000  Uiso   1.00
H625   H     0.08936   0.03739   0.75735   0.00000  Uiso   1.00
H626   H     0.08935   0.29610   0.75736   0.00000  Uiso   1.00
H627   H     0.27312   0.20910   0.81224   0.00000  Uiso   1.00
H628   H     0.02663   0.20903   0.81226   0.00000  Uiso   1.00
H629   H     0.06020   0.12426   0.68771   0.00000  Uiso   1.00
H630   H     0.30669   0.12433   0.68771   0.00000  Uiso   1.00
H631   H     0.28011   0.13224   0.91691   0.00000  Uiso   1.00
H632   H     0.30609   0.15747   0.99033   0.00000  Uiso   1.00
H633   H     0.13314   0.16537   0.59213   0.00000  Uiso   1.00
H634   H     0.05282   0.18407   0.91122   0.00000  Uiso   1.00
H635   H     0.08726   0.19043   0.55222   0.00000  Uiso   1.00
H636   H     0.03074   0.19871   0.50258   0.00000  Uiso   1.00
H637   H     0.21721   0.12459   0.87480   0.00000  Uiso   1.00
N638   N     0.04931   0.16666   0.74999   0.00000  Uiso   1.00
N639   N     0.28402   0.16669   0.75000   0.00000  Uiso   1.00
O640   O     0.12708   0.22678   0.75001   0.00000  Uiso   1.00
O641   O     0.20627   0.22679   0.75001   0.00000  Uiso   1.00
O642   O     0.10775   0.16665   0.82549   0.00000  Uiso   1.00
O643   O     0.18694   0.16666   0.82549   0.00000  Uiso   1.00
O644   O     0.12706   0.10654   0.75000   0.00000  Uiso   1.00
O645   O     0.20625   0.10655   0.75000   0.00000  Uiso   1.00
O646   O     0.14640   0.16667   0.67451   0.00000  Uiso   1.00
O647   O     0.22559   0.16668   0.67451   0.00000  Uiso   1.00
O648   O     0.29377   0.18448   0.58507   0.00000  Uiso   1.00
C649   C     0.28553   0.22450   0.60790   0.00000  Uiso   1.00
H650   H     0.29338   0.22311   0.64579   0.00000  Uiso   1.00
H651   H     0.24736   0.23603   0.61563   0.00000  Uiso   1.00
C652   C     0.31977   0.25614   0.57462   0.00000  Uiso   1.00
H653   H     0.02487   0.24710   0.57016   0.00000  Uiso   1.00
H654   H     0.31349   0.25734   0.53596   0.00000  Uiso   1.00
C655   C     0.31118   0.29896   0.59921   0.00000  Uiso   1.00
H656   H     0.27322   0.30932   0.60335   0.00000  Uiso   1.00
H657   H     0.00339   0.32120   0.57441   0.00000  Uiso   1.00
H658   H     0.31762   0.29868   0.63781   0.00000  Uiso   1.00
H659   H     0.24452   0.03722   0.74060   0.00000  Uiso   1.00
H660   H     0.24454   0.29588   0.74043   0.00000  Uiso   1.00
C661   C     0.50008   0.24595   0.74973   0.00000  Uiso   1.00
C662   C     0.48000   0.16555   0.98861   0.00000  Uiso   1.00
C663   C     0.49336   0.15572   0.93520   0.00000  Uiso   1.00
C664   C     0.51573   0.16286   0.51551   0.00000  Uiso   1.00
C665   C     0.56496   0.15535   0.98809   0.00000  Uiso   1.00
C666   C     0.57654   0.14161   0.93724   0.00000  Uiso   1.00
C667   C     0.54041   0.13913   0.91229   0.00000  Uiso   1.00
C668   C     0.50401   0.16671   0.56906   0.00000  Uiso   1.00
C669   C     0.58982   0.17322   0.56414   0.00000  Uiso   1.00
C670   C     0.45968   0.16386   0.90645   0.00000  Uiso   1.00
C671   C     0.54381   0.31196   0.74431   0.00000  Uiso   1.00
C672   C     0.47434   0.16445   0.84973   0.00000  Uiso   1.00
C673   C     0.54380   0.02123   0.74438   0.00000  Uiso   1.00
C674   C     0.50022   0.04274   0.74924   0.00000  Uiso   1.00
C675   C     0.45674   0.02133   0.75361   0.00000  Uiso   1.00
C676   C     0.45674   0.31208   0.75360   0.00000  Uiso   1.00
C677   C     0.50022   0.29057   0.74917   0.00000  Uiso   1.00
C678   C     0.63256   0.19020   0.78455   0.00000  Uiso   1.00
C679   C     0.34879   0.19016   0.78457   0.00000  Uiso   1.00
C680   C     0.36744   0.14317   0.71540   0.00000  Uiso   1.00
C681   C     0.65120   0.14319   0.71541   0.00000  Uiso   1.00
C682   C     0.50008   0.08737   0.74973   0.00000  Uiso   1.00
C683   C     0.52586   0.16823   0.65034   0.00000  Uiso   1.00
C684   C     0.60173   0.16134   0.51225   0.00000  Uiso   1.00
C685   C     0.54051   0.16987   0.59390   0.00000  Uiso   1.00
C686   C     0.41247   0.17748   0.93208   0.00000  Uiso   1.00
C687   C     0.39942   0.18589   0.98433   0.00000  Uiso   1.00
C688   C     0.43250   0.18059   0.51246   0.00000  Uiso   1.00
Cu689  Cu    0.45311   0.16666   0.75000   0.00000  Uiso   1.00
Cu690  Cu    0.54689   0.16667   0.75000   0.00000  Uiso   1.00
H691   H     0.42269   0.03739   0.75735   0.00000  Uiso   1.00
H692   H     0.42268   0.29610   0.75736   0.00000  Uiso   1.00
H693   H     0.60646   0.20910   0.81224   0.00000  Uiso   1.00
H694   H     0.35996   0.20903   0.81226   0.00000  Uiso   1.00
H695   H     0.39353   0.12426   0.68771   0.00000  Uiso   1.00
H696   H     0.64002   0.12433   0.68771   0.00000  Uiso   1.00
H697   H     0.61344   0.13224   0.91691   0.00000  Uiso   1.00
H698   H     0.63942   0.15747   0.99033   0.00000  Uiso   1.00
H699   H     0.46648   0.16537   0.59213   0.00000  Uiso   1.00
H700   H     0.38615   0.18407   0.91122   0.00000  Uiso   1.00
H701   H     0.42059   0.19043   0.55222   0.00000  Uiso   1.00
H702   H     0.36407   0.19871   0.50258   0.00000  Uiso   1.00
H703   H     0.55054   0.12459   0.87480   0.00000  Uiso   1.00
N704   N     0.38265   0.16666   0.74999   0.00000  Uiso   1.00
N705   N     0.61735   0.16669   0.75000   0.00000  Uiso   1.00
O706   O     0.46042   0.22678   0.75001   0.00000  Uiso   1.00
O707   O     0.53961   0.22679   0.75001   0.00000  Uiso   1.00
O708   O     0.44108   0.16665   0.82549   0.00000  Uiso   1.00
O709   O     0.52027   0.16666   0.82549   0.00000  Uiso   1.00
O710   O     0.46039   0.10654   0.75000   0.00000  Uiso   1.00
O711   O     0.53958   0.10655   0.75000   0.00000  Uiso   1.00
O712   O     0.47973   0.16667   0.67451   0.00000  Uiso   1.00
O713   O     0.55892   0.16668   0.67451   0.00000  Uiso   1.00
O714   O     0.62710   0.18448   0.58507   0.00000  Uiso   1.00
C715   C     0.61886   0.22450   0.60790   0.00000  Uiso   1.00
H716   H     0.62671   0.22311   0.64579   0.00000  Uiso   1.00
H717   H     0.58070   0.23603   0.61563   0.00000  Uiso   1.00
C718   C     0.65311   0.25614   0.57462   0.00000  Uiso   1.00
H719   H     0.35820   0.24710   0.57016   0.00000  Uiso   1.00
H720   H     0.64683   0.25734   0.53596   0.00000  Uiso   1.00
C721   C     0.64451   0.29896   0.59921   0.00000  Uiso   1.00
H722   H     0.60655   0.30932   0.60335   0.00000  Uiso   1.00
H723   H     0.33673   0.32120   0.57441   0.00000  Uiso   1.00
H724   H     0.65096   0.29868   0.63781   0.00000  Uiso   1.00
H725   H     0.57785   0.03722   0.74060   0.00000  Uiso   1.00
H726   H     0.57787   0.29588   0.74043   0.00000  Uiso   1.00
C727   C     0.83341   0.24595   0.74973   0.00000  Uiso   1.00
C728   C     0.81333   0.16555   0.98861   0.00000  Uiso   1.00
C729   C     0.82669   0.15572   0.93520   0.00000  Uiso   1.00
C730   C     0.84906   0.16286   0.51551   0.00000  Uiso   1.00
C731   C     0.89829   0.15535   0.98809   0.00000  Uiso   1.00
C732   C     0.90988   0.14161   0.93724   0.00000  Uiso   1.00
C733   C     0.87375   0.13913   0.91229   0.00000  Uiso   1.00
C734   C     0.83734   0.16671   0.56906   0.00000  Uiso   1.00
C735   C     0.92316   0.17322   0.56414   0.00000  Uiso   1.00
C736   C     0.79302   0.16386   0.90645   0.00000  Uiso   1.00
C737   C     0.87714   0.31196   0.74431   0.00000  Uiso   1.00
C738   C     0.80767   0.16445   0.84973   0.00000  Uiso   1.00
C739   C     0.87713   0.02123   0.74438   0.00000  Uiso   1.00
C740   C     0.83356   0.04274   0.74924   0.00000  Uiso   1.00
C741   C     0.79008   0.02133   0.75361   0.00000  Uiso   1.00
C742   C     0.79007   0.31208   0.75360   0.00000  Uiso   1.00
C743   C     0.83355   0.29057   0.74917   0.00000  Uiso   1.00
C744   C     0.96589   0.19020   0.78455   0.00000  Uiso   1.00
C745   C     0.68212   0.19016   0.78457   0.00000  Uiso   1.00
C746   C     0.70078   0.14317   0.71540   0.00000  Uiso   1.00
C747   C     0.98454   0.14319   0.71541   0.00000  Uiso   1.00
C748   C     0.83341   0.08737   0.74973   0.00000  Uiso   1.00
C749   C     0.85920   0.16823   0.65034   0.00000  Uiso   1.00
C750   C     0.93506   0.16134   0.51225   0.00000  Uiso   1.00
C751   C     0.87384   0.16987   0.59390   0.00000  Uiso   1.00
C752   C     0.74580   0.17748   0.93208   0.00000  Uiso   1.00
C753   C     0.73275   0.18589   0.98433   0.00000  Uiso   1.00
C754   C     0.76584   0.18059   0.51246   0.00000  Uiso   1.00
Cu755  Cu    0.78645   0.16666   0.75000   0.00000  Uiso   1.00
Cu756  Cu    0.88022   0.16667   0.75000   0.00000  Uiso   1.00
H757   H     0.75602   0.03739   0.75735   0.00000  Uiso   1.00
H758   H     0.75601   0.29610   0.75736   0.00000  Uiso   1.00
H759   H     0.93979   0.20910   0.81224   0.00000  Uiso   1.00
H760   H     0.69329   0.20903   0.81226   0.00000  Uiso   1.00
H761   H     0.72687   0.12426   0.68771   0.00000  Uiso   1.00
H762   H     0.97336   0.12433   0.68771   0.00000  Uiso   1.00
H763   H     0.94678   0.13224   0.91691   0.00000  Uiso   1.00
H764   H     0.97275   0.15747   0.99033   0.00000  Uiso   1.00
H765   H     0.79981   0.16537   0.59213   0.00000  Uiso   1.00
H766   H     0.71949   0.18407   0.91122   0.00000  Uiso   1.00
H767   H     0.75392   0.19043   0.55222   0.00000  Uiso   1.00
H768   H     0.69740   0.19871   0.50258   0.00000  Uiso   1.00
H769   H     0.88387   0.12459   0.87480   0.00000  Uiso   1.00
N770   N     0.71598   0.16666   0.74999   0.00000  Uiso   1.00
N771   N     0.95069   0.16669   0.75000   0.00000  Uiso   1.00
O772   O     0.79375   0.22678   0.75001   0.00000  Uiso   1.00
O773   O     0.87294   0.22679   0.75001   0.00000  Uiso   1.00
O774   O     0.77441   0.16665   0.82549   0.00000  Uiso   1.00
O775   O     0.85360   0.16666   0.82549   0.00000  Uiso   1.00
O776   O     0.79373   0.10654   0.75000   0.00000  Uiso   1.00
O777   O     0.87292   0.10655   0.75000   0.00000  Uiso   1.00
O778   O     0.81306   0.16667   0.67451   0.00000  Uiso   1.00
O779   O     0.89225   0.16668   0.67451   0.00000  Uiso   1.00
O780   O     0.96044   0.18448   0.58507   0.00000  Uiso   1.00
C781   C     0.95219   0.22450   0.60790   0.00000  Uiso   1.00
H782   H     0.96005   0.22311   0.64579   0.00000  Uiso   1.00
H783   H     0.91403   0.23603   0.61563   0.00000  Uiso   1.00
C784   C     0.98644   0.25614   0.57462   0.00000  Uiso   1.00
H785   H     0.69153   0.24710   0.57016   0.00000  Uiso   1.00
H786   H     0.98016   0.25734   0.53596   0.00000  Uiso   1.00
C787   C     0.97785   0.29896   0.59921   0.00000  Uiso   1.00
H788   H     0.93989   0.30932   0.60335   0.00000  Uiso   1.00
H789   H     0.67006   0.32120   0.57441   0.00000  Uiso   1.00
H790   H     0.98429   0.29868   0.63781   0.00000  Uiso   1.00
H791   H     0.91118   0.03722   0.74060   0.00000  Uiso   1.00
H792   H     0.91121   0.29588   0.74043   0.00000  Uiso   1.00
C793   C     0.16675   0.57928   0.74973   0.00000  Uiso   1.00
C794   C     0.14666   0.49888   0.98861   0.00000  Uiso   1.00
C795   C     0.16002   0.48905   0.93520   0.00000  Uiso   1.00
C796   C     0.18240   0.49619   0.51551   0.00000  Uiso   1.00
C797   C     0.23163   0.48868   0.98809   0.00000  Uiso   1.00
C798   C     0.24321   0.47494   0.93724   0.00000  Uiso   1.00
C799   C     0.20708   0.47247   0.91229   0.00000  Uiso   1.00
C800   C     0.17067   0.50004   0.56906   0.00000  Uiso   1.00
C801   C     0.25649   0.50655   0.56414   0.00000  Uiso   1.00
C802   C     0.12635   0.49719   0.90645   0.00000  Uiso   1.00
C803   C     0.21047   0.64529   0.74431   0.00000  Uiso   1.00
C804   C     0.14100   0.49778   0.84973   0.00000  Uiso   1.00
C805   C     0.21047   0.35456   0.74438   0.00000  Uiso   1.00
C806   C     0.16689   0.37607   0.74924   0.00000  Uiso   1.00
C807   C     0.12341   0.35466   0.75361   0.00000  Uiso   1.00
C808   C     0.12340   0.64541   0.75360   0.00000  Uiso   1.00
C809   C     0.16689   0.62390   0.74917   0.00000  Uiso   1.00
C810   C     0.29922   0.52354   0.78455   0.00000  Uiso   1.00
C811   C     0.01546   0.52350   0.78457   0.00000  Uiso   1.00
C812   C     0.03411   0.47650   0.71540   0.00000  Uiso   1.00
C813   C     0.31787   0.47652   0.71541   0.00000  Uiso   1.00
C814   C     0.16674   0.42071   0.74973   0.00000  Uiso   1.00
C815   C     0.19253   0.50156   0.65034   0.00000  Uiso   1.00
C816   C     0.26839   0.49467   0.51225   0.00000  Uiso   1.00
C817   C     0.20717   0.50320   0.59390   0.00000  Uiso   1.00
C818   C     0.07913   0.51081   0.93208   0.00000  Uiso   1.00
C819   C     0.06608   0.51923   0.98433   0.00000  Uiso   1.00
C820   C     0.09917   0.51393   0.51246   0.00000  Uiso   1.00
Cu821  Cu    0.11978   0.49999   0.75000   0.00000  Uiso   1.00
Cu822  Cu    0.21355   0.50001   0.75000   0.00000  Uiso   1.00
H823   H     0.08936   0.37072   0.75735   0.00000  Uiso   1.00
H824   H     0.08935   0.62943   0.75736   0.00000  Uiso   1.00
H825   H     0.27312   0.54243   0.81224   0.00000  Uiso   1.00
H826   H     0.02663   0.54236   0.81226   0.00000  Uiso   1.00
H827   H     0.06020   0.45760   0.68771   0.00000  Uiso   1.00
H828   H     0.30669   0.45767   0.68771   0.00000  Uiso   1.00
H829   H     0.28011   0.46557   0.91691   0.00000  Uiso   1.00
H830   H     0.30609   0.49080   0.99033   0.00000  Uiso   1.00
H831   H     0.13314   0.49870   0.59213   0.00000  Uiso   1.00
H832   H     0.05282   0.51740   0.91122   0.00000  Uiso   1.00
H833   H     0.08726   0.52376   0.55222   0.00000  Uiso   1.00
H834   H     0.03074   0.53205   0.50258   0.00000  Uiso   1.00
H835   H     0.21721   0.45792   0.87480   0.00000  Uiso   1.00
N836   N     0.04931   0.49999   0.74999   0.00000  Uiso   1.00
N837   N     0.28402   0.50002   0.75000   0.00000  Uiso   1.00
O838   O     0.12708   0.56011   0.75001   0.00000  Uiso   1.00
O839   O     0.20627   0.56012   0.75001   0.00000  Uiso   1.00
O840   O     0.10775   0.49998   0.82549   0.00000  Uiso   1.00
O841   O     0.18694   0.49999   0.82549   0.00000  Uiso   1.00
O842   O     0.12706   0.43988   0.75000   0.00000  Uiso   1.00
O843   O     0.20625   0.43989   0.75000   0.00000  Uiso   1.00
O844   O     0.14640   0.50001   0.67451   0.00000  Uiso   1.00
O845   O     0.22559   0.50002   0.67451   0.00000  Uiso   1.00
O846   O     0.29377   0.51782   0.58507   0.00000  Uiso   1.00
C847   C     0.28553   0.55783   0.60790   0.00000  Uiso   1.00
H848   H     0.29338   0.55645   0.64579   0.00000  Uiso   1.00
H849   H     0.24736   0.56937   0.61563   0.00000  Uiso   1.00
C850   C     0.31977   0.58947   0.57462   0.00000  Uiso   1.00
H851   H     0.02487   0.58043   0.57016   0.00000  Uiso   1.00
H852   H     0.31349   0.59067   0.53596   0.00000  Uiso   1.00
C853   C     0.31118   0.63229   0.59921   0.00000  Uiso   1.00
H854   H     0.27322   0.64265   0.60335   0.00000  Uiso   1.00
H855   H     0.00339   0.65453   0.57441   0.00000  Uiso   1.00
H856   H     0.31762   0.63202   0.63781   0.00000  Uiso   1.00
H857   H     0.24452   0.37055   0.74060   0.00000  Uiso   1.00
H858   H     0.24454   0.62921   0.74043   0.00000  Uiso   1.00
C859   C     0.50008   0.57928   0.74973   0.00000  Uiso   1.00
C860   C     0.48000   0.49888   0.98861   0.00000  Uiso   1.00
C861   C     0.49336   0.48905   0.93520   0.00000  Uiso   1.00
C862   C     0.51573   0.49619   0.51551   0.00000  Uiso   1.00
C863   C     0.56496   0.48868   0.98809   0.00000  Uiso   1.00
C864   C     0.57654   0.47494   0.93724   0.00000  Uiso   1.00
C865   C     0.54041   0.47247   0.91229   0.00000  Uiso   1.00
C866   C     0.50401   0.50004   0.56906   0.00000  Uiso   1.00
C867   C     0.58982   0.50655   0.56414   0.00000  Uiso   1.00
C868   C     0.45968   0.49719   0.90645   0.00000  Uiso   1.00
C869   C     0.54381   0.64529   0.74431   0.00000  Uiso   1.00
C870   C     0.47434   0.49778   0.84973   0.00000  Uiso   1.00
C871   C     0.54380   0.35456   0.74438   0.00000  Uiso   1.00
C872   C     0.50022   0.37607   0.74924   0.00000  Uiso   1.00
C873   C     0.45674   0.35466   0.75361   0.00000  Uiso   1.00
C874   C     0.45674   0.64541   0.75360   0.00000  Uiso   1.00
C875   C     0.50022   0.62390   0.74917   0.00000  Uiso   1.00
C876   C     0.63256   0.52354   0.78455   0.00000  Uiso   1.00
C877   C     0.34879   0.52350   0.78457   0.00000  Uiso   1.00
C878   C     0.36744   0.47650   0.71540   0.00000  Uiso   1.00
C879   C     0.65120   0.47652   0.71541   0.00000  Uiso   1.00
C880   C     0.50008   0.42071   0.74973   0.00000  Uiso   1.00
C881   C     0.52586   0.50156   0.65034   0.00000  Uiso   1.00
C882   C     0.60173   0.49467   0.51225   0.00000  Uiso   1.00
C883   C     0.54051   0.50320   0.59390   0.00000  Uiso   1.00
C884   C     0.41247   0.51081   0.93208   0.00000  Uiso   1.00
C885   C     0.39942   0.51923   0.98433   0.00000  Uiso   1.00
C886   C     0.43250   0.51393   0.51246   0.00000  Uiso   1.00
Cu887  Cu    0.45311   0.49999   0.75000   0.00000  Uiso   1.00
Cu888  Cu    0.54689   0.50001   0.75000   0.00000  Uiso   1.00
H889   H     0.42269   0.37072   0.75735   0.00000  Uiso   1.00
H890   H     0.42268   0.62943   0.75736   0.00000  Uiso   1.00
H891   H     0.60646   0.54243   0.81224   0.00000  Uiso   1.00
H892   H     0.35996   0.54236   0.81226   0.00000  Uiso   1.00
H893   H     0.39353   0.45760   0.68771   0.00000  Uiso   1.00
H894   H     0.64002   0.45767   0.68771   0.00000  Uiso   1.00
H895   H     0.61344   0.46557   0.91691   0.00000  Uiso   1.00
H896   H     0.63942   0.49080   0.99033   0.00000  Uiso   1.00
H897   H     0.46648   0.49870   0.59213   0.00000  Uiso   1.00
H898   H     0.38615   0.51740   0.91122   0.00000  Uiso   1.00
H899   H     0.42059   0.52376   0.55222   0.00000  Uiso   1.00
H900   H     0.36407   0.53205   0.50258   0.00000  Uiso   1.00
H901   H     0.55054   0.45792   0.87480   0.00000  Uiso   1.00
N902   N     0.38265   0.49999   0.74999   0.00000  Uiso   1.00
N903   N     0.61735   0.50002   0.75000   0.00000  Uiso   1.00
O904   O     0.46042   0.56011   0.75001   0.00000  Uiso   1.00
O905   O     0.53961   0.56012   0.75001   0.00000  Uiso   1.00
O906   O     0.44108   0.49998   0.82549   0.00000  Uiso   1.00
O907   O     0.52027   0.49999   0.82549   0.00000  Uiso   1.00
O908   O     0.46039   0.43988   0.75000   0.00000  Uiso   1.00
O909   O     0.53958   0.43989   0.75000   0.00000  Uiso   1.00
O910   O     0.47973   0.50001   0.67451   0.00000  Uiso   1.00
O911   O     0.55892   0.50002   0.67451   0.00000  Uiso   1.00
O912   O     0.62710   0.51782   0.58507   0.00000  Uiso   1.00
C913   C     0.61886   0.55783   0.60790   0.00000  Uiso   1.00
H914   H     0.62671   0.55645   0.64579   0.00000  Uiso   1.00
H915   H     0.58070   0.56937   0.61563   0.00000  Uiso   1.00
C916   C     0.65311   0.58947   0.57462   0.00000  Uiso   1.00
H917   H     0.35820   0.58043   0.57016   0.00000  Uiso   1.00
H918   H     0.64683   0.59067   0.53596   0.00000  Uiso   1.00
C919   C     0.64451   0.63229   0.59921   0.00000  Uiso   1.00
H920   H     0.60655   0.64265   0.60335   0.00000  Uiso   1.00
H921   H     0.33673   0.65453   0.57441   0.00000  Uiso   1.00
H922   H     0.65096   0.63202   0.63781   0.00000  Uiso   1.00
H923   H     0.57785   0.37055   0.74060   0.00000  Uiso   1.00
H924   H     0.57787   0.62921   0.74043   0.00000  Uiso   1.00
C925   C     0.83341   0.57928   0.74973   0.00000  Uiso   1.00
C926   C     0.81333   0.49888   0.98861   0.00000  Uiso   1.00
C927   C     0.82669   0.48905   0.93520   0.00000  Uiso   1.00
C928   C     0.84906   0.49619   0.51551   0.00000  Uiso   1.00
C929   C     0.89829   0.48868   0.98809   0.00000  Uiso   1.00
C930   C     0.90988   0.47494   0.93724   0.00000  Uiso   1.00
C931   C     0.87375   0.47247   0.91229   0.00000  Uiso   1.00
C932   C     0.83734   0.50004   0.56906   0.00000  Uiso   1.00
C933   C     0.92316   0.50655   0.56414   0.00000  Uiso   1.00
C934   C     0.79302   0.49719   0.90645   0.00000  Uiso   1.00
C935   C     0.87714   0.64529   0.74431   0.00000  Uiso   1.00
C936   C     0.80767   0.49778   0.84973   0.00000  Uiso   1.00
C937   C     0.87713   0.35456   0.74438   0.00000  Uiso   1.00
C938   C     0.83356   0.37607   0.74924   0.00000  Uiso   1.00
C939   C     0.79008   0.35466   0.75361   0.00000  Uiso   1.00
C940   C     0.79007   0.64541   0.75360   0.00000  Uiso   1.00
C941   C     0.83355   0.62390   0.74917   0.00000  Uiso   1.00
C942   C     0.96589   0.52354   0.78455   0.00000  Uiso   1.00
C943   C     0.68212   0.52350   0.78457   0.00000  Uiso   1.00
C944   C     0.70078   0.47650   0.71540   0.00000  Uiso   1.00
C945   C     0.98454   0.47652   0.71541   0.00000  Uiso   1.00
C946   C     0.83341   0.42071   0.74973   0.00000  Uiso   1.00
C947   C     0.85920   0.50156   0.65034   0.00000  Uiso   1.00
C948   C     0.93506   0.49467   0.51225   0.00000  Uiso   1.00
C949   C     0.87384   0.50320   0.59390   0.00000  Uiso   1.00
C950   C     0.74580   0.51081   0.93208   0.00000  Uiso   1.00
C951   C     0.73275   0.51923   0.98433   0.00000  Uiso   1.00
C952   C     0.76584   0.51393   0.51246   0.00000  Uiso   1.00
Cu953  Cu    0.78645   0.49999   0.75000   0.00000  Uiso   1.00
Cu954  Cu    0.88022   0.50001   0.75000   0.00000  Uiso   1.00
H955   H     0.75602   0.37072   0.75735   0.00000  Uiso   1.00
H956   H     0.75601   0.62943   0.75736   0.00000  Uiso   1.00
H957   H     0.93979   0.54243   0.81224   0.00000  Uiso   1.00
H958   H     0.69329   0.54236   0.81226   0.00000  Uiso   1.00
H959   H     0.72687   0.45760   0.68771   0.00000  Uiso   1.00
H960   H     0.97336   0.45767   0.68771   0.00000  Uiso   1.00
H961   H     0.94678   0.46557   0.91691   0.00000  Uiso   1.00
H962   H     0.97275   0.49080   0.99033   0.00000  Uiso   1.00
H963   H     0.79981   0.49870   0.59213   0.00000  Uiso   1.00
H964   H     0.71949   0.51740   0.91122   0.00000  Uiso   1.00
H965   H     0.75392   0.52376   0.55222   0.00000  Uiso   1.00
H966   H     0.69740   0.53205   0.50258   0.00000  Uiso   1.00
H967   H     0.88387   0.45792   0.87480   0.00000  Uiso   1.00
N968   N     0.71598   0.49999   0.74999   0.00000  Uiso   1.00
N969   N     0.95069   0.50002   0.75000   0.00000  Uiso   1.00
O970   O     0.79375   0.56011   0.75001   0.00000  Uiso   1.00
O971   O     0.87294   0.56012   0.75001   0.00000  Uiso   1.00
O972   O     0.77441   0.49998   0.82549   0.00000  Uiso   1.00
O973   O     0.85360   0.49999   0.82549   0.00000  Uiso   1.00
O974   O     0.79373   0.43988   0.75000   0.00000  Uiso   1.00
O975   O     0.87292   0.43989   0.75000   0.00000  Uiso   1.00
O976   O     0.81306   0.50001   0.67451   0.00000  Uiso   1.00
O977   O     0.89225   0.50002   0.67451   0.00000  Uiso   1.00
O978   O     0.96044   0.51782   0.58507   0.00000  Uiso   1.00
C979   C     0.95219   0.55783   0.60790   0.00000  Uiso   1.00
H980   H     0.96005   0.55645   0.64579   0.00000  Uiso   1.00
H981   H     0.91403   0.56937   0.61563   0.00000  Uiso   1.00
C982   C     0.98644   0.58947   0.57462   0.00000  Uiso   1.00
H983   H     0.69153   0.58043   0.57016   0.00000  Uiso   1.00
H984   H     0.98016   0.59067   0.53596   0.00000  Uiso   1.00
C985   C     0.97785   0.63229   0.59921   0.00000  Uiso   1.00
H986   H     0.93989   0.64265   0.60335   0.00000  Uiso   1.00
H987   H     0.67006   0.65453   0.57441   0.00000  Uiso   1.00
H988   H     0.98429   0.63202   0.63781   0.00000  Uiso   1.00
H989   H     0.91118   0.37055   0.74060   0.00000  Uiso   1.00
H990   H     0.91121   0.62921   0.74043   0.00000  Uiso   1.00
C991   C     0.16675   0.91262   0.74973   0.00000  Uiso   1.00
C992   C     0.14666   0.83222   0.98861   0.00000  Uiso   1.00
C993   C     0.16002   0.82238   0.93520   0.00000  Uiso   1.00
C994   C     0.18240   0.82953   0.51551   0.00000  Uiso   1.00
C995   C     0.23163   0.82202   0.98809   0.00000  Uiso   1.00
C996   C     0.24321   0.80827   0.93724   0.00000  Uiso   1.00
C997   C     0.20708   0.80580   0.91229   0.00000  Uiso   1.00
C998   C     0.17067   0.83337   0.56906   0.00000  Uiso   1.00
C999   C     0.25649   0.83988   0.56414   0.00000  Uiso   1.00
C1000  C     0.12635   0.83053   0.90645   0.00000  Uiso   1.00
C1001  C     0.21047   0.97863   0.74431   0.00000  Uiso   1.00
C1002  C     0.14100   0.83112   0.84973   0.00000  Uiso   1.00
C1003  C     0.21047   0.68789   0.74438   0.00000  Uiso   1.00
C1004  C     0.16689   0.70941   0.74924   0.00000  Uiso   1.00
C1005  C     0.12341   0.68799   0.75361   0.00000  Uiso   1.00
C1006  C     0.12340   0.97875   0.75360   0.00000  Uiso   1.00
C1007  C     0.16689   0.95723   0.74917   0.00000  Uiso   1.00
C1008  C     0.29922   0.85687   0.78455   0.00000  Uiso   1.00
C1009  C     0.01546   0.85683   0.78457   0.00000  Uiso   1.00
C1010  C     0.03411   0.80984   0.71540   0.00000  Uiso   1.00
C1011  C     0.31787   0.80985   0.71541   0.00000  Uiso   1.00
C1012  C     0.16674   0.75404   0.74973   0.00000  Uiso   1.00
C1013  C     0.19253   0.83489   0.65034   0.00000  Uiso   1.00
C1014  C     0.26839   0.82800   0.51225   0.00000  Uiso   1.00
C1015  C     0.20717   0.83653   0.59390   0.00000  Uiso   1.00
C1016  C     0.07913   0.84414   0.93208   0.00000  Uiso   1.00
C1017  C     0.06608   0.85256   0.98433   0.00000  Uiso   1.00
C1018  C     0.09917   0.84726   0.51246   0.00000  Uiso   1.00
Cu1019 Cu    0.11978   0.83333   0.75000   0.00000  Uiso   1.00
Cu1020 Cu    0.21355   0.83334   0.75000   0.00000  Uiso   1.00
H1021  H     0.08936   0.70405   0.75735   0.00000  Uiso   1.00
H1022  H     0.08935   0.96277   0.75736   0.00000  Uiso   1.00
H1023  H     0.27312   0.87576   0.81224   0.00000  Uiso   1.00
H1024  H     0.02663   0.87570   0.81226   0.00000  Uiso   1.00
H1025  H     0.06020   0.79093   0.68771   0.00000  Uiso   1.00
H1026  H     0.30669   0.79100   0.68771   0.00000  Uiso   1.00
H1027  H     0.28011   0.79890   0.91691   0.00000  Uiso   1.00
H1028  H     0.30609   0.82414   0.99033   0.00000  Uiso   1.00
H1029  H     0.13314   0.83203   0.59213   0.00000  Uiso   1.00
H1030  H     0.05282   0.85074   0.91122   0.00000  Uiso   1.00
H1031  H     0.08726   0.85710   0.55222   0.00000  Uiso   1.00
H1032  H     0.03074   0.86538   0.50258   0.00000  Uiso   1.00
H1033  H     0.21721   0.79125   0.87480   0.00000  Uiso   1.00
N1034  N     0.04931   0.83332   0.74999   0.00000  Uiso   1.00
N1035  N     0.28402   0.83335   0.75000   0.00000  Uiso   1.00
O1036  O     0.12708   0.89345   0.75001   0.00000  Uiso   1.00
O1037  O     0.20627   0.89346   0.75001   0.00000  Uiso   1.00
O1038  O     0.10775   0.83332   0.82549   0.00000  Uiso   1.00
O1039  O     0.18694   0.83333   0.82549   0.00000  Uiso   1.00
O1040  O     0.12706   0.77321   0.75000   0.00000  Uiso   1.00
O1041  O     0.20625   0.77322   0.75000   0.00000  Uiso   1.00
O1042  O     0.14640   0.83334   0.67451   0.00000  Uiso   1.00
O1043  O     0.22559   0.83335   0.67451   0.00000  Uiso   1.00
O1044  O     0.29377   0.85115   0.58507   0.00000  Uiso   1.00
C1045  C     0.28553   0.89116   0.60790   0.00000  Uiso   1.00
H1046  H     0.29338   0.88978   0.64579   0.00000  Uiso   1.00
H1047  H     0.24736   0.90270   0.61563   0.00000  Uiso   1.00
C1048  C     0.31977   0.92281   0.57462   0.00000  Uiso   1.00
H1049  H     0.02487   0.91376   0.57016   0.00000  Uiso   1.00
H1050  H     0.31349   0.92401   0.53596   0.00000  Uiso   1.00
C1051  C     0.31118   0.96562   0.59921   0.00000  Uiso   1.00
H1052  H     0.27322   0.97598   0.60335   0.00000  Uiso   1.00
H1053  H     0.00339   0.98786   0.57441   0.00000  Uiso   1.00
H1054  H     0.31762   0.96535   0.63781   0.00000  Uiso   1.00
H1055  H     0.24452   0.70388   0.74060   0.00000  Uiso   1.00
H1056  H     0.24454   0.96255   0.74043   0.00000  Uiso   1.00
C1057  C     0.50008   0.91262   0.74973   0.00000  Uiso   1.00
C1058  C     0.48000   0.83222   0.98861   0.00000  Uiso   1.00
C1059  C     0.49336   0.82238   0.93520   0.00000  Uiso   1.00
C1060  C     0.51573   0.82953   0.51551   0.00000  Uiso   1.00
C1061  C     0.56496   0.82202   0.98809   0.00000  Uiso   1.00
C1062  C     0.57654   0.80827   0.93724   0.00000  Uiso   1.00
C1063  C     0.54041   0.80580   0.91229   0.00000  Uiso   1.00
C1064  C     0.50401   0.83337   0.56906   0.00000  Uiso   1.00
C1065  C     0.58982   0.83988   0.56414   0.00000  Uiso   1.00
C1066  C     0.45968   0.83053   0.90645   0.00000  Uiso   1.00
C1067  C     0.54381   0.97863   0.74431   0.00000  Uiso   1.00
C1068  C     0.47434   0.83112   0.84973   0.00000  Uiso   1.00
C1069  C     0.54380   0.68789   0.74438   0.00000  Uiso   1.00
C1070  C     0.50022   0.70941   0.74924   0.00000  Uiso   1.00
C1071  C     0.45674   0.68799   0.75361   0.00000  Uiso   1.00
C1072  C     0.45674   0.97875   0.75360   0.00000  Uiso   1.00
C1073  C     0.50022   0.95723   0.74917   0.00000  Uiso   1.00
C1074  C     0.63256   0.85687   0.78455   0.00000  Uiso   1.00
C1075  C     0.34879   0.85683   0.78457   0.00000  Uiso   1.00
C1076  C     0.36744   0.80984   0.71540   0.00000  Uiso   1.00
C1077  C     0.65120   0.80985   0.71541   0.00000  Uiso   1.00
C1078  C     0.50008   0.75404   0.74973   0.00000  Uiso   1.00
C1079  C     0.52586   0.83489   0.65034   0.00000  Uiso   1.00
C1080  C     0.60173   0.82800   0.51225   0.00000  Uiso   1.00
C1081  C     0.54051   0.83653   0.59390   0.00000  Uiso   1.00
C1082  C     0.41247   0.84414   0.93208   0.00000  Uiso   1.00
C1083  C     0.39942   0.85256   0.98433   0.00000  Uiso   1.00
C1084  C     0.43250   0.84726   0.51246   0.00000  Uiso   1.00
Cu1085 Cu    0.45311   0.83333   0.75000   0.00000  Uiso   1.00
Cu1086 Cu    0.54689   0.83334   0.75000   0.00000  Uiso   1.00
H1087  H     0.42269   0.70405   0.75735   0.00000  Uiso   1.00
H1088  H     0.42268   0.96277   0.75736   0.00000  Uiso   1.00
H1089  H     0.60646   0.87576   0.81224   0.00000  Uiso   1.00
H1090  H     0.35996   0.87570   0.81226   0.00000  Uiso   1.00
H1091  H     0.39353   0.79093   0.68771   0.00000  Uiso   1.00
H1092  H     0.64002   0.79100   0.68771   0.00000  Uiso   1.00
H1093  H     0.61344   0.79890   0.91691   0.00000  Uiso   1.00
H1094  H     0.63942   0.82414   0.99033   0.00000  Uiso   1.00
H1095  H     0.46648   0.83203   0.59213   0.00000  Uiso   1.00
H1096  H     0.38615   0.85074   0.91122   0.00000  Uiso   1.00
H1097  H     0.42059   0.85710   0.55222   0.00000  Uiso   1.00
H1098  H     0.36407   0.86538   0.50258   0.00000  Uiso   1.00
H1099  H     0.55054   0.79125   0.87480   0.00000  Uiso   1.00
N1100  N     0.38265   0.83332   0.74999   0.00000  Uiso   1.00
N1101  N     0.61735   0.83335   0.75000   0.00000  Uiso   1.00
O1102  O     0.46042   0.89345   0.75001   0.00000  Uiso   1.00
O1103  O     0.53961   0.89346   0.75001   0.00000  Uiso   1.00
O1104  O     0.44108   0.83332   0.82549   0.00000  Uiso   1.00
O1105  O     0.52027   0.83333   0.82549   0.00000  Uiso   1.00
O1106  O     0.46039   0.77321   0.75000   0.00000  Uiso   1.00
O1107  O     0.53958   0.77322   0.75000   0.00000  Uiso   1.00
O1108  O     0.47973   0.83334   0.67451   0.00000  Uiso   1.00
O1109  O     0.55892   0.83335   0.67451   0.00000  Uiso   1.00
O1110  O     0.62710   0.85115   0.58507   0.00000  Uiso   1.00
C1111  C     0.61886   0.89116   0.60790   0.00000  Uiso   1.00
H1112  H     0.62671   0.88978   0.64579   0.00000  Uiso   1.00
H1113  H     0.58070   0.90270   0.61563   0.00000  Uiso   1.00
C1114  C     0.65311   0.92281   0.57462   0.00000  Uiso   1.00
H1115  H     0.35820   0.91376   0.57016   0.00000  Uiso   1.00
H1116  H     0.64683   0.92401   0.53596   0.00000  Uiso   1.00
C1117  C     0.64451   0.96562   0.59921   0.00000  Uiso   1.00
H1118  H     0.60655   0.97598   0.60335   0.00000  Uiso   1.00
H1119  H     0.33673   0.98786   0.57441   0.00000  Uiso   1.00
H1120  H     0.65096   0.96535   0.63781   0.00000  Uiso   1.00
H1121  H     0.57785   0.70388   0.74060   0.00000  Uiso   1.00
H1122  H     0.57787   0.96255   0.74043   0.00000  Uiso   1.00
C1123  C     0.83341   0.91262   0.74973   0.00000  Uiso   1.00
C1124  C     0.81333   0.83222   0.98861   0.00000  Uiso   1.00
C1125  C     0.82669   0.82238   0.93520   0.00000  Uiso   1.00
C1126  C     0.84906   0.82953   0.51551   0.00000  Uiso   1.00
C1127  C     0.89829   0.82202   0.98809   0.00000  Uiso   1.00
C1128  C     0.90988   0.80827   0.93724   0.00000  Uiso   1.00
C1129  C     0.87375   0.80580   0.91229   0.00000  Uiso   1.00
C1130  C     0.83734   0.83337   0.56906   0.00000  Uiso   1.00
C1131  C     0.92316   0.83988   0.56414   0.00000  Uiso   1.00
C1132  C     0.79302   0.83053   0.90645   0.00000  Uiso   1.00
C1133  C     0.87714   0.97863   0.74431   0.00000  Uiso   1.00
C1134  C     0.80767   0.83112   0.84973   0.00000  Uiso   1.00
C1135  C     0.87713   0.68789   0.74438   0.00000  Uiso   1.00
C1136  C     0.83356   0.70941   0.74924   0.00000  Uiso   1.00
C1137  C     0.79008   0.68799   0.75361   0.00000  Uiso   1.00
C1138  C     0.79007   0.97875   0.75360   0.00000  Uiso   1.00
C1139  C     0.83355   0.95723   0.74917   0.00000  Uiso   1.00
C1140  C     0.96589   0.85687   0.78455   0.00000  Uiso   1.00
C1141  C     0.68212   0.85683   0.78457   0.00000  Uiso   1.00
C1142  C     0.70078   0.80984   0.71540   0.00000  Uiso   1.00
C1143  C     0.98454   0.80985   0.71541   0.00000  Uiso   1.00
C1144  C     0.83341   0.75404   0.74973   0.00000  Uiso   1.00
C1145  C     0.85920   0.83489   0.65034   0.00000  Uiso   1.00
C1146  C     0.93506   0.82800   0.51225   0.00000  Uiso   1.00
C1147  C     0.87384   0.83653   0.59390   0.00000  Uiso   1.00
C1148  C     0.74580   0.84414   0.93208   0.00000  Uiso   1.00
C1149  C     0.73275   0.85256   0.98433   0.00000  Uiso   1.00
C1150  C     0.76584   0.84726   0.51246   0.00000  Uiso   1.00
Cu1151 Cu    0.78645   0.83333   0.75000   0.00000  Uiso   1.00
Cu1152 Cu    0.88022   0.83334   0.75000   0.00000  Uiso   1.00
H1153  H     0.75602   0.70405   0.75735   0.00000  Uiso   1.00
H1154  H     0.75601   0.96277   0.75736   0.00000  Uiso   1.00
H1155  H     0.93979   0.87576   0.81224   0.00000  Uiso   1.00
H1156  H     0.69329   0.87570   0.81226   0.00000  Uiso   1.00
H1157  H     0.72687   0.79093   0.68771   0.00000  Uiso   1.00
H1158  H     0.97336   0.79100   0.68771   0.00000  Uiso   1.00
H1159  H     0.94678   0.79890   0.91691   0.00000  Uiso   1.00
H1160  H     0.97275   0.82414   0.99033   0.00000  Uiso   1.00
H1161  H     0.79981   0.83203   0.59213   0.00000  Uiso   1.00
H1162  H     0.71949   0.85074   0.91122   0.00000  Uiso   1.00
H1163  H     0.75392   0.85710   0.55222   0.00000  Uiso   1.00
H1164  H     0.69740   0.86538   0.50258   0.00000  Uiso   1.00
H1165  H     0.88387   0.79125   0.87480   0.00000  Uiso   1.00
N1166  N     0.71598   0.83332   0.74999   0.00000  Uiso   1.00
N1167  N     0.95069   0.83335   0.75000   0.00000  Uiso   1.00
O1168  O     0.79375   0.89345   0.75001   0.00000  Uiso   1.00
O1169  O     0.87294   0.89346   0.75001   0.00000  Uiso   1.00
O1170  O     0.77441   0.83332   0.82549   0.00000  Uiso   1.00
O1171  O     0.85360   0.83333   0.82549   0.00000  Uiso   1.00
O1172  O     0.79373   0.77321   0.75000   0.00000  Uiso   1.00
O1173  O     0.87292   0.77322   0.75000   0.00000  Uiso   1.00
O1174  O     0.81306   0.83334   0.67451   0.00000  Uiso   1.00
O1175  O     0.89225   0.83335   0.67451   0.00000  Uiso   1.00
O1176  O     0.96044   0.85115   0.58507   0.00000  Uiso   1.00
C1177  C     0.95219   0.89116   0.60790   0.00000  Uiso   1.00
H1178  H     0.96005   0.88978   0.64579   0.00000  Uiso   1.00
H1179  H     0.91403   0.90270   0.61563   0.00000  Uiso   1.00
C1180  C     0.98644   0.92281   0.57462   0.00000  Uiso   1.00
H1181  H     0.69153   0.91376   0.57016   0.00000  Uiso   1.00
H1182  H     0.98016   0.92401   0.53596   0.00000  Uiso   1.00
C1183  C     0.97785   0.96562   0.59921   0.00000  Uiso   1.00
H1184  H     0.93989   0.97598   0.60335   0.00000  Uiso   1.00
H1185  H     0.67006   0.98786   0.57441   0.00000  Uiso   1.00
H1186  H     0.98429   0.96535   0.63781   0.00000  Uiso   1.00
H1187  H     0.91118   0.70388   0.74060   0.00000  Uiso   1.00
H1188  H     0.91121   0.96255   0.74043   0.00000  Uiso   1.00
loop_
_geom_bond_atom_site_label_1
_geom_bond_atom_site_label_2
_geom_bond_distance
_geom_bond_site_symmetry_2
_ccdc_geom_bond_type
C1     O47     1.292   .     A
C1     O46     1.293   .     A
C1     C17     1.449   .     S
C2     C3      1.419   .     A
C2     C598    1.417   .     S
C2     C622    1.413   .     S
C3     C10     1.426   .     A
C3     C7      1.416   .     A
C4     C8      1.396   .     A
C4     C596    1.417   1_554 S
C4     C599    1.412   1_554 S
C5     C6      1.391   .     A
C5     C598    1.412   .     S
C5     C618    1.401   .     S
C6     C7      1.388   .     A
C6     H37     1.084   .     S
C7     H43     1.078   .     S
C8     H39     1.078   .     S
C8     C25     1.397   .     A
C9     C24     1.399   .     A
C9     C25     1.415   .     A
C9     O54     1.391   .     S
C10    C26     1.401   .     A
C10    C12     1.471   .     S
C11    H66     1.083   .     S
C11    C17     1.401   .     A
C11    C211    1.384   .     S
C12    O48     1.303   .     A
C12    O49     1.293   .     A
C13    H65     1.083   .     S
C13    C14     1.401   .     A
C13    C407    1.384   1_545 S
C14    C22     1.450   .     S
C14    C15     1.401   .     A
C15    H31     1.083   .     S
C15    C412    1.383   1_545 S
C16    H32     1.083   .     S
C16    C17     1.401   .     A
C16    C213    1.383   .     S
C18    H33     1.082   .     S
C18    N45     1.368   .     A
C18    C85     1.418   .     S
C19    N44     1.367   .     A
C19    H34     1.082   .     S
C19    C150    1.418   1_455 S
C20    N44     1.368   .     A
C20    H35     1.082   .     S
C20    C153    1.418   1_455 S
C21    N45     1.367   .     A
C21    H36     1.082   .     S
C21    C86     1.418   .     S
C22    O50     1.292   .     A
C22    O51     1.293   .     A
C23    O52     1.296   .     A
C23    O53     1.295   .     A
C23    C25     1.465   .     S
C24    C599    1.401   1_554 S
C24    H632    1.079   1_554 S
C26    C27     1.381   .     A
C26    H40     1.084   .     S
C27    C622    1.384   .     S
C27    H636    1.073   .     S
C28    H41     1.078   .     S
C28    C621    1.384   1_554 S
C28    C596    1.413   1_554 S
Cu29   O46     1.964   .     S
Cu29   Cu30    2.682   .     S
Cu29   O50     1.964   .     S
Cu29   N44     2.016   .     S
Cu29   O48     1.972   .     S
Cu29   O52     1.966   .     S
Cu30   N45     2.016   .     S
Cu30   O49     1.966   .     S
Cu30   O53     1.972   .     S
Cu30   O51     1.964   .     S
Cu30   O47     1.964   .     S
H38    C618    1.079   .     S
H42    C621    1.073   1_554 S
O54    C55     1.426   .     S
C55    H56     1.112   .     S
C55    H57     1.115   .     S
C55    C58     1.528   .     S
C58    C61     1.527   .     S
C58    H60     1.111   .     S
C58    H125    1.110   .     S
H59    C190    1.110   1_455 S
C61    H64     1.111   .     S
C61    H62     1.111   .     S
C61    H129    1.110   .     S
H63    C193    1.110   1_455 S
C67    O113    1.292   .     A
C67    O112    1.293   .     A
C67    C83     1.449   .     S
C68    C69     1.419   .     A
C68    C664    1.417   .     S
C68    C688    1.413   .     S
C69    C76     1.426   .     A
C69    C73     1.416   .     A
C70    C74     1.396   .     A
C70    C662    1.417   1_554 S
C70    C665    1.412   1_554 S
C71    C72     1.391   .     A
C71    C664    1.412   .     S
C71    C684    1.401   .     S
C72    C73     1.388   .     A
C72    H103    1.084   .     S
C73    H109    1.078   .     S
C74    H105    1.078   .     S
C74    C91     1.397   .     A
C75    C90     1.399   .     A
C75    C91     1.415   .     A
C75    O120    1.391   .     S
C76    C92     1.401   .     A
C76    C78     1.471   .     S
C77    H132    1.083   .     S
C77    C83     1.401   .     A
C77    C277    1.384   .     S
C78    O114    1.303   .     A
C78    O115    1.293   .     A
C79    H131    1.083   .     S
C79    C80     1.401   .     A
C79    C473    1.384   1_545 S
C80    C88     1.450   .     S
C80    C81     1.401   .     A
C81    H97     1.083   .     S
C81    C478    1.383   1_545 S
C82    H98     1.083   .     S
C82    C83     1.401   .     A
C82    C279    1.383   .     S
C84    H99     1.082   .     S
C84    N111    1.368   .     A
C84    C151    1.418   .     S
C85    N110    1.367   .     A
C85    H100    1.082   .     S
C86    N110    1.368   .     A
C86    H101    1.082   .     S
C87    N111    1.367   .     A
C87    H102    1.082   .     S
C87    C152    1.418   .     S
C88    O116    1.292   .     A
C88    O117    1.293   .     A
C89    O118    1.296   .     A
C89    O119    1.295   .     A
C89    C91     1.465   .     S
C90    C665    1.401   1_554 S
C90    H698    1.079   1_554 S
C92    C93     1.381   .     A
C92    H106    1.084   .     S
C93    C688    1.384   .     S
C93    H702    1.073   .     S
C94    H107    1.078   .     S
C94    C687    1.384   1_554 S
C94    C662    1.413   1_554 S
Cu95   O112    1.964   .     S
Cu95   Cu96    2.682   .     S
Cu95   O116    1.964   .     S
Cu95   N110    2.016   .     S
Cu95   O114    1.972   .     S
Cu95   O118    1.966   .     S
Cu96   N111    2.016   .     S
Cu96   O115    1.966   .     S
Cu96   O119    1.972   .     S
Cu96   O117    1.964   .     S
Cu96   O113    1.964   .     S
H104   C684    1.079   .     S
H108   C687    1.073   1_554 S
O120   C121    1.426   .     S
C121   H122    1.112   .     S
C121   H123    1.115   .     S
C121   C124    1.528   .     S
C124   C127    1.527   .     S
C124   H126    1.111   .     S
C124   H191    1.110   .     S
C127   H130    1.111   .     S
C127   H128    1.111   .     S
C127   H195    1.110   .     S
C133   O179    1.292   .     A
C133   O178    1.293   .     A
C133   C149    1.449   .     S
C134   C135    1.419   .     A
C134   C730    1.417   .     S
C134   C754    1.413   .     S
C135   C142    1.426   .     A
C135   C139    1.416   .     A
C136   C140    1.396   .     A
C136   C728    1.417   1_554 S
C136   C731    1.412   1_554 S
C137   C138    1.391   .     A
C137   C730    1.412   .     S
C137   C750    1.401   .     S
C138   C139    1.388   .     A
C138   H169    1.084   .     S
C139   H175    1.078   .     S
C140   H171    1.078   .     S
C140   C157    1.397   .     A
C141   C156    1.399   .     A
C141   C157    1.415   .     A
C141   O186    1.391   .     S
C142   C158    1.401   .     A
C142   C144    1.471   .     S
C143   H198    1.083   .     S
C143   C149    1.401   .     A
C143   C343    1.384   .     S
C144   O180    1.303   .     A
C144   O181    1.293   .     A
C145   H197    1.083   .     S
C145   C146    1.401   .     A
C145   C539    1.384   1_545 S
C146   C154    1.450   .     S
C146   C147    1.401   .     A
C147   H163    1.083   .     S
C147   C544    1.383   1_545 S
C148   H164    1.083   .     S
C148   C149    1.401   .     A
C148   C345    1.383   .     S
C150   H165    1.082   .     S
C150   N177    1.368   .     A
C150   C19     1.418   1_655 S
C151   N176    1.367   .     A
C151   H166    1.082   .     S
C152   N176    1.368   .     A
C152   H167    1.082   .     S
C153   N177    1.367   .     A
C153   H168    1.082   .     S
C153   C20     1.418   1_655 S
C154   O182    1.292   .     A
C154   O183    1.293   .     A
C155   O184    1.296   .     A
C155   O185    1.295   .     A
C155   C157    1.465   .     S
C156   C731    1.401   1_554 S
C156   H764    1.079   1_554 S
C158   C159    1.381   .     A
C158   H172    1.084   .     S
C159   C754    1.384   .     S
C159   H768    1.073   .     S
C160   H173    1.078   .     S
C160   C753    1.384   1_554 S
C160   C728    1.413   1_554 S
Cu161  O178    1.964   .     S
Cu161  Cu162   2.682   .     S
Cu161  O182    1.964   .     S
Cu161  N176    2.016   .     S
Cu161  O180    1.972   .     S
Cu161  O184    1.966   .     S
Cu162  N177    2.016   .     S
Cu162  O181    1.966   .     S
Cu162  O185    1.972   .     S
Cu162  O183    1.964   .     S
Cu162  O179    1.964   .     S
H170   C750    1.079   .     S
H174   C753    1.073   1_554 S
O186   C187    1.426   .     S
C187   H188    1.112   .     S
C187   H189    1.115   .     S
C187   C190    1.528   .     S
C190   C193    1.527   .     S
C190   H192    1.111   .     S
C190   H59     1.110   1_655 S
C193   H196    1.111   .     S
C193   H194    1.111   .     S
C193   H63     1.110   1_655 S
C199   O245    1.292   .     A
C199   O244    1.293   .     A
C199   C215    1.449   .     S
C200   C201    1.419   .     A
C200   C796    1.417   .     S
C200   C820    1.413   .     S
C201   C208    1.426   .     A
C201   C205    1.416   .     A
C202   C206    1.396   .     A
C202   C794    1.417   1_554 S
C202   C797    1.412   1_554 S
C203   C204    1.391   .     A
C203   C796    1.412   .     S
C203   C816    1.401   .     S
C204   C205    1.388   .     A
C204   H235    1.084   .     S
C205   H241    1.078   .     S
C206   H237    1.078   .     S
C206   C223    1.397   .     A
C207   C222    1.399   .     A
C207   C223    1.415   .     A
C207   O252    1.391   .     S
C208   C224    1.401   .     A
C208   C210    1.471   .     S
C209   H264    1.083   .     S
C209   C215    1.401   .     A
C209   C409    1.384   .     S
C210   O246    1.303   .     A
C210   O247    1.293   .     A
C211   H263    1.083   .     S
C211   C212    1.401   .     A
C212   C220    1.450   .     S
C212   C213    1.401   .     A
C213   H229    1.083   .     S
C214   H230    1.083   .     S
C214   C215    1.401   .     A
C214   C411    1.383   .     S
C216   H231    1.082   .     S
C216   N243    1.368   .     A
C216   C283    1.418   .     S
C217   N242    1.367   .     A
C217   H232    1.082   .     S
C217   C348    1.418   1_455 S
C218   N242    1.368   .     A
C218   H233    1.082   .     S
C218   C351    1.418   1_455 S
C219   N243    1.367   .     A
C219   H234    1.082   .     S
C219   C284    1.418   .     S
C220   O248    1.292   .     A
C220   O249    1.293   .     A
C221   O250    1.296   .     A
C221   O251    1.295   .     A
C221   C223    1.465   .     S
C222   C797    1.401   1_554 S
C222   H830    1.079   1_554 S
C224   C225    1.381   .     A
C224   H238    1.084   .     S
C225   C820    1.384   .     S
C225   H834    1.073   .     S
C226   H239    1.078   .     S
C226   C819    1.384   1_554 S
C226   C794    1.413   1_554 S
Cu227  O244    1.964   .     S
Cu227  Cu228   2.682   .     S
Cu227  O248    1.964   .     S
Cu227  N242    2.016   .     S
Cu227  O246    1.972   .     S
Cu227  O250    1.966   .     S
Cu228  N243    2.016   .     S
Cu228  O247    1.966   .     S
Cu228  O251    1.972   .     S
Cu228  O249    1.964   .     S
Cu228  O245    1.964   .     S
H236   C816    1.079   .     S
H240   C819    1.073   1_554 S
O252   C253    1.426   .     S
C253   H254    1.112   .     S
C253   H255    1.115   .     S
C253   C256    1.528   .     S
C256   C259    1.527   .     S
C256   H258    1.111   .     S
C256   H323    1.110   .     S
H257   C388    1.110   1_455 S
C259   H262    1.111   .     S
C259   H260    1.111   .     S
C259   H327    1.110   .     S
H261   C391    1.110   1_455 S
C265   O311    1.292   .     A
C265   O310    1.293   .     A
C265   C281    1.449   .     S
C266   C267    1.419   .     A
C266   C862    1.417   .     S
C266   C886    1.413   .     S
C267   C274    1.426   .     A
C267   C271    1.416   .     A
C268   C272    1.396   .     A
C268   C860    1.417   1_554 S
C268   C863    1.412   1_554 S
C269   C270    1.391   .     A
C269   C862    1.412   .     S
C269   C882    1.401   .     S
C270   C271    1.388   .     A
C270   H301    1.084   .     S
C271   H307    1.078   .     S
C272   H303    1.078   .     S
C272   C289    1.397   .     A
C273   C288    1.399   .     A
C273   C289    1.415   .     A
C273   O318    1.391   .     S
C274   C290    1.401   .     A
C274   C276    1.471   .     S
C275   H330    1.083   .     S
C275   C281    1.401   .     A
C275   C475    1.384   .     S
C276   O312    1.303   .     A
C276   O313    1.293   .     A
C277   H329    1.083   .     S
C277   C278    1.401   .     A
C278   C286    1.450   .     S
C278   C279    1.401   .     A
C279   H295    1.083   .     S
C280   H296    1.083   .     S
C280   C281    1.401   .     A
C280   C477    1.383   .     S
C282   H297    1.082   .     S
C282   N309    1.368   .     A
C282   C349    1.418   .     S
C283   N308    1.367   .     A
C283   H298    1.082   .     S
C284   N308    1.368   .     A
C284   H299    1.082   .     S
C285   N309    1.367   .     A
C285   H300    1.082   .     S
C285   C350    1.418   .     S
C286   O314    1.292   .     A
C286   O315    1.293   .     A
C287   O316    1.296   .     A
C287   O317    1.295   .     A
C287   C289    1.465   .     S
C288   C863    1.401   1_554 S
C288   H896    1.079   1_554 S
C290   C291    1.381   .     A
C290   H304    1.084   .     S
C291   C886    1.384   .     S
C291   H900    1.073   .     S
C292   H305    1.078   .     S
C292   C885    1.384   1_554 S
C292   C860    1.413   1_554 S
Cu293  O310    1.964   .     S
Cu293  Cu294   2.682   .     S
Cu293  O314    1.964   .     S
Cu293  N308    2.016   .     S
Cu293  O312    1.972   .     S
Cu293  O316    1.966   .     S
Cu294  N309    2.016   .     S
Cu294  O313    1.966   .     S
Cu294  O317    1.972   .     S
Cu294  O315    1.964   .     S
Cu294  O311    1.964   .     S
H302   C882    1.079   .     S
H306   C885    1.073   1_554 S
O318   C319    1.426   .     S
C319   H320    1.112   .     S
C319   H321    1.115   .     S
C319   C322    1.528   .     S
C322   C325    1.527   .     S
C322   H324    1.111   .     S
C322   H389    1.110   .     S
C325   H328    1.111   .     S
C325   H326    1.111   .     S
C325   H393    1.110   .     S
C331   O377    1.292   .     A
C331   O376    1.293   .     A
C331   C347    1.449   .     S
C332   C333    1.419   .     A
C332   C928    1.417   .     S
C332   C952    1.413   .     S
C333   C340    1.426   .     A
C333   C337    1.416   .     A
C334   C338    1.396   .     A
C334   C926    1.417   1_554 S
C334   C929    1.412   1_554 S
C335   C336    1.391   .     A
C335   C928    1.412   .     S
C335   C948    1.401   .     S
C336   C337    1.388   .     A
C336   H367    1.084   .     S
C337   H373    1.078   .     S
C338   H369    1.078   .     S
C338   C355    1.397   .     A
C339   C354    1.399   .     A
C339   C355    1.415   .     A
C339   O384    1.391   .     S
C340   C356    1.401   .     A
C340   C342    1.471   .     S
C341   H396    1.083   .     S
C341   C347    1.401   .     A
C341   C541    1.384   .     S
C342   O378    1.303   .     A
C342   O379    1.293   .     A
C343   H395    1.083   .     S
C343   C344    1.401   .     A
C344   C352    1.450   .     S
C344   C345    1.401   .     A
C345   H361    1.083   .     S
C346   H362    1.083   .     S
C346   C347    1.401   .     A
C346   C543    1.383   .     S
C348   H363    1.082   .     S
C348   N375    1.368   .     A
C348   C217    1.418   1_655 S
C349   N374    1.367   .     A
C349   H364    1.082   .     S
C350   N374    1.368   .     A
C350   H365    1.082   .     S
C351   N375    1.367   .     A
C351   H366    1.082   .     S
C351   C218    1.418   1_655 S
C352   O380    1.292   .     A
C352   O381    1.293   .     A
C353   O382    1.296   .     A
C353   O383    1.295   .     A
C353   C355    1.465   .     S
C354   C929    1.401   1_554 S
C354   H962    1.079   1_554 S
C356   C357    1.381   .     A
C356   H370    1.084   .     S
C357   C952    1.384   .     S
C357   H966    1.073   .     S
C358   H371    1.078   .     S
C358   C951    1.384   1_554 S
C358   C926    1.413   1_554 S
Cu359  O376    1.964   .     S
Cu359  Cu360   2.682   .     S
Cu359  O380    1.964   .     S
Cu359  N374    2.016   .     S
Cu359  O378    1.972   .     S
Cu359  O382    1.966   .     S
Cu360  N375    2.016   .     S
Cu360  O379    1.966   .     S
Cu360  O383    1.972   .     S
Cu360  O381    1.964   .     S
Cu360  O377    1.964   .     S
H368   C948    1.079   .     S
H372   C951    1.073   1_554 S
O384   C385    1.426   .     S
C385   H386    1.112   .     S
C385   H387    1.115   .     S
C385   C388    1.528   .     S
C388   C391    1.527   .     S
C388   H390    1.111   .     S
C388   H257    1.110   1_655 S
C391   H394    1.111   .     S
C391   H392    1.111   .     S
C391   H261    1.110   1_655 S
C397   O443    1.292   .     A
C397   O442    1.293   .     A
C397   C413    1.449   .     S
C398   C399    1.419   .     A
C398   C994    1.417   .     S
C398   C1018   1.413   .     S
C399   C406    1.426   .     A
C399   C403    1.416   .     A
C400   C404    1.396   .     A
C400   C992    1.417   1_554 S
C400   C995    1.412   1_554 S
C401   C402    1.391   .     A
C401   C994    1.412   .     S
C401   C1014   1.401   .     S
C402   C403    1.388   .     A
C402   H433    1.084   .     S
C403   H439    1.078   .     S
C404   H435    1.078   .     S
C404   C421    1.397   .     A
C405   C420    1.399   .     A
C405   C421    1.415   .     A
C405   O450    1.391   .     S
C406   C422    1.401   .     A
C406   C408    1.471   .     S
C407   H462    1.083   .     S
C407   C413    1.401   .     A
C407   C13     1.384   1_565 S
C408   O444    1.303   .     A
C408   O445    1.293   .     A
C409   H461    1.083   .     S
C409   C410    1.401   .     A
C410   C418    1.450   .     S
C410   C411    1.401   .     A
C411   H427    1.083   .     S
C412   H428    1.083   .     S
C412   C413    1.401   .     A
C412   C15     1.383   1_565 S
C414   H429    1.082   .     S
C414   N441    1.368   .     A
C414   C481    1.418   .     S
C415   N440    1.367   .     A
C415   H430    1.082   .     S
C415   C546    1.418   1_455 S
C416   N440    1.368   .     A
C416   H431    1.082   .     S
C416   C549    1.418   1_455 S
C417   N441    1.367   .     A
C417   H432    1.082   .     S
C417   C482    1.418   .     S
C418   O446    1.292   .     A
C418   O447    1.293   .     A
C419   O448    1.296   .     A
C419   O449    1.295   .     A
C419   C421    1.465   .     S
C420   C995    1.401   1_554 S
C420   H1028   1.079   1_554 S
C422   C423    1.381   .     A
C422   H436    1.084   .     S
C423   C1018   1.384   .     S
C423   H1032   1.073   .     S
C424   H437    1.078   .     S
C424   C1017   1.384   1_554 S
C424   C992    1.413   1_554 S
Cu425  O442    1.964   .     S
Cu425  Cu426   2.682   .     S
Cu425  O446    1.964   .     S
Cu425  N440    2.016   .     S
Cu425  O444    1.972   .     S
Cu425  O448    1.966   .     S
Cu426  N441    2.016   .     S
Cu426  O445    1.966   .     S
Cu426  O449    1.972   .     S
Cu426  O447    1.964   .     S
Cu426  O443    1.964   .     S
H434   C1014   1.079   .     S
H438   C1017   1.073   1_554 S
O450   C451    1.426   .     S
C451   H452    1.112   .     S
C451   H453    1.115   .     S
C451   C454    1.528   .     S
C454   C457    1.527   .     S
C454   H456    1.111   .     S
C454   H521    1.110   .     S
H455   C586    1.110   1_455 S
C457   H460    1.111   .     S
C457   H458    1.111   .     S
C457   H525    1.110   .     S
H459   C589    1.110   1_455 S
C463   O509    1.292   .     A
C463   O508    1.293   .     A
C463   C479    1.449   .     S
C464   C465    1.419   .     A
C464   C1060   1.417   .     S
C464   C1084   1.413   .     S
C465   C472    1.426   .     A
C465   C469    1.416   .     A
C466   C470    1.396   .     A
C466   C1058   1.417   1_554 S
C466   C1061   1.412   1_554 S
C467   C468    1.391   .     A
C467   C1060   1.412   .     S
C467   C1080   1.401   .     S
C468   C469    1.388   .     A
C468   H499    1.084   .     S
C469   H505    1.078   .     S
C470   H501    1.078   .     S
C470   C487    1.397   .     A
C471   C486    1.399   .     A
C471   C487    1.415   .     A
C471   O516    1.391   .     S
C472   C488    1.401   .     A
C472   C474    1.471   .     S
C473   H528    1.083   .     S
C473   C479    1.401   .     A
C473   C79     1.384   1_565 S
C474   O510    1.303   .     A
C474   O511    1.293   .     A
C475   H527    1.083   .     S
C475   C476    1.401   .     A
C476   C484    1.450   .     S
C476   C477    1.401   .     A
C477   H493    1.083   .     S
C478   H494    1.083   .     S
C478   C479    1.401   .     A
C478   C81     1.383   1_565 S
C480   H495    1.082   .     S
C480   N507    1.368   .     A
C480   C547    1.418   .     S
C481   N506    1.367   .     A
C481   H496    1.082   .     S
C482   N506    1.368   .     A
C482   H497    1.082   .     S
C483   N507    1.367   .     A
C483   H498    1.082   .     S
C483   C548    1.418   .     S
C484   O512    1.292   .     A
C484   O513    1.293   .     A
C485   O514    1.296   .     A
C485   O515    1.295   .     A
C485   C487    1.465   .     S
C486   C1061   1.401   1_554 S
C486   H1094   1.079   1_554 S
C488   C489    1.381   .     A
C488   H502    1.084   .     S
C489   C1084   1.384   .     S
C489   H1098   1.073   .     S
C490   H503    1.078   .     S
C490   C1083   1.384   1_554 S
C490   C1058   1.413   1_554 S
Cu491  O508    1.964   .     S
Cu491  Cu492   2.682   .     S
Cu491  O512    1.964   .     S
Cu491  N506    2.016   .     S
Cu491  O510    1.972   .     S
Cu491  O514    1.966   .     S
Cu492  N507    2.016   .     S
Cu492  O511    1.966   .     S
Cu492  O515    1.972   .     S
Cu492  O513    1.964   .     S
Cu492  O509    1.964   .     S
H500   C1080   1.079   .     S
H504   C1083   1.073   1_554 S
O516   C517    1.426   .     S
C517   H518    1.112   .     S
C517   H519    1.115   .     S
C517   C520    1.528   .     S
C520   C523    1.527   .     S
C520   H522    1.111   .     S
C520   H587    1.110   .     S
C523   H526    1.111   .     S
C523   H524    1.111   .     S
C523   H591    1.110   .     S
C529   O575    1.292   .     A
C529   O574    1.293   .     A
C529   C545    1.449   .     S
C530   C531    1.419   .     A
C530   C1126   1.417   .     S
C530   C1150   1.413   .     S
C531   C538    1.426   .     A
C531   C535    1.416   .     A
C532   C536    1.396   .     A
C532   C1124   1.417   1_554 S
C532   C1127   1.412   1_554 S
C533   C534    1.391   .     A
C533   C1126   1.412   .     S
C533   C1146   1.401   .     S
C534   C535    1.388   .     A
C534   H565    1.084   .     S
C535   H571    1.078   .     S
C536   H567    1.078   .     S
C536   C553    1.397   .     A
C537   C552    1.399   .     A
C537   C553    1.415   .     A
C537   O582    1.391   .     S
C538   C554    1.401   .     A
C538   C540    1.471   .     S
C539   H594    1.083   .     S
C539   C545    1.401   .     A
C539   C145    1.384   1_565 S
C540   O576    1.303   .     A
C540   O577    1.293   .     A
C541   H593    1.083   .     S
C541   C542    1.401   .     A
C542   C550    1.450   .     S
C542   C543    1.401   .     A
C543   H559    1.083   .     S
C544   H560    1.083   .     S
C544   C545    1.401   .     A
C544   C147    1.383   1_565 S
C546   H561    1.082   .     S
C546   N573    1.368   .     A
C546   C415    1.418   1_655 S
C547   N572    1.367   .     A
C547   H562    1.082   .     S
C548   N572    1.368   .     A
C548   H563    1.082   .     S
C549   N573    1.367   .     A
C549   H564    1.082   .     S
C549   C416    1.418   1_655 S
C550   O578    1.292   .     A
C550   O579    1.293   .     A
C551   O580    1.296   .     A
C551   O581    1.295   .     A
C551   C553    1.465   .     S
C552   C1127   1.401   1_554 S
C552   H1160   1.079   1_554 S
C554   C555    1.381   .     A
C554   H568    1.084   .     S
C555   C1150   1.384   .     S
C555   H1164   1.073   .     S
C556   H569    1.078   .     S
C556   C1149   1.384   1_554 S
C556   C1124   1.413   1_554 S
Cu557  O574    1.964   .     S
Cu557  Cu558   2.682   .     S
Cu557  O578    1.964   .     S
Cu557  N572    2.016   .     S
Cu557  O576    1.972   .     S
Cu557  O580    1.966   .     S
Cu558  N573    2.016   .     S
Cu558  O577    1.966   .     S
Cu558  O581    1.972   .     S
Cu558  O579    1.964   .     S
Cu558  O575    1.964   .     S
H566   C1146   1.079   .     S
H570   C1149   1.073   1_554 S
O582   C583    1.426   .     S
C583   H584    1.112   .     S
C583   H585    1.115   .     S
C583   C586    1.528   .     S
C586   C589    1.527   .     S
C586   H588    1.111   .     S
C586   H455    1.110   1_655 S
C589   H592    1.111   .     S
C589   H590    1.111   .     S
C589   H459    1.110   1_655 S
C595   O641    1.292   .     A
C595   O640    1.293   .     A
C595   C611    1.449   .     S
C596   C597    1.419   .     A
C596   C4      1.417   1_556 S
C596   C28     1.413   1_556 S
C597   C604    1.426   .     A
C597   C601    1.416   .     A
C598   C602    1.396   .     A
C599   C600    1.391   .     A
C599   C4      1.412   1_556 S
C599   C24     1.401   1_556 S
C600   C601    1.388   .     A
C600   H631    1.084   .     S
C601   H637    1.078   .     S
C602   H633    1.078   .     S
C602   C619    1.397   .     A
C603   C618    1.399   .     A
C603   C619    1.415   .     A
C603   O648    1.391   .     S
C604   C620    1.401   .     A
C604   C606    1.471   .     S
C605   H660    1.083   .     S
C605   C611    1.401   .     A
C605   C805    1.384   .     S
C606   O642    1.303   .     A
C606   O643    1.293   .     A
C607   H659    1.083   .     S
C607   C608    1.401   .     A
C607   C1001   1.384   1_545 S
C608   C616    1.450   .     S
C608   C609    1.401   .     A
C609   H625    1.083   .     S
C609   C1006   1.383   1_545 S
C610   H626    1.083   .     S
C610   C611    1.401   .     A
C610   C807    1.383   .     S
C612   H627    1.082   .     S
C612   N639    1.368   .     A
C612   C679    1.418   .     S
C613   N638    1.367   .     A
C613   H628    1.082   .     S
C613   C744    1.418   1_455 S
C614   N638    1.368   .     A
C614   H629    1.082   .     S
C614   C747    1.418   1_455 S
C615   N639    1.367   .     A
C615   H630    1.082   .     S
C615   C680    1.418   .     S
C616   O644    1.292   .     A
C616   O645    1.293   .     A
C617   O646    1.296   .     A
C617   O647    1.295   .     A
C617   C619    1.465   .     S
C620   C621    1.381   .     A
C620   H634    1.084   .     S
C621   C28     1.384   1_556 S
C621   H42     1.073   1_556 S
C622   H635    1.078   .     S
Cu623  O640    1.964   .     S
Cu623  Cu624   2.682   .     S
Cu623  O644    1.964   .     S
Cu623  N638    2.016   .     S
Cu623  O642    1.972   .     S
Cu623  O646    1.966   .     S
Cu624  N639    2.016   .     S
Cu624  O643    1.966   .     S
Cu624  O647    1.972   .     S
Cu624  O645    1.964   .     S
Cu624  O641    1.964   .     S
H632   C24     1.079   1_556 S
O648   C649    1.426   .     S
C649   H650    1.112   .     S
C649   H651    1.115   .     S
C649   C652    1.528   .     S
C652   C655    1.527   .     S
C652   H654    1.111   .     S
C652   H719    1.110   .     S
H653   C784    1.110   1_455 S
C655   H658    1.111   .     S
C655   H656    1.111   .     S
C655   H723    1.110   .     S
H657   C787    1.110   1_455 S
C661   O707    1.292   .     A
C661   O706    1.293   .     A
C661   C677    1.449   .     S
C662   C663    1.419   .     A
C662   C70     1.417   1_556 S
C662   C94     1.413   1_556 S
C663   C670    1.426   .     A
C663   C667    1.416   .     A
C664   C668    1.396   .     A
C665   C666    1.391   .     A
C665   C70     1.412   1_556 S
C665   C90     1.401   1_556 S
C666   C667    1.388   .     A
C666   H697    1.084   .     S
C667   H703    1.078   .     S
C668   H699    1.078   .     S
C668   C685    1.397   .     A
C669   C684    1.399   .     A
C669   C685    1.415   .     A
C669   O714    1.391   .     S
C670   C686    1.401   .     A
C670   C672    1.471   .     S
C671   H726    1.083   .     S
C671   C677    1.401   .     A
C671   C871    1.384   .     S
C672   O708    1.303   .     A
C672   O709    1.293   .     A
C673   H725    1.083   .     S
C673   C674    1.401   .     A
C673   C1067   1.384   1_545 S
C674   C682    1.450   .     S
C674   C675    1.401   .     A
C675   H691    1.083   .     S
C675   C1072   1.383   1_545 S
C676   H692    1.083   .     S
C676   C677    1.401   .     A
C676   C873    1.383   .     S
C678   H693    1.082   .     S
C678   N705    1.368   .     A
C678   C745    1.418   .     S
C679   N704    1.367   .     A
C679   H694    1.082   .     S
C680   N704    1.368   .     A
C680   H695    1.082   .     S
C681   N705    1.367   .     A
C681   H696    1.082   .     S
C681   C746    1.418   .     S
C682   O710    1.292   .     A
C682   O711    1.293   .     A
C683   O712    1.296   .     A
C683   O713    1.295   .     A
C683   C685    1.465   .     S
C686   C687    1.381   .     A
C686   H700    1.084   .     S
C687   C94     1.384   1_556 S
C687   H108    1.073   1_556 S
C688   H701    1.078   .     S
Cu689  O706    1.964   .     S
Cu689  Cu690   2.682   .     S
Cu689  O710    1.964   .     S
Cu689  N704    2.016   .     S
Cu689  O708    1.972   .     S
Cu689  O712    1.966   .     S
Cu690  N705    2.016   .     S
Cu690  O709    1.966   .     S
Cu690  O713    1.972   .     S
Cu690  O711    1.964   .     S
Cu690  O707    1.964   .     S
H698   C90     1.079   1_556 S
O714   C715    1.426   .     S
C715   H716    1.112   .     S
C715   H717    1.115   .     S
C715   C718    1.528   .     S
C718   C721    1.527   .     S
C718   H720    1.111   .     S
C718   H785    1.110   .     S
C721   H724    1.111   .     S
C721   H722    1.111   .     S
C721   H789    1.110   .     S
C727   O773    1.292   .     A
C727   O772    1.293   .     A
C727   C743    1.449   .     S
C728   C729    1.419   .     A
C728   C136    1.417   1_556 S
C728   C160    1.413   1_556 S
C729   C736    1.426   .     A
C729   C733    1.416   .     A
C730   C734    1.396   .     A
C731   C732    1.391   .     A
C731   C136    1.412   1_556 S
C731   C156    1.401   1_556 S
C732   C733    1.388   .     A
C732   H763    1.084   .     S
C733   H769    1.078   .     S
C734   H765    1.078   .     S
C734   C751    1.397   .     A
C735   C750    1.399   .     A
C735   C751    1.415   .     A
C735   O780    1.391   .     S
C736   C752    1.401   .     A
C736   C738    1.471   .     S
C737   H792    1.083   .     S
C737   C743    1.401   .     A
C737   C937    1.384   .     S
C738   O774    1.303   .     A
C738   O775    1.293   .     A
C739   H791    1.083   .     S
C739   C740    1.401   .     A
C739   C1133   1.384   1_545 S
C740   C748    1.450   .     S
C740   C741    1.401   .     A
C741   H757    1.083   .     S
C741   C1138   1.383   1_545 S
C742   H758    1.083   .     S
C742   C743    1.401   .     A
C742   C939    1.383   .     S
C744   H759    1.082   .     S
C744   N771    1.368   .     A
C744   C613    1.418   1_655 S
C745   N770    1.367   .     A
C745   H760    1.082   .     S
C746   N770    1.368   .     A
C746   H761    1.082   .     S
C747   N771    1.367   .     A
C747   H762    1.082   .     S
C747   C614    1.418   1_655 S
C748   O776    1.292   .     A
C748   O777    1.293   .     A
C749   O778    1.296   .     A
C749   O779    1.295   .     A
C749   C751    1.465   .     S
C752   C753    1.381   .     A
C752   H766    1.084   .     S
C753   C160    1.384   1_556 S
C753   H174    1.073   1_556 S
C754   H767    1.078   .     S
Cu755  O772    1.964   .     S
Cu755  Cu756   2.682   .     S
Cu755  O776    1.964   .     S
Cu755  N770    2.016   .     S
Cu755  O774    1.972   .     S
Cu755  O778    1.966   .     S
Cu756  N771    2.016   .     S
Cu756  O775    1.966   .     S
Cu756  O779    1.972   .     S
Cu756  O777    1.964   .     S
Cu756  O773    1.964   .     S
H764   C156    1.079   1_556 S
O780   C781    1.426   .     S
C781   H782    1.112   .     S
C781   H783    1.115   .     S
C781   C784    1.528   .     S
C784   C787    1.527   .     S
C784   H786    1.111   .     S
C784   H653    1.110   1_655 S
C787   H790    1.111   .     S
C787   H788    1.111   .     S
C787   H657    1.110   1_655 S
C793   O839    1.292   .     A
C793   O838    1.293   .     A
C793   C809    1.449   .     S
C794   C795    1.419   .     A
C794   C202    1.417   1_556 S
C794   C226    1.413   1_556 S
C795   C802    1.426   .     A
C795   C799    1.416   .     A
C796   C800    1.396   .     A
C797   C798    1.391   .     A
C797   C202    1.412   1_556 S
C797   C222    1.401   1_556 S
C798   C799    1.388   .     A
C798   H829    1.084   .     S
C799   H835    1.078   .     S
C800   H831    1.078   .     S
C800   C817    1.397   .     A
C801   C816    1.399   .     A
C801   C817    1.415   .     A
C801   O846    1.391   .     S
C802   C818    1.401   .     A
C802   C804    1.471   .     S
C803   H858    1.083   .     S
C803   C809    1.401   .     A
C803   C1003   1.384   .     S
C804   O840    1.303   .     A
C804   O841    1.293   .     A
C805   H857    1.083   .     S
C805   C806    1.401   .     A
C806   C814    1.450   .     S
C806   C807    1.401   .     A
C807   H823    1.083   .     S
C808   H824    1.083   .     S
C808   C809    1.401   .     A
C808   C1005   1.383   .     S
C810   H825    1.082   .     S
C810   N837    1.368   .     A
C810   C877    1.418   .     S
C811   N836    1.367   .     A
C811   H826    1.082   .     S
C811   C942    1.418   1_455 S
C812   N836    1.368   .     A
C812   H827    1.082   .     S
C812   C945    1.418   1_455 S
C813   N837    1.367   .     A
C813   H828    1.082   .     S
C813   C878    1.418   .     S
C814   O842    1.292   .     A
C814   O843    1.293   .     A
C815   O844    1.296   .     A
C815   O845    1.295   .     A
C815   C817    1.465   .     S
C818   C819    1.381   .     A
C818   H832    1.084   .     S
C819   C226    1.384   1_556 S
C819   H240    1.073   1_556 S
C820   H833    1.078   .     S
Cu821  O838    1.964   .     S
Cu821  Cu822   2.682   .     S
Cu821  O842    1.964   .     S
Cu821  N836    2.016   .     S
Cu821  O840    1.972   .     S
Cu821  O844    1.966   .     S
Cu822  N837    2.016   .     S
Cu822  O841    1.966   .     S
Cu822  O845    1.972   .     S
Cu822  O843    1.964   .     S
Cu822  O839    1.964   .     S
H830   C222    1.079   1_556 S
O846   C847    1.426   .     S
C847   H848    1.112   .     S
C847   H849    1.115   .     S
C847   C850    1.528   .     S
C850   C853    1.527   .     S
C850   H852    1.111   .     S
C850   H917    1.110   .     S
H851   C982    1.110   1_455 S
C853   H856    1.111   .     S
C853   H854    1.111   .     S
C853   H921    1.110   .     S
H855   C985    1.110   1_455 S
C859   O905    1.292   .     A
C859   O904    1.293   .     A
C859   C875    1.449   .     S
C860   C861    1.419   .     A
C860   C268    1.417   1_556 S
C860   C292    1.413   1_556 S
C861   C868    1.426   .     A
C861   C865    1.416   .     A
C862   C866    1.396   .     A
C863   C864    1.391   .     A
C863   C268    1.412   1_556 S
C863   C288    1.401   1_556 S
C864   C865    1.388   .     A
C864   H895    1.084   .     S
C865   H901    1.078   .     S
C866   H897    1.078   .     S
C866   C883    1.397   .     A
C867   C882    1.399   .     A
C867   C883    1.415   .     A
C867   O912    1.391   .     S
C868   C884    1.401   .     A
C868   C870    1.471   .     S
C869   H924    1.083   .     S
C869   C875    1.401   .     A
C869   C1069   1.384   .     S
C870   O906    1.303   .     A
C870   O907    1.293   .     A
C871   H923    1.083   .     S
C871   C872    1.401   .     A
C872   C880    1.450   .     S
C872   C873    1.401   .     A
C873   H889    1.083   .     S
C874   H890    1.083   .     S
C874   C875    1.401   .     A
C874   C1071   1.383   .     S
C876   H891    1.082   .     S
C876   N903    1.368   .     A
C876   C943    1.418   .     S
C877   N902    1.367   .     A
C877   H892    1.082   .     S
C878   N902    1.368   .     A
C878   H893    1.082   .     S
C879   N903    1.367   .     A
C879   H894    1.082   .     S
C879   C944    1.418   .     S
C880   O908    1.292   .     A
C880   O909    1.293   .     A
C881   O910    1.296   .     A
C881   O911    1.295   .     A
C881   C883    1.465   .     S
C884   C885    1.381   .     A
C884   H898    1.084   .     S
C885   C292    1.384   1_556 S
C885   H306    1.073   1_556 S
C886   H899    1.078   .     S
Cu887  O904    1.964   .     S
Cu887  Cu888   2.682   .     S
Cu887  O908    1.964   .     S
Cu887  N902    2.016   .     S
Cu887  O906    1.972   .     S
Cu887  O910    1.966   .     S
Cu888  N903    2.016   .     S
Cu888  O907    1.966   .     S
Cu888  O911    1.972   .     S
Cu888  O909    1.964   .     S
Cu888  O905    1.964   .     S
H896   C288    1.079   1_556 S
O912   C913    1.426   .     S
C913   H914    1.112   .     S
C913   H915    1.115   .     S
C913   C916    1.528   .     S
C916   C919    1.527   .     S
C916   H918    1.111   .     S
C916   H983    1.110   .     S
C919   H922    1.111   .     S
C919   H920    1.111   .     S
C919   H987    1.110   .     S
C925   O971    1.292   .     A
C925   O970    1.293   .     A
C925   C941    1.449   .     S
C926   C927    1.419   .     A
C926   C334    1.417   1_556 S
C926   C358    1.413   1_556 S
C927   C934    1.426   .     A
C927   C931    1.416   .     A
C928   C932    1.396   .     A
C929   C930    1.391   .     A
C929   C334    1.412   1_556 S
C929   C354    1.401   1_556 S
C930   C931    1.388   .     A
C930   H961    1.084   .     S
C931   H967    1.078   .     S
C932   H963    1.078   .     S
C932   C949    1.397   .     A
C933   C948    1.399   .     A
C933   C949    1.415   .     A
C933   O978    1.391   .     S
C934   C950    1.401   .     A
C934   C936    1.471   .     S
C935   H990    1.083   .     S
C935   C941    1.401   .     A
C935   C1135   1.384   .     S
C936   O972    1.303   .     A
C936   O973    1.293   .     A
C937   H989    1.083   .     S
C937   C938    1.401   .     A
C938   C946    1.450   .     S
C938   C939    1.401   .     A
C939   H955    1.083   .     S
C940   H956    1.083   .     S
C940   C941    1.401   .     A
C940   C1137   1.383   .     S
C942   H957    1.082   .     S
C942   N969    1.368   .     A
C942   C811    1.418   1_655 S
C943   N968    1.367   .     A
C943   H958    1.082   .     S
C944   N968    1.368   .     A
C944   H959    1.082   .     S
C945   N969    1.367   .     A
C945   H960    1.082   .     S
C945   C812    1.418   1_655 S
C946   O974    1.292   .     A
C946   O975    1.293   .     A
C947   O976    1.296   .     A
C947   O977    1.295   .     A
C947   C949    1.465   .     S
C950   C951    1.381   .     A
C950   H964    1.084   .     S
C951   C358    1.384   1_556 S
C951   H372    1.073   1_556 S
C952   H965    1.078   .     S
Cu953  O970    1.964   .     S
Cu953  Cu954   2.682   .     S
Cu953  O974    1.964   .     S
Cu953  N968    2.016   .     S
Cu953  O972    1.972   .     S
Cu953  O976    1.966   .     S
Cu954  N969    2.016   .     S
Cu954  O973    1.966   .     S
Cu954  O977    1.972   .     S
Cu954  O975    1.964   .     S
Cu954  O971    1.964   .     S
H962   C354    1.079   1_556 S
O978   C979    1.426   .     S
C979   H980    1.112   .     S
C979   H981    1.115   .     S
C979   C982    1.528   .     S
C982   C985    1.527   .     S
C982   H984    1.111   .     S
C982   H851    1.110   1_655 S
C985   H988    1.111   .     S
C985   H986    1.111   .     S
C985   H855    1.110   1_655 S
C991   O1037   1.292   .     A
C991   O1036   1.293   .     A
C991   C1007   1.449   .     S
C992   C993    1.419   .     A
C992   C400    1.417   1_556 S
C992   C424    1.413   1_556 S
C993   C1000   1.426   .     A
C993   C997    1.416   .     A
C994   C998    1.396   .     A
C995   C996    1.391   .     A
C995   C400    1.412   1_556 S
C995   C420    1.401   1_556 S
C996   C997    1.388   .     A
C996   H1027   1.084   .     S
C997   H1033   1.078   .     S
C998   H1029   1.078   .     S
C998   C1015   1.397   .     A
C999   C1014   1.399   .     A
C999   C1015   1.415   .     A
C999   O1044   1.391   .     S
C1000  C1016   1.401   .     A
C1000  C1002   1.471   .     S
C1001  H1056   1.083   .     S
C1001  C1007   1.401   .     A
C1001  C607    1.384   1_565 S
C1002  O1038   1.303   .     A
C1002  O1039   1.293   .     A
C1003  H1055   1.083   .     S
C1003  C1004   1.401   .     A
C1004  C1012   1.450   .     S
C1004  C1005   1.401   .     A
C1005  H1021   1.083   .     S
C1006  H1022   1.083   .     S
C1006  C1007   1.401   .     A
C1006  C609    1.383   1_565 S
C1008  H1023   1.082   .     S
C1008  N1035   1.368   .     A
C1008  C1075   1.418   .     S
C1009  N1034   1.367   .     A
C1009  H1024   1.082   .     S
C1009  C1140   1.418   1_455 S
C1010  N1034   1.368   .     A
C1010  H1025   1.082   .     S
C1010  C1143   1.418   1_455 S
C1011  N1035   1.367   .     A
C1011  H1026   1.082   .     S
C1011  C1076   1.418   .     S
C1012  O1040   1.292   .     A
C1012  O1041   1.293   .     A
C1013  O1042   1.296   .     A
C1013  O1043   1.295   .     A
C1013  C1015   1.465   .     S
C1016  C1017   1.381   .     A
C1016  H1030   1.084   .     S
C1017  C424    1.384   1_556 S
C1017  H438    1.073   1_556 S
C1018  H1031   1.078   .     S
Cu1019 O1036   1.964   .     S
Cu1019 Cu1020  2.682   .     S
Cu1019 O1040   1.964   .     S
Cu1019 N1034   2.016   .     S
Cu1019 O1038   1.972   .     S
Cu1019 O1042   1.966   .     S
Cu1020 N1035   2.016   .     S
Cu1020 O1039   1.966   .     S
Cu1020 O1043   1.972   .     S
Cu1020 O1041   1.964   .     S
Cu1020 O1037   1.964   .     S
H1028  C420    1.079   1_556 S
O1044  C1045   1.426   .     S
C1045  H1046   1.112   .     S
C1045  H1047   1.115   .     S
C1045  C1048   1.528   .     S
C1048  C1051   1.527   .     S
C1048  H1050   1.111   .     S
C1048  H1115   1.110   .     S
H1049  C1180   1.110   1_455 S
C1051  H1054   1.111   .     S
C1051  H1052   1.111   .     S
C1051  H1119   1.110   .     S
H1053  C1183   1.110   1_455 S
C1057  O1103   1.292   .     A
C1057  O1102   1.293   .     A
C1057  C1073   1.449   .     S
C1058  C1059   1.419   .     A
C1058  C466    1.417   1_556 S
C1058  C490    1.413   1_556 S
C1059  C1066   1.426   .     A
C1059  C1063   1.416   .     A
C1060  C1064   1.396   .     A
C1061  C1062   1.391   .     A
C1061  C466    1.412   1_556 S
C1061  C486    1.401   1_556 S
C1062  C1063   1.388   .     A
C1062  H1093   1.084   .     S
C1063  H1099   1.078   .     S
C1064  H1095   1.078   .     S
C1064  C1081   1.397   .     A
C1065  C1080   1.399   .     A
C1065  C1081   1.415   .     A
C1065  O1110   1.391   .     S
C1066  C1082   1.401   .     A
C1066  C1068   1.471   .     S
C1067  H1122   1.083   .     S
C1067  C1073   1.401   .     A
C1067  C673    1.384   1_565 S
C1068  O1104   1.303   .     A
C1068  O1105   1.293   .     A
C1069  H1121   1.083   .     S
C1069  C1070   1.401   .     A
C1070  C1078   1.450   .     S
C1070  C1071   1.401   .     A
C1071  H1087   1.083   .     S
C1072  H1088   1.083   .     S
C1072  C1073   1.401   .     A
C1072  C675    1.383   1_565 S
C1074  H1089   1.082   .     S
C1074  N1101   1.368   .     A
C1074  C1141   1.418   .     S
C1075  N1100   1.367   .     A
C1075  H1090   1.082   .     S
C1076  N1100   1.368   .     A
C1076  H1091   1.082   .     S
C1077  N1101   1.367   .     A
C1077  H1092   1.082   .     S
C1077  C1142   1.418   .     S
C1078  O1106   1.292   .     A
C1078  O1107   1.293   .     A
C1079  O1108   1.296   .     A
C1079  O1109   1.295   .     A
C1079  C1081   1.465   .     S
C1082  C1083   1.381   .     A
C1082  H1096   1.084   .     S
C1083  C490    1.384   1_556 S
C1083  H504    1.073   1_556 S
C1084  H1097   1.078   .     S
Cu1085 O1102   1.964   .     S
Cu1085 Cu1086  2.682   .     S
Cu1085 O1106   1.964   .     S
Cu1085 N1100   2.016   .     S
Cu1085 O1104   1.972   .     S
Cu1085 O1108   1.966   .     S
Cu1086 N1101   2.016   .     S
Cu1086 O1105   1.966   .     S
Cu1086 O1109   1.972   .     S
Cu1086 O1107   1.964   .     S
Cu1086 O1103   1.964   .     S
H1094  C486    1.079   1_556 S
O1110  C1111   1.426   .     S
C1111  H1112   1.112   .     S
C1111  H1113   1.115   .     S
C1111  C1114   1.528   .     S
C1114  C1117   1.527   .     S
C1114  H1116   1.111   .     S
C1114  H1181   1.110   .     S
C1117  H1120   1.111   .     S
C1117  H1118   1.111   .     S
C1117  H1185   1.110   .     S
C1123  O1169   1.292   .     A
C1123  O1168   1.293   .     A
C1123  C1139   1.449   .     S
C1124  C1125   1.419   .     A
C1124  C532    1.417   1_556 S
C1124  C556    1.413   1_556 S
C1125  C1132   1.426   .     A
C1125  C1129   1.416   .     A
C1126  C1130   1.396   .     A
C1127  C1128   1.391   .     A
C1127  C532    1.412   1_556 S
C1127  C552    1.401   1_556 S
C1128  C1129   1.388   .     A
C1128  H1159   1.084   .     S
C1129  H1165   1.078   .     S
C1130  H1161   1.078   .     S
C1130  C1147   1.397   .     A
C1131  C1146   1.399   .     A
C1131  C1147   1.415   .     A
C1131  O1176   1.391   .     S
C1132  C1148   1.401   .     A
C1132  C1134   1.471   .     S
C1133  H1188   1.083   .     S
C1133  C1139   1.401   .     A
C1133  C739    1.384   1_565 S
C1134  O1170   1.303   .     A
C1134  O1171   1.293   .     A
C1135  H1187   1.083   .     S
C1135  C1136   1.401   .     A
C1136  C1144   1.450   .     S
C1136  C1137   1.401   .     A
C1137  H1153   1.083   .     S
C1138  H1154   1.083   .     S
C1138  C1139   1.401   .     A
C1138  C741    1.383   1_565 S
C1140  H1155   1.082   .     S
C1140  N1167   1.368   .     A
C1140  C1009   1.418   1_655 S
C1141  N1166   1.367   .     A
C1141  H1156   1.082   .     S
C1142  N1166   1.368   .     A
C1142  H1157   1.082   .     S
C1143  N1167   1.367   .     A
C1143  H1158   1.082   .     S
C1143  C1010   1.418   1_655 S
C1144  O1172   1.292   .     A
C1144  O1173   1.293   .     A
C1145  O1174   1.296   .     A
C1145  O1175   1.295   .     A
C1145  C1147   1.465   .     S
C1148  C1149   1.381   .     A
C1148  H1162   1.084   .     S
C1149  C556    1.384   1_556 S
C1149  H570    1.073   1_556 S
C1150  H1163   1.078   .     S
Cu1151 O1168   1.964   .     S
Cu1151 Cu1152  2.682   .     S
Cu1151 O1172   1.964   .     S
Cu1151 N1166   2.016   .     S
Cu1151 O1170   1.972   .     S
Cu1151 O1174   1.966   .     S
Cu1152 N1167   2.016   .     S
Cu1152 O1171   1.966   .     S
Cu1152 O1175   1.972   .     S
Cu1152 O1173   1.964   .     S
Cu1152 O1169   1.964   .     S
H1160  C552    1.079   1_556 S
O1176  C1177   1.426   .     S
C1177  H1178   1.112   .     S
C1177  H1179   1.115   .     S
C1177  C1180   1.528   .     S
C1180  C1183   1.527   .     S
C1180  H1182   1.111   .     S
C1180  H1049   1.110   1_655 S
C1183  H1186   1.111   .     S
C1183  H1184   1.111   .     S
C1183  H1053   1.110   1_655 S
