data_str_m2_o1_o2_pcu_sym.58
_audit_creation_date              2020-01-03
_audit_creation_method            'Materials Studio'
_symmetry_space_group_name_H-M    'P1'
_symmetry_Int_Tables_number       1
_symmetry_cell_setting            triclinic
loop_
_symmetry_equiv_pos_as_xyz
  x,y,z
_cell_length_a                    32.7773
_cell_length_b                    28.5852
_cell_length_c                    30.6190
_cell_angle_alpha                 90.0003
_cell_angle_beta                  93.8026
_cell_angle_gamma                 90.0000
loop_
_atom_site_label
_atom_site_type_symbol
_atom_site_fract_x
_atom_site_fract_y
_atom_site_fract_z
_atom_site_U_iso_or_equiv
_atom_site_adp_type
_atom_site_occupancy
C1     C     0.08758   0.16667   0.25318   0.00000  Uiso   1.00
C2     C     0.31227   0.20937   0.24534   0.00000  Uiso   1.00
C3     C     0.31227   0.12397   0.24535   0.00000  Uiso   1.00
C4     C     0.02106   0.20937   0.25465   0.00000  Uiso   1.00
C5     C     0.15585   0.20840   0.04684   0.00000  Uiso   1.00
C6     C     0.17749   0.12493   0.45316   0.00000  Uiso   1.00
C7     C     0.17749   0.20840   0.45316   0.00000  Uiso   1.00
C8     C     0.15584   0.12494   0.04684   0.00000  Uiso   1.00
C9     C     0.16344   0.20929   0.09221   0.00000  Uiso   1.00
C10    C     0.16990   0.12405   0.40779   0.00000  Uiso   1.00
C11    C     0.16990   0.20929   0.40779   0.00000  Uiso   1.00
C12    C     0.24575   0.16667   0.24682   0.00000  Uiso   1.00
C13    C     0.16343   0.12405   0.09221   0.00000  Uiso   1.00
C14    C     0.16677   0.16667   0.11612   0.00000  Uiso   1.00
C15    C     0.16657   0.16667   0.38388   0.00000  Uiso   1.00
C16    C     0.16155   0.16667   0.02366   0.00000  Uiso   1.00
C17    C     0.17178   0.16667   0.47634   0.00000  Uiso   1.00
C18    C     0.29045   0.16667   0.24425   0.00000  Uiso   1.00
C19    C     0.04288   0.16667   0.25575   0.00000  Uiso   1.00
C20    C     0.16776   0.16667   0.16483   0.00000  Uiso   1.00
C21    C     0.16557   0.16667   0.33517   0.00000  Uiso   1.00
C22    C     0.13950   0.02476   0.22277   0.00000  Uiso   1.00
C23    C     0.19383   0.30857   0.27723   0.00000  Uiso   1.00
C24    C     0.19383   0.02476   0.27723   0.00000  Uiso   1.00
C25    C     0.13950   0.30857   0.22277   0.00000  Uiso   1.00
C26    C     0.02106   0.12397   0.25466   0.00000  Uiso   1.00
Cl27   Cl    0.10378   0.05418   0.18699   0.00000  Uiso   1.00
Cl28   Cl    0.16085   0.06823   0.38417   0.00000  Uiso   1.00
Cl29   Cl    0.16086   0.26510   0.38417   0.00000  Uiso   1.00
Cl30   Cl    0.17247   0.06823   0.11583   0.00000  Uiso   1.00
Cl31   Cl    0.04422   0.06980   0.27023   0.00000  Uiso   1.00
Cl32   Cl    0.28911   0.26353   0.22977   0.00000  Uiso   1.00
Cl33   Cl    0.28911   0.06980   0.22978   0.00000  Uiso   1.00
Cl34   Cl    0.04422   0.26354   0.27022   0.00000  Uiso   1.00
Cl35   Cl    0.22955   0.27915   0.31301   0.00000  Uiso   1.00
Cl36   Cl    0.22955   0.05419   0.31301   0.00000  Uiso   1.00
Cl37   Cl    0.10379   0.27915   0.18699   0.00000  Uiso   1.00
Cl38   Cl    0.12636   0.25477   0.02260   0.00000  Uiso   1.00
Cl39   Cl    0.20697   0.07856   0.47740   0.00000  Uiso   1.00
Cl40   Cl    0.20699   0.25476   0.47739   0.00000  Uiso   1.00
Cl41   Cl    0.12635   0.07857   0.02260   0.00000  Uiso   1.00
Cl42   Cl    0.17248   0.26510   0.11583   0.00000  Uiso   1.00
Cu43   Cu    0.16667   0.21355   0.25000   0.00000  Uiso   1.00
Cu44   Cu    0.16667   0.11978   0.25000   0.00000  Uiso   1.00
N45    N     0.16667   0.28402   0.25000   0.00000  Uiso   1.00
N46    N     0.16667   0.04931   0.25000   0.00000  Uiso   1.00
O47    O     0.10655   0.20625   0.24999   0.00000  Uiso   1.00
O48    O     0.22679   0.12709   0.25001   0.00000  Uiso   1.00
O49    O     0.22679   0.20625   0.25001   0.00000  Uiso   1.00
O50    O     0.10655   0.12709   0.24999   0.00000  Uiso   1.00
O51    O     0.16666   0.20626   0.18573   0.00000  Uiso   1.00
O52    O     0.16667   0.12707   0.31427   0.00000  Uiso   1.00
O53    O     0.16667   0.20626   0.31427   0.00000  Uiso   1.00
O54    O     0.16666   0.12707   0.18573   0.00000  Uiso   1.00
C55    C     0.42091   0.16667   0.25318   0.00000  Uiso   1.00
C56    C     0.64561   0.20937   0.24534   0.00000  Uiso   1.00
C57    C     0.64561   0.12397   0.24535   0.00000  Uiso   1.00
C58    C     0.35439   0.20937   0.25465   0.00000  Uiso   1.00
C59    C     0.48918   0.20840   0.04684   0.00000  Uiso   1.00
C60    C     0.51082   0.12493   0.45316   0.00000  Uiso   1.00
C61    C     0.51082   0.20840   0.45316   0.00000  Uiso   1.00
C62    C     0.48917   0.12494   0.04684   0.00000  Uiso   1.00
C63    C     0.49677   0.20929   0.09221   0.00000  Uiso   1.00
C64    C     0.50323   0.12405   0.40779   0.00000  Uiso   1.00
C65    C     0.50324   0.20929   0.40779   0.00000  Uiso   1.00
C66    C     0.57909   0.16667   0.24682   0.00000  Uiso   1.00
C67    C     0.49676   0.12405   0.09221   0.00000  Uiso   1.00
C68    C     0.50010   0.16667   0.11612   0.00000  Uiso   1.00
C69    C     0.49990   0.16667   0.38388   0.00000  Uiso   1.00
C70    C     0.49488   0.16667   0.02366   0.00000  Uiso   1.00
C71    C     0.50512   0.16667   0.47634   0.00000  Uiso   1.00
C72    C     0.62379   0.16667   0.24425   0.00000  Uiso   1.00
C73    C     0.37621   0.16667   0.25575   0.00000  Uiso   1.00
C74    C     0.50109   0.16667   0.16483   0.00000  Uiso   1.00
C75    C     0.49891   0.16667   0.33517   0.00000  Uiso   1.00
C76    C     0.47284   0.02476   0.22277   0.00000  Uiso   1.00
C77    C     0.52716   0.30857   0.27723   0.00000  Uiso   1.00
C78    C     0.52716   0.02476   0.27723   0.00000  Uiso   1.00
C79    C     0.47284   0.30857   0.22277   0.00000  Uiso   1.00
C80    C     0.35439   0.12397   0.25466   0.00000  Uiso   1.00
Cl81   Cl    0.43712   0.05418   0.18699   0.00000  Uiso   1.00
Cl82   Cl    0.49419   0.06823   0.38417   0.00000  Uiso   1.00
Cl83   Cl    0.49419   0.26510   0.38417   0.00000  Uiso   1.00
Cl84   Cl    0.50580   0.06823   0.11583   0.00000  Uiso   1.00
Cl85   Cl    0.37756   0.06980   0.27023   0.00000  Uiso   1.00
Cl86   Cl    0.62244   0.26353   0.22977   0.00000  Uiso   1.00
Cl87   Cl    0.62244   0.06980   0.22978   0.00000  Uiso   1.00
Cl88   Cl    0.37756   0.26354   0.27022   0.00000  Uiso   1.00
Cl89   Cl    0.56288   0.27915   0.31301   0.00000  Uiso   1.00
Cl90   Cl    0.56288   0.05419   0.31301   0.00000  Uiso   1.00
Cl91   Cl    0.43712   0.27915   0.18699   0.00000  Uiso   1.00
Cl92   Cl    0.45970   0.25477   0.02260   0.00000  Uiso   1.00
Cl93   Cl    0.54031   0.07856   0.47740   0.00000  Uiso   1.00
Cl94   Cl    0.54032   0.25476   0.47739   0.00000  Uiso   1.00
Cl95   Cl    0.45968   0.07857   0.02260   0.00000  Uiso   1.00
Cl96   Cl    0.50582   0.26510   0.11583   0.00000  Uiso   1.00
Cu97   Cu    0.50000   0.21355   0.25000   0.00000  Uiso   1.00
Cu98   Cu    0.50000   0.11978   0.25000   0.00000  Uiso   1.00
N99    N     0.50000   0.28402   0.25000   0.00000  Uiso   1.00
N100   N     0.50000   0.04931   0.25000   0.00000  Uiso   1.00
O101   O     0.43988   0.20625   0.24999   0.00000  Uiso   1.00
O102   O     0.56012   0.12709   0.25001   0.00000  Uiso   1.00
O103   O     0.56012   0.20625   0.25001   0.00000  Uiso   1.00
O104   O     0.43988   0.12709   0.24999   0.00000  Uiso   1.00
O105   O     0.50000   0.20626   0.18573   0.00000  Uiso   1.00
O106   O     0.50000   0.12707   0.31427   0.00000  Uiso   1.00
O107   O     0.50000   0.20626   0.31427   0.00000  Uiso   1.00
O108   O     0.50000   0.12707   0.18573   0.00000  Uiso   1.00
C109   C     0.75425   0.16667   0.25318   0.00000  Uiso   1.00
C110   C     0.97894   0.20937   0.24534   0.00000  Uiso   1.00
C111   C     0.97894   0.12397   0.24535   0.00000  Uiso   1.00
C112   C     0.68773   0.20937   0.25465   0.00000  Uiso   1.00
C113   C     0.82251   0.20840   0.04684   0.00000  Uiso   1.00
C114   C     0.84415   0.12493   0.45316   0.00000  Uiso   1.00
C115   C     0.84416   0.20840   0.45316   0.00000  Uiso   1.00
C116   C     0.82251   0.12494   0.04684   0.00000  Uiso   1.00
C117   C     0.83010   0.20929   0.09221   0.00000  Uiso   1.00
C118   C     0.83657   0.12405   0.40779   0.00000  Uiso   1.00
C119   C     0.83657   0.20929   0.40779   0.00000  Uiso   1.00
C120   C     0.91242   0.16667   0.24682   0.00000  Uiso   1.00
C121   C     0.83010   0.12405   0.09221   0.00000  Uiso   1.00
C122   C     0.83343   0.16667   0.11612   0.00000  Uiso   1.00
C123   C     0.83323   0.16667   0.38388   0.00000  Uiso   1.00
C124   C     0.82822   0.16667   0.02366   0.00000  Uiso   1.00
C125   C     0.83845   0.16667   0.47634   0.00000  Uiso   1.00
C126   C     0.95712   0.16667   0.24425   0.00000  Uiso   1.00
C127   C     0.70955   0.16667   0.25575   0.00000  Uiso   1.00
C128   C     0.83443   0.16667   0.16483   0.00000  Uiso   1.00
C129   C     0.83224   0.16667   0.33517   0.00000  Uiso   1.00
C130   C     0.80617   0.02476   0.22277   0.00000  Uiso   1.00
C131   C     0.86050   0.30857   0.27723   0.00000  Uiso   1.00
C132   C     0.86049   0.02476   0.27723   0.00000  Uiso   1.00
C133   C     0.80617   0.30857   0.22277   0.00000  Uiso   1.00
C134   C     0.68773   0.12397   0.25466   0.00000  Uiso   1.00
Cl135  Cl    0.77045   0.05418   0.18699   0.00000  Uiso   1.00
Cl136  Cl    0.82752   0.06823   0.38417   0.00000  Uiso   1.00
Cl137  Cl    0.82753   0.26510   0.38417   0.00000  Uiso   1.00
Cl138  Cl    0.83914   0.06823   0.11583   0.00000  Uiso   1.00
Cl139  Cl    0.71089   0.06980   0.27023   0.00000  Uiso   1.00
Cl140  Cl    0.95578   0.26353   0.22977   0.00000  Uiso   1.00
Cl141  Cl    0.95578   0.06980   0.22978   0.00000  Uiso   1.00
Cl142  Cl    0.71089   0.26354   0.27022   0.00000  Uiso   1.00
Cl143  Cl    0.89621   0.27915   0.31301   0.00000  Uiso   1.00
Cl144  Cl    0.89621   0.05419   0.31301   0.00000  Uiso   1.00
Cl145  Cl    0.77045   0.27915   0.18699   0.00000  Uiso   1.00
Cl146  Cl    0.79303   0.25477   0.02260   0.00000  Uiso   1.00
Cl147  Cl    0.87364   0.07856   0.47740   0.00000  Uiso   1.00
Cl148  Cl    0.87365   0.25476   0.47739   0.00000  Uiso   1.00
Cl149  Cl    0.79301   0.07857   0.02260   0.00000  Uiso   1.00
Cl150  Cl    0.83915   0.26510   0.11583   0.00000  Uiso   1.00
Cu151  Cu    0.83333   0.21355   0.25000   0.00000  Uiso   1.00
Cu152  Cu    0.83333   0.11978   0.25000   0.00000  Uiso   1.00
N153   N     0.83333   0.28402   0.25000   0.00000  Uiso   1.00
N154   N     0.83333   0.04931   0.25000   0.00000  Uiso   1.00
O155   O     0.77321   0.20625   0.24999   0.00000  Uiso   1.00
O156   O     0.89345   0.12709   0.25001   0.00000  Uiso   1.00
O157   O     0.89345   0.20625   0.25001   0.00000  Uiso   1.00
O158   O     0.77321   0.12709   0.24999   0.00000  Uiso   1.00
O159   O     0.83333   0.20626   0.18573   0.00000  Uiso   1.00
O160   O     0.83334   0.12707   0.31427   0.00000  Uiso   1.00
O161   O     0.83334   0.20626   0.31427   0.00000  Uiso   1.00
O162   O     0.83333   0.12707   0.18573   0.00000  Uiso   1.00
C163   C     0.08758   0.50000   0.25318   0.00000  Uiso   1.00
C164   C     0.31227   0.54270   0.24534   0.00000  Uiso   1.00
C165   C     0.31227   0.45730   0.24535   0.00000  Uiso   1.00
C166   C     0.02106   0.54270   0.25465   0.00000  Uiso   1.00
C167   C     0.15585   0.54174   0.04684   0.00000  Uiso   1.00
C168   C     0.17749   0.45827   0.45316   0.00000  Uiso   1.00
C169   C     0.17749   0.54173   0.45316   0.00000  Uiso   1.00
C170   C     0.15584   0.45827   0.04684   0.00000  Uiso   1.00
C171   C     0.16344   0.54262   0.09221   0.00000  Uiso   1.00
C172   C     0.16990   0.45738   0.40779   0.00000  Uiso   1.00
C173   C     0.16990   0.54262   0.40779   0.00000  Uiso   1.00
C174   C     0.24575   0.50000   0.24682   0.00000  Uiso   1.00
C175   C     0.16343   0.45738   0.09221   0.00000  Uiso   1.00
C176   C     0.16677   0.50000   0.11612   0.00000  Uiso   1.00
C177   C     0.16657   0.50000   0.38388   0.00000  Uiso   1.00
C178   C     0.16155   0.50000   0.02366   0.00000  Uiso   1.00
C179   C     0.17178   0.50000   0.47634   0.00000  Uiso   1.00
C180   C     0.29045   0.50000   0.24425   0.00000  Uiso   1.00
C181   C     0.04288   0.50000   0.25575   0.00000  Uiso   1.00
C182   C     0.16776   0.50000   0.16483   0.00000  Uiso   1.00
C183   C     0.16557   0.50000   0.33517   0.00000  Uiso   1.00
C184   C     0.13950   0.35809   0.22277   0.00000  Uiso   1.00
C185   C     0.19383   0.64191   0.27723   0.00000  Uiso   1.00
C186   C     0.19383   0.35809   0.27723   0.00000  Uiso   1.00
C187   C     0.13950   0.64191   0.22277   0.00000  Uiso   1.00
C188   C     0.02106   0.45730   0.25466   0.00000  Uiso   1.00
Cl189  Cl    0.10378   0.38752   0.18699   0.00000  Uiso   1.00
Cl190  Cl    0.16085   0.40157   0.38417   0.00000  Uiso   1.00
Cl191  Cl    0.16086   0.59843   0.38417   0.00000  Uiso   1.00
Cl192  Cl    0.17247   0.40157   0.11583   0.00000  Uiso   1.00
Cl193  Cl    0.04422   0.40313   0.27023   0.00000  Uiso   1.00
Cl194  Cl    0.28911   0.59687   0.22977   0.00000  Uiso   1.00
Cl195  Cl    0.28911   0.40313   0.22978   0.00000  Uiso   1.00
Cl196  Cl    0.04422   0.59687   0.27022   0.00000  Uiso   1.00
Cl197  Cl    0.22955   0.61248   0.31301   0.00000  Uiso   1.00
Cl198  Cl    0.22955   0.38752   0.31301   0.00000  Uiso   1.00
Cl199  Cl    0.10379   0.61248   0.18699   0.00000  Uiso   1.00
Cl200  Cl    0.12636   0.58811   0.02260   0.00000  Uiso   1.00
Cl201  Cl    0.20697   0.41190   0.47740   0.00000  Uiso   1.00
Cl202  Cl    0.20699   0.58810   0.47739   0.00000  Uiso   1.00
Cl203  Cl    0.12635   0.41191   0.02260   0.00000  Uiso   1.00
Cl204  Cl    0.17248   0.59843   0.11583   0.00000  Uiso   1.00
Cu205  Cu    0.16667   0.54689   0.25000   0.00000  Uiso   1.00
Cu206  Cu    0.16667   0.45311   0.25000   0.00000  Uiso   1.00
N207   N     0.16667   0.61736   0.25000   0.00000  Uiso   1.00
N208   N     0.16667   0.38264   0.25000   0.00000  Uiso   1.00
O209   O     0.10655   0.53958   0.24999   0.00000  Uiso   1.00
O210   O     0.22679   0.46042   0.25001   0.00000  Uiso   1.00
O211   O     0.22679   0.53958   0.25001   0.00000  Uiso   1.00
O212   O     0.10655   0.46042   0.24999   0.00000  Uiso   1.00
O213   O     0.16666   0.53959   0.18573   0.00000  Uiso   1.00
O214   O     0.16667   0.46041   0.31427   0.00000  Uiso   1.00
O215   O     0.16667   0.53959   0.31427   0.00000  Uiso   1.00
O216   O     0.16666   0.46041   0.18573   0.00000  Uiso   1.00
C217   C     0.42091   0.50000   0.25318   0.00000  Uiso   1.00
C218   C     0.64561   0.54270   0.24534   0.00000  Uiso   1.00
C219   C     0.64561   0.45730   0.24535   0.00000  Uiso   1.00
C220   C     0.35439   0.54270   0.25465   0.00000  Uiso   1.00
C221   C     0.48918   0.54174   0.04684   0.00000  Uiso   1.00
C222   C     0.51082   0.45827   0.45316   0.00000  Uiso   1.00
C223   C     0.51082   0.54173   0.45316   0.00000  Uiso   1.00
C224   C     0.48917   0.45827   0.04684   0.00000  Uiso   1.00
C225   C     0.49677   0.54262   0.09221   0.00000  Uiso   1.00
C226   C     0.50323   0.45738   0.40779   0.00000  Uiso   1.00
C227   C     0.50324   0.54262   0.40779   0.00000  Uiso   1.00
C228   C     0.57909   0.50000   0.24682   0.00000  Uiso   1.00
C229   C     0.49676   0.45738   0.09221   0.00000  Uiso   1.00
C230   C     0.50010   0.50000   0.11612   0.00000  Uiso   1.00
C231   C     0.49990   0.50000   0.38388   0.00000  Uiso   1.00
C232   C     0.49488   0.50000   0.02366   0.00000  Uiso   1.00
C233   C     0.50512   0.50000   0.47634   0.00000  Uiso   1.00
C234   C     0.62379   0.50000   0.24425   0.00000  Uiso   1.00
C235   C     0.37621   0.50000   0.25575   0.00000  Uiso   1.00
C236   C     0.50109   0.50000   0.16483   0.00000  Uiso   1.00
C237   C     0.49891   0.50000   0.33517   0.00000  Uiso   1.00
C238   C     0.47284   0.35809   0.22277   0.00000  Uiso   1.00
C239   C     0.52716   0.64191   0.27723   0.00000  Uiso   1.00
C240   C     0.52716   0.35809   0.27723   0.00000  Uiso   1.00
C241   C     0.47284   0.64191   0.22277   0.00000  Uiso   1.00
C242   C     0.35439   0.45730   0.25466   0.00000  Uiso   1.00
Cl243  Cl    0.43712   0.38752   0.18699   0.00000  Uiso   1.00
Cl244  Cl    0.49419   0.40157   0.38417   0.00000  Uiso   1.00
Cl245  Cl    0.49419   0.59843   0.38417   0.00000  Uiso   1.00
Cl246  Cl    0.50580   0.40157   0.11583   0.00000  Uiso   1.00
Cl247  Cl    0.37756   0.40313   0.27023   0.00000  Uiso   1.00
Cl248  Cl    0.62244   0.59687   0.22977   0.00000  Uiso   1.00
Cl249  Cl    0.62244   0.40313   0.22978   0.00000  Uiso   1.00
Cl250  Cl    0.37756   0.59687   0.27022   0.00000  Uiso   1.00
Cl251  Cl    0.56288   0.61248   0.31301   0.00000  Uiso   1.00
Cl252  Cl    0.56288   0.38752   0.31301   0.00000  Uiso   1.00
Cl253  Cl    0.43712   0.61248   0.18699   0.00000  Uiso   1.00
Cl254  Cl    0.45970   0.58811   0.02260   0.00000  Uiso   1.00
Cl255  Cl    0.54031   0.41190   0.47740   0.00000  Uiso   1.00
Cl256  Cl    0.54032   0.58810   0.47739   0.00000  Uiso   1.00
Cl257  Cl    0.45968   0.41191   0.02260   0.00000  Uiso   1.00
Cl258  Cl    0.50582   0.59843   0.11583   0.00000  Uiso   1.00
Cu259  Cu    0.50000   0.54689   0.25000   0.00000  Uiso   1.00
Cu260  Cu    0.50000   0.45311   0.25000   0.00000  Uiso   1.00
N261   N     0.50000   0.61736   0.25000   0.00000  Uiso   1.00
N262   N     0.50000   0.38264   0.25000   0.00000  Uiso   1.00
O263   O     0.43988   0.53958   0.24999   0.00000  Uiso   1.00
O264   O     0.56012   0.46042   0.25001   0.00000  Uiso   1.00
O265   O     0.56012   0.53958   0.25001   0.00000  Uiso   1.00
O266   O     0.43988   0.46042   0.24999   0.00000  Uiso   1.00
O267   O     0.50000   0.53959   0.18573   0.00000  Uiso   1.00
O268   O     0.50000   0.46041   0.31427   0.00000  Uiso   1.00
O269   O     0.50000   0.53959   0.31427   0.00000  Uiso   1.00
O270   O     0.50000   0.46041   0.18573   0.00000  Uiso   1.00
C271   C     0.75425   0.50000   0.25318   0.00000  Uiso   1.00
C272   C     0.97894   0.54270   0.24534   0.00000  Uiso   1.00
C273   C     0.97894   0.45730   0.24535   0.00000  Uiso   1.00
C274   C     0.68773   0.54270   0.25465   0.00000  Uiso   1.00
C275   C     0.82251   0.54174   0.04684   0.00000  Uiso   1.00
C276   C     0.84415   0.45827   0.45316   0.00000  Uiso   1.00
C277   C     0.84416   0.54173   0.45316   0.00000  Uiso   1.00
C278   C     0.82251   0.45827   0.04684   0.00000  Uiso   1.00
C279   C     0.83010   0.54262   0.09221   0.00000  Uiso   1.00
C280   C     0.83657   0.45738   0.40779   0.00000  Uiso   1.00
C281   C     0.83657   0.54262   0.40779   0.00000  Uiso   1.00
C282   C     0.91242   0.50000   0.24682   0.00000  Uiso   1.00
C283   C     0.83010   0.45738   0.09221   0.00000  Uiso   1.00
C284   C     0.83343   0.50000   0.11612   0.00000  Uiso   1.00
C285   C     0.83323   0.50000   0.38388   0.00000  Uiso   1.00
C286   C     0.82822   0.50000   0.02366   0.00000  Uiso   1.00
C287   C     0.83845   0.50000   0.47634   0.00000  Uiso   1.00
C288   C     0.95712   0.50000   0.24425   0.00000  Uiso   1.00
C289   C     0.70955   0.50000   0.25575   0.00000  Uiso   1.00
C290   C     0.83443   0.50000   0.16483   0.00000  Uiso   1.00
C291   C     0.83224   0.50000   0.33517   0.00000  Uiso   1.00
C292   C     0.80617   0.35809   0.22277   0.00000  Uiso   1.00
C293   C     0.86050   0.64191   0.27723   0.00000  Uiso   1.00
C294   C     0.86049   0.35809   0.27723   0.00000  Uiso   1.00
C295   C     0.80617   0.64191   0.22277   0.00000  Uiso   1.00
C296   C     0.68773   0.45730   0.25466   0.00000  Uiso   1.00
Cl297  Cl    0.77045   0.38752   0.18699   0.00000  Uiso   1.00
Cl298  Cl    0.82752   0.40157   0.38417   0.00000  Uiso   1.00
Cl299  Cl    0.82753   0.59843   0.38417   0.00000  Uiso   1.00
Cl300  Cl    0.83914   0.40157   0.11583   0.00000  Uiso   1.00
Cl301  Cl    0.71089   0.40313   0.27023   0.00000  Uiso   1.00
Cl302  Cl    0.95578   0.59687   0.22977   0.00000  Uiso   1.00
Cl303  Cl    0.95578   0.40313   0.22978   0.00000  Uiso   1.00
Cl304  Cl    0.71089   0.59687   0.27022   0.00000  Uiso   1.00
Cl305  Cl    0.89621   0.61248   0.31301   0.00000  Uiso   1.00
Cl306  Cl    0.89621   0.38752   0.31301   0.00000  Uiso   1.00
Cl307  Cl    0.77045   0.61248   0.18699   0.00000  Uiso   1.00
Cl308  Cl    0.79303   0.58811   0.02260   0.00000  Uiso   1.00
Cl309  Cl    0.87364   0.41190   0.47740   0.00000  Uiso   1.00
Cl310  Cl    0.87365   0.58810   0.47739   0.00000  Uiso   1.00
Cl311  Cl    0.79301   0.41191   0.02260   0.00000  Uiso   1.00
Cl312  Cl    0.83915   0.59843   0.11583   0.00000  Uiso   1.00
Cu313  Cu    0.83333   0.54689   0.25000   0.00000  Uiso   1.00
Cu314  Cu    0.83333   0.45311   0.25000   0.00000  Uiso   1.00
N315   N     0.83333   0.61736   0.25000   0.00000  Uiso   1.00
N316   N     0.83333   0.38264   0.25000   0.00000  Uiso   1.00
O317   O     0.77321   0.53958   0.24999   0.00000  Uiso   1.00
O318   O     0.89345   0.46042   0.25001   0.00000  Uiso   1.00
O319   O     0.89345   0.53958   0.25001   0.00000  Uiso   1.00
O320   O     0.77321   0.46042   0.24999   0.00000  Uiso   1.00
O321   O     0.83333   0.53959   0.18573   0.00000  Uiso   1.00
O322   O     0.83334   0.46041   0.31427   0.00000  Uiso   1.00
O323   O     0.83334   0.53959   0.31427   0.00000  Uiso   1.00
O324   O     0.83333   0.46041   0.18573   0.00000  Uiso   1.00
C325   C     0.08758   0.83333   0.25318   0.00000  Uiso   1.00
C326   C     0.31227   0.87603   0.24534   0.00000  Uiso   1.00
C327   C     0.31227   0.79063   0.24535   0.00000  Uiso   1.00
C328   C     0.02106   0.87603   0.25465   0.00000  Uiso   1.00
C329   C     0.15585   0.87507   0.04684   0.00000  Uiso   1.00
C330   C     0.17749   0.79160   0.45316   0.00000  Uiso   1.00
C331   C     0.17749   0.87507   0.45316   0.00000  Uiso   1.00
C332   C     0.15584   0.79160   0.04684   0.00000  Uiso   1.00
C333   C     0.16344   0.87595   0.09221   0.00000  Uiso   1.00
C334   C     0.16990   0.79071   0.40779   0.00000  Uiso   1.00
C335   C     0.16990   0.87595   0.40779   0.00000  Uiso   1.00
C336   C     0.24575   0.83333   0.24682   0.00000  Uiso   1.00
C337   C     0.16343   0.79071   0.09221   0.00000  Uiso   1.00
C338   C     0.16677   0.83333   0.11612   0.00000  Uiso   1.00
C339   C     0.16657   0.83333   0.38388   0.00000  Uiso   1.00
C340   C     0.16155   0.83333   0.02366   0.00000  Uiso   1.00
C341   C     0.17178   0.83333   0.47634   0.00000  Uiso   1.00
C342   C     0.29045   0.83333   0.24425   0.00000  Uiso   1.00
C343   C     0.04288   0.83333   0.25575   0.00000  Uiso   1.00
C344   C     0.16776   0.83333   0.16483   0.00000  Uiso   1.00
C345   C     0.16557   0.83333   0.33517   0.00000  Uiso   1.00
C346   C     0.13950   0.69142   0.22277   0.00000  Uiso   1.00
C347   C     0.19383   0.97524   0.27723   0.00000  Uiso   1.00
C348   C     0.19383   0.69143   0.27723   0.00000  Uiso   1.00
C349   C     0.13950   0.97524   0.22277   0.00000  Uiso   1.00
C350   C     0.02106   0.79063   0.25466   0.00000  Uiso   1.00
Cl351  Cl    0.10378   0.72085   0.18699   0.00000  Uiso   1.00
Cl352  Cl    0.16085   0.73490   0.38417   0.00000  Uiso   1.00
Cl353  Cl    0.16086   0.93177   0.38417   0.00000  Uiso   1.00
Cl354  Cl    0.17247   0.73490   0.11583   0.00000  Uiso   1.00
Cl355  Cl    0.04422   0.73647   0.27023   0.00000  Uiso   1.00
Cl356  Cl    0.28911   0.93020   0.22977   0.00000  Uiso   1.00
Cl357  Cl    0.28911   0.73646   0.22978   0.00000  Uiso   1.00
Cl358  Cl    0.04422   0.93020   0.27022   0.00000  Uiso   1.00
Cl359  Cl    0.22955   0.94582   0.31301   0.00000  Uiso   1.00
Cl360  Cl    0.22955   0.72085   0.31301   0.00000  Uiso   1.00
Cl361  Cl    0.10379   0.94581   0.18699   0.00000  Uiso   1.00
Cl362  Cl    0.12636   0.92144   0.02260   0.00000  Uiso   1.00
Cl363  Cl    0.20697   0.74523   0.47740   0.00000  Uiso   1.00
Cl364  Cl    0.20699   0.92143   0.47739   0.00000  Uiso   1.00
Cl365  Cl    0.12635   0.74524   0.02260   0.00000  Uiso   1.00
Cl366  Cl    0.17248   0.93176   0.11583   0.00000  Uiso   1.00
Cu367  Cu    0.16667   0.88022   0.25000   0.00000  Uiso   1.00
Cu368  Cu    0.16667   0.78645   0.25000   0.00000  Uiso   1.00
N369   N     0.16667   0.95069   0.25000   0.00000  Uiso   1.00
N370   N     0.16667   0.71598   0.25000   0.00000  Uiso   1.00
O371   O     0.10655   0.87291   0.24999   0.00000  Uiso   1.00
O372   O     0.22679   0.79375   0.25001   0.00000  Uiso   1.00
O373   O     0.22679   0.87291   0.25001   0.00000  Uiso   1.00
O374   O     0.10655   0.79375   0.24999   0.00000  Uiso   1.00
O375   O     0.16666   0.87293   0.18573   0.00000  Uiso   1.00
O376   O     0.16667   0.79374   0.31427   0.00000  Uiso   1.00
O377   O     0.16667   0.87293   0.31427   0.00000  Uiso   1.00
O378   O     0.16666   0.79374   0.18573   0.00000  Uiso   1.00
C379   C     0.42091   0.83333   0.25318   0.00000  Uiso   1.00
C380   C     0.64561   0.87603   0.24534   0.00000  Uiso   1.00
C381   C     0.64561   0.79063   0.24535   0.00000  Uiso   1.00
C382   C     0.35439   0.87603   0.25465   0.00000  Uiso   1.00
C383   C     0.48918   0.87507   0.04684   0.00000  Uiso   1.00
C384   C     0.51082   0.79160   0.45316   0.00000  Uiso   1.00
C385   C     0.51082   0.87507   0.45316   0.00000  Uiso   1.00
C386   C     0.48917   0.79160   0.04684   0.00000  Uiso   1.00
C387   C     0.49677   0.87595   0.09221   0.00000  Uiso   1.00
C388   C     0.50323   0.79071   0.40779   0.00000  Uiso   1.00
C389   C     0.50324   0.87595   0.40779   0.00000  Uiso   1.00
C390   C     0.57909   0.83333   0.24682   0.00000  Uiso   1.00
C391   C     0.49676   0.79071   0.09221   0.00000  Uiso   1.00
C392   C     0.50010   0.83333   0.11612   0.00000  Uiso   1.00
C393   C     0.49990   0.83333   0.38388   0.00000  Uiso   1.00
C394   C     0.49488   0.83333   0.02366   0.00000  Uiso   1.00
C395   C     0.50512   0.83333   0.47634   0.00000  Uiso   1.00
C396   C     0.62379   0.83333   0.24425   0.00000  Uiso   1.00
C397   C     0.37621   0.83333   0.25575   0.00000  Uiso   1.00
C398   C     0.50109   0.83333   0.16483   0.00000  Uiso   1.00
C399   C     0.49891   0.83333   0.33517   0.00000  Uiso   1.00
C400   C     0.47284   0.69142   0.22277   0.00000  Uiso   1.00
C401   C     0.52716   0.97524   0.27723   0.00000  Uiso   1.00
C402   C     0.52716   0.69143   0.27723   0.00000  Uiso   1.00
C403   C     0.47284   0.97524   0.22277   0.00000  Uiso   1.00
C404   C     0.35439   0.79063   0.25466   0.00000  Uiso   1.00
Cl405  Cl    0.43712   0.72085   0.18699   0.00000  Uiso   1.00
Cl406  Cl    0.49419   0.73490   0.38417   0.00000  Uiso   1.00
Cl407  Cl    0.49419   0.93177   0.38417   0.00000  Uiso   1.00
Cl408  Cl    0.50580   0.73490   0.11583   0.00000  Uiso   1.00
Cl409  Cl    0.37756   0.73647   0.27023   0.00000  Uiso   1.00
Cl410  Cl    0.62244   0.93020   0.22977   0.00000  Uiso   1.00
Cl411  Cl    0.62244   0.73646   0.22978   0.00000  Uiso   1.00
Cl412  Cl    0.37756   0.93020   0.27022   0.00000  Uiso   1.00
Cl413  Cl    0.56288   0.94582   0.31301   0.00000  Uiso   1.00
Cl414  Cl    0.56288   0.72085   0.31301   0.00000  Uiso   1.00
Cl415  Cl    0.43712   0.94581   0.18699   0.00000  Uiso   1.00
Cl416  Cl    0.45970   0.92144   0.02260   0.00000  Uiso   1.00
Cl417  Cl    0.54031   0.74523   0.47740   0.00000  Uiso   1.00
Cl418  Cl    0.54032   0.92143   0.47739   0.00000  Uiso   1.00
Cl419  Cl    0.45968   0.74524   0.02260   0.00000  Uiso   1.00
Cl420  Cl    0.50582   0.93176   0.11583   0.00000  Uiso   1.00
Cu421  Cu    0.50000   0.88022   0.25000   0.00000  Uiso   1.00
Cu422  Cu    0.50000   0.78645   0.25000   0.00000  Uiso   1.00
N423   N     0.50000   0.95069   0.25000   0.00000  Uiso   1.00
N424   N     0.50000   0.71598   0.25000   0.00000  Uiso   1.00
O425   O     0.43988   0.87291   0.24999   0.00000  Uiso   1.00
O426   O     0.56012   0.79375   0.25001   0.00000  Uiso   1.00
O427   O     0.56012   0.87291   0.25001   0.00000  Uiso   1.00
O428   O     0.43988   0.79375   0.24999   0.00000  Uiso   1.00
O429   O     0.50000   0.87293   0.18573   0.00000  Uiso   1.00
O430   O     0.50000   0.79374   0.31427   0.00000  Uiso   1.00
O431   O     0.50000   0.87293   0.31427   0.00000  Uiso   1.00
O432   O     0.50000   0.79374   0.18573   0.00000  Uiso   1.00
C433   C     0.75425   0.83333   0.25318   0.00000  Uiso   1.00
C434   C     0.97894   0.87603   0.24534   0.00000  Uiso   1.00
C435   C     0.97894   0.79063   0.24535   0.00000  Uiso   1.00
C436   C     0.68773   0.87603   0.25465   0.00000  Uiso   1.00
C437   C     0.82251   0.87507   0.04684   0.00000  Uiso   1.00
C438   C     0.84415   0.79160   0.45316   0.00000  Uiso   1.00
C439   C     0.84416   0.87507   0.45316   0.00000  Uiso   1.00
C440   C     0.82251   0.79160   0.04684   0.00000  Uiso   1.00
C441   C     0.83010   0.87595   0.09221   0.00000  Uiso   1.00
C442   C     0.83657   0.79071   0.40779   0.00000  Uiso   1.00
C443   C     0.83657   0.87595   0.40779   0.00000  Uiso   1.00
C444   C     0.91242   0.83333   0.24682   0.00000  Uiso   1.00
C445   C     0.83010   0.79071   0.09221   0.00000  Uiso   1.00
C446   C     0.83343   0.83333   0.11612   0.00000  Uiso   1.00
C447   C     0.83323   0.83333   0.38388   0.00000  Uiso   1.00
C448   C     0.82822   0.83333   0.02366   0.00000  Uiso   1.00
C449   C     0.83845   0.83333   0.47634   0.00000  Uiso   1.00
C450   C     0.95712   0.83333   0.24425   0.00000  Uiso   1.00
C451   C     0.70955   0.83333   0.25575   0.00000  Uiso   1.00
C452   C     0.83443   0.83333   0.16483   0.00000  Uiso   1.00
C453   C     0.83224   0.83333   0.33517   0.00000  Uiso   1.00
C454   C     0.80617   0.69142   0.22277   0.00000  Uiso   1.00
C455   C     0.86050   0.97524   0.27723   0.00000  Uiso   1.00
C456   C     0.86049   0.69143   0.27723   0.00000  Uiso   1.00
C457   C     0.80617   0.97524   0.22277   0.00000  Uiso   1.00
C458   C     0.68773   0.79063   0.25466   0.00000  Uiso   1.00
Cl459  Cl    0.77045   0.72085   0.18699   0.00000  Uiso   1.00
Cl460  Cl    0.82752   0.73490   0.38417   0.00000  Uiso   1.00
Cl461  Cl    0.82753   0.93177   0.38417   0.00000  Uiso   1.00
Cl462  Cl    0.83914   0.73490   0.11583   0.00000  Uiso   1.00
Cl463  Cl    0.71089   0.73647   0.27023   0.00000  Uiso   1.00
Cl464  Cl    0.95578   0.93020   0.22977   0.00000  Uiso   1.00
Cl465  Cl    0.95578   0.73646   0.22978   0.00000  Uiso   1.00
Cl466  Cl    0.71089   0.93020   0.27022   0.00000  Uiso   1.00
Cl467  Cl    0.89621   0.94582   0.31301   0.00000  Uiso   1.00
Cl468  Cl    0.89621   0.72085   0.31301   0.00000  Uiso   1.00
Cl469  Cl    0.77045   0.94581   0.18699   0.00000  Uiso   1.00
Cl470  Cl    0.79303   0.92144   0.02260   0.00000  Uiso   1.00
Cl471  Cl    0.87364   0.74523   0.47740   0.00000  Uiso   1.00
Cl472  Cl    0.87365   0.92143   0.47739   0.00000  Uiso   1.00
Cl473  Cl    0.79301   0.74524   0.02260   0.00000  Uiso   1.00
Cl474  Cl    0.83915   0.93176   0.11583   0.00000  Uiso   1.00
Cu475  Cu    0.83333   0.88022   0.25000   0.00000  Uiso   1.00
Cu476  Cu    0.83333   0.78645   0.25000   0.00000  Uiso   1.00
N477   N     0.83333   0.95069   0.25000   0.00000  Uiso   1.00
N478   N     0.83333   0.71598   0.25000   0.00000  Uiso   1.00
O479   O     0.77321   0.87291   0.24999   0.00000  Uiso   1.00
O480   O     0.89345   0.79375   0.25001   0.00000  Uiso   1.00
O481   O     0.89345   0.87291   0.25001   0.00000  Uiso   1.00
O482   O     0.77321   0.79375   0.24999   0.00000  Uiso   1.00
O483   O     0.83333   0.87293   0.18573   0.00000  Uiso   1.00
O484   O     0.83334   0.79374   0.31427   0.00000  Uiso   1.00
O485   O     0.83334   0.87293   0.31427   0.00000  Uiso   1.00
O486   O     0.83333   0.79374   0.18573   0.00000  Uiso   1.00
C487   C     0.08758   0.16667   0.75318   0.00000  Uiso   1.00
C488   C     0.31227   0.20937   0.74534   0.00000  Uiso   1.00
C489   C     0.31227   0.12397   0.74535   0.00000  Uiso   1.00
C490   C     0.02106   0.20937   0.75465   0.00000  Uiso   1.00
C491   C     0.15585   0.20840   0.54684   0.00000  Uiso   1.00
C492   C     0.17749   0.12493   0.95316   0.00000  Uiso   1.00
C493   C     0.17749   0.20840   0.95316   0.00000  Uiso   1.00
C494   C     0.15584   0.12494   0.54684   0.00000  Uiso   1.00
C495   C     0.16344   0.20929   0.59221   0.00000  Uiso   1.00
C496   C     0.16990   0.12405   0.90779   0.00000  Uiso   1.00
C497   C     0.16990   0.20929   0.90779   0.00000  Uiso   1.00
C498   C     0.24575   0.16667   0.74682   0.00000  Uiso   1.00
C499   C     0.16343   0.12405   0.59221   0.00000  Uiso   1.00
C500   C     0.16677   0.16667   0.61612   0.00000  Uiso   1.00
C501   C     0.16657   0.16667   0.88388   0.00000  Uiso   1.00
C502   C     0.16155   0.16667   0.52366   0.00000  Uiso   1.00
C503   C     0.17178   0.16667   0.97634   0.00000  Uiso   1.00
C504   C     0.29045   0.16667   0.74425   0.00000  Uiso   1.00
C505   C     0.04288   0.16667   0.75575   0.00000  Uiso   1.00
C506   C     0.16776   0.16667   0.66483   0.00000  Uiso   1.00
C507   C     0.16557   0.16667   0.83517   0.00000  Uiso   1.00
C508   C     0.13950   0.02476   0.72277   0.00000  Uiso   1.00
C509   C     0.19383   0.30857   0.77723   0.00000  Uiso   1.00
C510   C     0.19383   0.02476   0.77723   0.00000  Uiso   1.00
C511   C     0.13950   0.30857   0.72277   0.00000  Uiso   1.00
C512   C     0.02106   0.12397   0.75466   0.00000  Uiso   1.00
Cl513  Cl    0.10378   0.05418   0.68699   0.00000  Uiso   1.00
Cl514  Cl    0.16085   0.06823   0.88417   0.00000  Uiso   1.00
Cl515  Cl    0.16086   0.26510   0.88417   0.00000  Uiso   1.00
Cl516  Cl    0.17247   0.06823   0.61583   0.00000  Uiso   1.00
Cl517  Cl    0.04422   0.06980   0.77023   0.00000  Uiso   1.00
Cl518  Cl    0.28911   0.26353   0.72977   0.00000  Uiso   1.00
Cl519  Cl    0.28911   0.06980   0.72978   0.00000  Uiso   1.00
Cl520  Cl    0.04422   0.26354   0.77022   0.00000  Uiso   1.00
Cl521  Cl    0.22955   0.27915   0.81301   0.00000  Uiso   1.00
Cl522  Cl    0.22955   0.05419   0.81301   0.00000  Uiso   1.00
Cl523  Cl    0.10379   0.27915   0.68699   0.00000  Uiso   1.00
Cl524  Cl    0.12636   0.25477   0.52260   0.00000  Uiso   1.00
Cl525  Cl    0.20697   0.07856   0.97740   0.00000  Uiso   1.00
Cl526  Cl    0.20699   0.25476   0.97739   0.00000  Uiso   1.00
Cl527  Cl    0.12635   0.07857   0.52260   0.00000  Uiso   1.00
Cl528  Cl    0.17248   0.26510   0.61583   0.00000  Uiso   1.00
Cu529  Cu    0.16667   0.21355   0.75000   0.00000  Uiso   1.00
Cu530  Cu    0.16667   0.11978   0.75000   0.00000  Uiso   1.00
N531   N     0.16667   0.28402   0.75000   0.00000  Uiso   1.00
N532   N     0.16667   0.04931   0.75000   0.00000  Uiso   1.00
O533   O     0.10655   0.20625   0.74999   0.00000  Uiso   1.00
O534   O     0.22679   0.12709   0.75001   0.00000  Uiso   1.00
O535   O     0.22679   0.20625   0.75001   0.00000  Uiso   1.00
O536   O     0.10655   0.12709   0.74999   0.00000  Uiso   1.00
O537   O     0.16666   0.20626   0.68573   0.00000  Uiso   1.00
O538   O     0.16667   0.12707   0.81427   0.00000  Uiso   1.00
O539   O     0.16667   0.20626   0.81427   0.00000  Uiso   1.00
O540   O     0.16666   0.12707   0.68573   0.00000  Uiso   1.00
C541   C     0.42091   0.16667   0.75318   0.00000  Uiso   1.00
C542   C     0.64561   0.20937   0.74534   0.00000  Uiso   1.00
C543   C     0.64561   0.12397   0.74535   0.00000  Uiso   1.00
C544   C     0.35439   0.20937   0.75465   0.00000  Uiso   1.00
C545   C     0.48918   0.20840   0.54684   0.00000  Uiso   1.00
C546   C     0.51082   0.12493   0.95316   0.00000  Uiso   1.00
C547   C     0.51082   0.20840   0.95316   0.00000  Uiso   1.00
C548   C     0.48917   0.12494   0.54684   0.00000  Uiso   1.00
C549   C     0.49677   0.20929   0.59221   0.00000  Uiso   1.00
C550   C     0.50323   0.12405   0.90779   0.00000  Uiso   1.00
C551   C     0.50324   0.20929   0.90779   0.00000  Uiso   1.00
C552   C     0.57909   0.16667   0.74682   0.00000  Uiso   1.00
C553   C     0.49676   0.12405   0.59221   0.00000  Uiso   1.00
C554   C     0.50010   0.16667   0.61612   0.00000  Uiso   1.00
C555   C     0.49990   0.16667   0.88388   0.00000  Uiso   1.00
C556   C     0.49488   0.16667   0.52366   0.00000  Uiso   1.00
C557   C     0.50512   0.16667   0.97634   0.00000  Uiso   1.00
C558   C     0.62379   0.16667   0.74425   0.00000  Uiso   1.00
C559   C     0.37621   0.16667   0.75575   0.00000  Uiso   1.00
C560   C     0.50109   0.16667   0.66483   0.00000  Uiso   1.00
C561   C     0.49891   0.16667   0.83517   0.00000  Uiso   1.00
C562   C     0.47284   0.02476   0.72277   0.00000  Uiso   1.00
C563   C     0.52716   0.30857   0.77723   0.00000  Uiso   1.00
C564   C     0.52716   0.02476   0.77723   0.00000  Uiso   1.00
C565   C     0.47284   0.30857   0.72277   0.00000  Uiso   1.00
C566   C     0.35439   0.12397   0.75466   0.00000  Uiso   1.00
Cl567  Cl    0.43712   0.05418   0.68699   0.00000  Uiso   1.00
Cl568  Cl    0.49419   0.06823   0.88417   0.00000  Uiso   1.00
Cl569  Cl    0.49419   0.26510   0.88417   0.00000  Uiso   1.00
Cl570  Cl    0.50580   0.06823   0.61583   0.00000  Uiso   1.00
Cl571  Cl    0.37756   0.06980   0.77023   0.00000  Uiso   1.00
Cl572  Cl    0.62244   0.26353   0.72977   0.00000  Uiso   1.00
Cl573  Cl    0.62244   0.06980   0.72978   0.00000  Uiso   1.00
Cl574  Cl    0.37756   0.26354   0.77022   0.00000  Uiso   1.00
Cl575  Cl    0.56288   0.27915   0.81301   0.00000  Uiso   1.00
Cl576  Cl    0.56288   0.05419   0.81301   0.00000  Uiso   1.00
Cl577  Cl    0.43712   0.27915   0.68699   0.00000  Uiso   1.00
Cl578  Cl    0.45970   0.25477   0.52260   0.00000  Uiso   1.00
Cl579  Cl    0.54031   0.07856   0.97740   0.00000  Uiso   1.00
Cl580  Cl    0.54032   0.25476   0.97739   0.00000  Uiso   1.00
Cl581  Cl    0.45968   0.07857   0.52260   0.00000  Uiso   1.00
Cl582  Cl    0.50582   0.26510   0.61583   0.00000  Uiso   1.00
Cu583  Cu    0.50000   0.21355   0.75000   0.00000  Uiso   1.00
Cu584  Cu    0.50000   0.11978   0.75000   0.00000  Uiso   1.00
N585   N     0.50000   0.28402   0.75000   0.00000  Uiso   1.00
N586   N     0.50000   0.04931   0.75000   0.00000  Uiso   1.00
O587   O     0.43988   0.20625   0.74999   0.00000  Uiso   1.00
O588   O     0.56012   0.12709   0.75001   0.00000  Uiso   1.00
O589   O     0.56012   0.20625   0.75001   0.00000  Uiso   1.00
O590   O     0.43988   0.12709   0.74999   0.00000  Uiso   1.00
O591   O     0.50000   0.20626   0.68573   0.00000  Uiso   1.00
O592   O     0.50000   0.12707   0.81427   0.00000  Uiso   1.00
O593   O     0.50000   0.20626   0.81427   0.00000  Uiso   1.00
O594   O     0.50000   0.12707   0.68573   0.00000  Uiso   1.00
C595   C     0.75425   0.16667   0.75318   0.00000  Uiso   1.00
C596   C     0.97894   0.20937   0.74534   0.00000  Uiso   1.00
C597   C     0.97894   0.12397   0.74535   0.00000  Uiso   1.00
C598   C     0.68773   0.20937   0.75465   0.00000  Uiso   1.00
C599   C     0.82251   0.20840   0.54684   0.00000  Uiso   1.00
C600   C     0.84415   0.12493   0.95316   0.00000  Uiso   1.00
C601   C     0.84416   0.20840   0.95316   0.00000  Uiso   1.00
C602   C     0.82251   0.12494   0.54684   0.00000  Uiso   1.00
C603   C     0.83010   0.20929   0.59221   0.00000  Uiso   1.00
C604   C     0.83657   0.12405   0.90779   0.00000  Uiso   1.00
C605   C     0.83657   0.20929   0.90779   0.00000  Uiso   1.00
C606   C     0.91242   0.16667   0.74682   0.00000  Uiso   1.00
C607   C     0.83010   0.12405   0.59221   0.00000  Uiso   1.00
C608   C     0.83343   0.16667   0.61612   0.00000  Uiso   1.00
C609   C     0.83323   0.16667   0.88388   0.00000  Uiso   1.00
C610   C     0.82822   0.16667   0.52366   0.00000  Uiso   1.00
C611   C     0.83845   0.16667   0.97634   0.00000  Uiso   1.00
C612   C     0.95712   0.16667   0.74425   0.00000  Uiso   1.00
C613   C     0.70955   0.16667   0.75575   0.00000  Uiso   1.00
C614   C     0.83443   0.16667   0.66483   0.00000  Uiso   1.00
C615   C     0.83224   0.16667   0.83517   0.00000  Uiso   1.00
C616   C     0.80617   0.02476   0.72277   0.00000  Uiso   1.00
C617   C     0.86050   0.30857   0.77723   0.00000  Uiso   1.00
C618   C     0.86049   0.02476   0.77723   0.00000  Uiso   1.00
C619   C     0.80617   0.30857   0.72277   0.00000  Uiso   1.00
C620   C     0.68773   0.12397   0.75466   0.00000  Uiso   1.00
Cl621  Cl    0.77045   0.05418   0.68699   0.00000  Uiso   1.00
Cl622  Cl    0.82752   0.06823   0.88417   0.00000  Uiso   1.00
Cl623  Cl    0.82753   0.26510   0.88417   0.00000  Uiso   1.00
Cl624  Cl    0.83914   0.06823   0.61583   0.00000  Uiso   1.00
Cl625  Cl    0.71089   0.06980   0.77023   0.00000  Uiso   1.00
Cl626  Cl    0.95578   0.26353   0.72977   0.00000  Uiso   1.00
Cl627  Cl    0.95578   0.06980   0.72978   0.00000  Uiso   1.00
Cl628  Cl    0.71089   0.26354   0.77022   0.00000  Uiso   1.00
Cl629  Cl    0.89621   0.27915   0.81301   0.00000  Uiso   1.00
Cl630  Cl    0.89621   0.05419   0.81301   0.00000  Uiso   1.00
Cl631  Cl    0.77045   0.27915   0.68699   0.00000  Uiso   1.00
Cl632  Cl    0.79303   0.25477   0.52260   0.00000  Uiso   1.00
Cl633  Cl    0.87364   0.07856   0.97740   0.00000  Uiso   1.00
Cl634  Cl    0.87365   0.25476   0.97739   0.00000  Uiso   1.00
Cl635  Cl    0.79301   0.07857   0.52260   0.00000  Uiso   1.00
Cl636  Cl    0.83915   0.26510   0.61583   0.00000  Uiso   1.00
Cu637  Cu    0.83333   0.21355   0.75000   0.00000  Uiso   1.00
Cu638  Cu    0.83333   0.11978   0.75000   0.00000  Uiso   1.00
N639   N     0.83333   0.28402   0.75000   0.00000  Uiso   1.00
N640   N     0.83333   0.04931   0.75000   0.00000  Uiso   1.00
O641   O     0.77321   0.20625   0.74999   0.00000  Uiso   1.00
O642   O     0.89345   0.12709   0.75001   0.00000  Uiso   1.00
O643   O     0.89345   0.20625   0.75001   0.00000  Uiso   1.00
O644   O     0.77321   0.12709   0.74999   0.00000  Uiso   1.00
O645   O     0.83333   0.20626   0.68573   0.00000  Uiso   1.00
O646   O     0.83334   0.12707   0.81427   0.00000  Uiso   1.00
O647   O     0.83334   0.20626   0.81427   0.00000  Uiso   1.00
O648   O     0.83333   0.12707   0.68573   0.00000  Uiso   1.00
C649   C     0.08758   0.50000   0.75318   0.00000  Uiso   1.00
C650   C     0.31227   0.54270   0.74534   0.00000  Uiso   1.00
C651   C     0.31227   0.45730   0.74535   0.00000  Uiso   1.00
C652   C     0.02106   0.54270   0.75465   0.00000  Uiso   1.00
C653   C     0.15585   0.54174   0.54684   0.00000  Uiso   1.00
C654   C     0.17749   0.45827   0.95316   0.00000  Uiso   1.00
C655   C     0.17749   0.54173   0.95316   0.00000  Uiso   1.00
C656   C     0.15584   0.45827   0.54684   0.00000  Uiso   1.00
C657   C     0.16344   0.54262   0.59221   0.00000  Uiso   1.00
C658   C     0.16990   0.45738   0.90779   0.00000  Uiso   1.00
C659   C     0.16990   0.54262   0.90779   0.00000  Uiso   1.00
C660   C     0.24575   0.50000   0.74682   0.00000  Uiso   1.00
C661   C     0.16343   0.45738   0.59221   0.00000  Uiso   1.00
C662   C     0.16677   0.50000   0.61612   0.00000  Uiso   1.00
C663   C     0.16657   0.50000   0.88388   0.00000  Uiso   1.00
C664   C     0.16155   0.50000   0.52366   0.00000  Uiso   1.00
C665   C     0.17178   0.50000   0.97634   0.00000  Uiso   1.00
C666   C     0.29045   0.50000   0.74425   0.00000  Uiso   1.00
C667   C     0.04288   0.50000   0.75575   0.00000  Uiso   1.00
C668   C     0.16776   0.50000   0.66483   0.00000  Uiso   1.00
C669   C     0.16557   0.50000   0.83517   0.00000  Uiso   1.00
C670   C     0.13950   0.35809   0.72277   0.00000  Uiso   1.00
C671   C     0.19383   0.64191   0.77723   0.00000  Uiso   1.00
C672   C     0.19383   0.35809   0.77723   0.00000  Uiso   1.00
C673   C     0.13950   0.64191   0.72277   0.00000  Uiso   1.00
C674   C     0.02106   0.45730   0.75466   0.00000  Uiso   1.00
Cl675  Cl    0.10378   0.38752   0.68699   0.00000  Uiso   1.00
Cl676  Cl    0.16085   0.40157   0.88417   0.00000  Uiso   1.00
Cl677  Cl    0.16086   0.59843   0.88417   0.00000  Uiso   1.00
Cl678  Cl    0.17247   0.40157   0.61583   0.00000  Uiso   1.00
Cl679  Cl    0.04422   0.40313   0.77023   0.00000  Uiso   1.00
Cl680  Cl    0.28911   0.59687   0.72977   0.00000  Uiso   1.00
Cl681  Cl    0.28911   0.40313   0.72978   0.00000  Uiso   1.00
Cl682  Cl    0.04422   0.59687   0.77022   0.00000  Uiso   1.00
Cl683  Cl    0.22955   0.61248   0.81301   0.00000  Uiso   1.00
Cl684  Cl    0.22955   0.38752   0.81301   0.00000  Uiso   1.00
Cl685  Cl    0.10379   0.61248   0.68699   0.00000  Uiso   1.00
Cl686  Cl    0.12636   0.58811   0.52260   0.00000  Uiso   1.00
Cl687  Cl    0.20697   0.41190   0.97740   0.00000  Uiso   1.00
Cl688  Cl    0.20699   0.58810   0.97739   0.00000  Uiso   1.00
Cl689  Cl    0.12635   0.41191   0.52260   0.00000  Uiso   1.00
Cl690  Cl    0.17248   0.59843   0.61583   0.00000  Uiso   1.00
Cu691  Cu    0.16667   0.54689   0.75000   0.00000  Uiso   1.00
Cu692  Cu    0.16667   0.45311   0.75000   0.00000  Uiso   1.00
N693   N     0.16667   0.61736   0.75000   0.00000  Uiso   1.00
N694   N     0.16667   0.38264   0.75000   0.00000  Uiso   1.00
O695   O     0.10655   0.53958   0.74999   0.00000  Uiso   1.00
O696   O     0.22679   0.46042   0.75001   0.00000  Uiso   1.00
O697   O     0.22679   0.53958   0.75001   0.00000  Uiso   1.00
O698   O     0.10655   0.46042   0.74999   0.00000  Uiso   1.00
O699   O     0.16666   0.53959   0.68573   0.00000  Uiso   1.00
O700   O     0.16667   0.46041   0.81427   0.00000  Uiso   1.00
O701   O     0.16667   0.53959   0.81427   0.00000  Uiso   1.00
O702   O     0.16666   0.46041   0.68573   0.00000  Uiso   1.00
C703   C     0.42091   0.50000   0.75318   0.00000  Uiso   1.00
C704   C     0.64561   0.54270   0.74534   0.00000  Uiso   1.00
C705   C     0.64561   0.45730   0.74535   0.00000  Uiso   1.00
C706   C     0.35439   0.54270   0.75465   0.00000  Uiso   1.00
C707   C     0.48918   0.54174   0.54684   0.00000  Uiso   1.00
C708   C     0.51082   0.45827   0.95316   0.00000  Uiso   1.00
C709   C     0.51082   0.54173   0.95316   0.00000  Uiso   1.00
C710   C     0.48917   0.45827   0.54684   0.00000  Uiso   1.00
C711   C     0.49677   0.54262   0.59221   0.00000  Uiso   1.00
C712   C     0.50323   0.45738   0.90779   0.00000  Uiso   1.00
C713   C     0.50324   0.54262   0.90779   0.00000  Uiso   1.00
C714   C     0.57909   0.50000   0.74682   0.00000  Uiso   1.00
C715   C     0.49676   0.45738   0.59221   0.00000  Uiso   1.00
C716   C     0.50010   0.50000   0.61612   0.00000  Uiso   1.00
C717   C     0.49990   0.50000   0.88388   0.00000  Uiso   1.00
C718   C     0.49488   0.50000   0.52366   0.00000  Uiso   1.00
C719   C     0.50512   0.50000   0.97634   0.00000  Uiso   1.00
C720   C     0.62379   0.50000   0.74425   0.00000  Uiso   1.00
C721   C     0.37621   0.50000   0.75575   0.00000  Uiso   1.00
C722   C     0.50109   0.50000   0.66483   0.00000  Uiso   1.00
C723   C     0.49891   0.50000   0.83517   0.00000  Uiso   1.00
C724   C     0.47284   0.35809   0.72277   0.00000  Uiso   1.00
C725   C     0.52716   0.64191   0.77723   0.00000  Uiso   1.00
C726   C     0.52716   0.35809   0.77723   0.00000  Uiso   1.00
C727   C     0.47284   0.64191   0.72277   0.00000  Uiso   1.00
C728   C     0.35439   0.45730   0.75466   0.00000  Uiso   1.00
Cl729  Cl    0.43712   0.38752   0.68699   0.00000  Uiso   1.00
Cl730  Cl    0.49419   0.40157   0.88417   0.00000  Uiso   1.00
Cl731  Cl    0.49419   0.59843   0.88417   0.00000  Uiso   1.00
Cl732  Cl    0.50580   0.40157   0.61583   0.00000  Uiso   1.00
Cl733  Cl    0.37756   0.40313   0.77023   0.00000  Uiso   1.00
Cl734  Cl    0.62244   0.59687   0.72977   0.00000  Uiso   1.00
Cl735  Cl    0.62244   0.40313   0.72978   0.00000  Uiso   1.00
Cl736  Cl    0.37756   0.59687   0.77022   0.00000  Uiso   1.00
Cl737  Cl    0.56288   0.61248   0.81301   0.00000  Uiso   1.00
Cl738  Cl    0.56288   0.38752   0.81301   0.00000  Uiso   1.00
Cl739  Cl    0.43712   0.61248   0.68699   0.00000  Uiso   1.00
Cl740  Cl    0.45970   0.58811   0.52260   0.00000  Uiso   1.00
Cl741  Cl    0.54031   0.41190   0.97740   0.00000  Uiso   1.00
Cl742  Cl    0.54032   0.58810   0.97739   0.00000  Uiso   1.00
Cl743  Cl    0.45968   0.41191   0.52260   0.00000  Uiso   1.00
Cl744  Cl    0.50582   0.59843   0.61583   0.00000  Uiso   1.00
Cu745  Cu    0.50000   0.54689   0.75000   0.00000  Uiso   1.00
Cu746  Cu    0.50000   0.45311   0.75000   0.00000  Uiso   1.00
N747   N     0.50000   0.61736   0.75000   0.00000  Uiso   1.00
N748   N     0.50000   0.38264   0.75000   0.00000  Uiso   1.00
O749   O     0.43988   0.53958   0.74999   0.00000  Uiso   1.00
O750   O     0.56012   0.46042   0.75001   0.00000  Uiso   1.00
O751   O     0.56012   0.53958   0.75001   0.00000  Uiso   1.00
O752   O     0.43988   0.46042   0.74999   0.00000  Uiso   1.00
O753   O     0.50000   0.53959   0.68573   0.00000  Uiso   1.00
O754   O     0.50000   0.46041   0.81427   0.00000  Uiso   1.00
O755   O     0.50000   0.53959   0.81427   0.00000  Uiso   1.00
O756   O     0.50000   0.46041   0.68573   0.00000  Uiso   1.00
C757   C     0.75425   0.50000   0.75318   0.00000  Uiso   1.00
C758   C     0.97894   0.54270   0.74534   0.00000  Uiso   1.00
C759   C     0.97894   0.45730   0.74535   0.00000  Uiso   1.00
C760   C     0.68773   0.54270   0.75465   0.00000  Uiso   1.00
C761   C     0.82251   0.54174   0.54684   0.00000  Uiso   1.00
C762   C     0.84415   0.45827   0.95316   0.00000  Uiso   1.00
C763   C     0.84416   0.54173   0.95316   0.00000  Uiso   1.00
C764   C     0.82251   0.45827   0.54684   0.00000  Uiso   1.00
C765   C     0.83010   0.54262   0.59221   0.00000  Uiso   1.00
C766   C     0.83657   0.45738   0.90779   0.00000  Uiso   1.00
C767   C     0.83657   0.54262   0.90779   0.00000  Uiso   1.00
C768   C     0.91242   0.50000   0.74682   0.00000  Uiso   1.00
C769   C     0.83010   0.45738   0.59221   0.00000  Uiso   1.00
C770   C     0.83343   0.50000   0.61612   0.00000  Uiso   1.00
C771   C     0.83323   0.50000   0.88388   0.00000  Uiso   1.00
C772   C     0.82822   0.50000   0.52366   0.00000  Uiso   1.00
C773   C     0.83845   0.50000   0.97634   0.00000  Uiso   1.00
C774   C     0.95712   0.50000   0.74425   0.00000  Uiso   1.00
C775   C     0.70955   0.50000   0.75575   0.00000  Uiso   1.00
C776   C     0.83443   0.50000   0.66483   0.00000  Uiso   1.00
C777   C     0.83224   0.50000   0.83517   0.00000  Uiso   1.00
C778   C     0.80617   0.35809   0.72277   0.00000  Uiso   1.00
C779   C     0.86050   0.64191   0.77723   0.00000  Uiso   1.00
C780   C     0.86049   0.35809   0.77723   0.00000  Uiso   1.00
C781   C     0.80617   0.64191   0.72277   0.00000  Uiso   1.00
C782   C     0.68773   0.45730   0.75466   0.00000  Uiso   1.00
Cl783  Cl    0.77045   0.38752   0.68699   0.00000  Uiso   1.00
Cl784  Cl    0.82752   0.40157   0.88417   0.00000  Uiso   1.00
Cl785  Cl    0.82753   0.59843   0.88417   0.00000  Uiso   1.00
Cl786  Cl    0.83914   0.40157   0.61583   0.00000  Uiso   1.00
Cl787  Cl    0.71089   0.40313   0.77023   0.00000  Uiso   1.00
Cl788  Cl    0.95578   0.59687   0.72977   0.00000  Uiso   1.00
Cl789  Cl    0.95578   0.40313   0.72978   0.00000  Uiso   1.00
Cl790  Cl    0.71089   0.59687   0.77022   0.00000  Uiso   1.00
Cl791  Cl    0.89621   0.61248   0.81301   0.00000  Uiso   1.00
Cl792  Cl    0.89621   0.38752   0.81301   0.00000  Uiso   1.00
Cl793  Cl    0.77045   0.61248   0.68699   0.00000  Uiso   1.00
Cl794  Cl    0.79303   0.58811   0.52260   0.00000  Uiso   1.00
Cl795  Cl    0.87364   0.41190   0.97740   0.00000  Uiso   1.00
Cl796  Cl    0.87365   0.58810   0.97739   0.00000  Uiso   1.00
Cl797  Cl    0.79301   0.41191   0.52260   0.00000  Uiso   1.00
Cl798  Cl    0.83915   0.59843   0.61583   0.00000  Uiso   1.00
Cu799  Cu    0.83333   0.54689   0.75000   0.00000  Uiso   1.00
Cu800  Cu    0.83333   0.45311   0.75000   0.00000  Uiso   1.00
N801   N     0.83333   0.61736   0.75000   0.00000  Uiso   1.00
N802   N     0.83333   0.38264   0.75000   0.00000  Uiso   1.00
O803   O     0.77321   0.53958   0.74999   0.00000  Uiso   1.00
O804   O     0.89345   0.46042   0.75001   0.00000  Uiso   1.00
O805   O     0.89345   0.53958   0.75001   0.00000  Uiso   1.00
O806   O     0.77321   0.46042   0.74999   0.00000  Uiso   1.00
O807   O     0.83333   0.53959   0.68573   0.00000  Uiso   1.00
O808   O     0.83334   0.46041   0.81427   0.00000  Uiso   1.00
O809   O     0.83334   0.53959   0.81427   0.00000  Uiso   1.00
O810   O     0.83333   0.46041   0.68573   0.00000  Uiso   1.00
C811   C     0.08758   0.83333   0.75318   0.00000  Uiso   1.00
C812   C     0.31227   0.87603   0.74534   0.00000  Uiso   1.00
C813   C     0.31227   0.79063   0.74535   0.00000  Uiso   1.00
C814   C     0.02106   0.87603   0.75465   0.00000  Uiso   1.00
C815   C     0.15585   0.87507   0.54684   0.00000  Uiso   1.00
C816   C     0.17749   0.79160   0.95316   0.00000  Uiso   1.00
C817   C     0.17749   0.87507   0.95316   0.00000  Uiso   1.00
C818   C     0.15584   0.79160   0.54684   0.00000  Uiso   1.00
C819   C     0.16344   0.87595   0.59221   0.00000  Uiso   1.00
C820   C     0.16990   0.79071   0.90779   0.00000  Uiso   1.00
C821   C     0.16990   0.87595   0.90779   0.00000  Uiso   1.00
C822   C     0.24575   0.83333   0.74682   0.00000  Uiso   1.00
C823   C     0.16343   0.79071   0.59221   0.00000  Uiso   1.00
C824   C     0.16677   0.83333   0.61612   0.00000  Uiso   1.00
C825   C     0.16657   0.83333   0.88388   0.00000  Uiso   1.00
C826   C     0.16155   0.83333   0.52366   0.00000  Uiso   1.00
C827   C     0.17178   0.83333   0.97634   0.00000  Uiso   1.00
C828   C     0.29045   0.83333   0.74425   0.00000  Uiso   1.00
C829   C     0.04288   0.83333   0.75575   0.00000  Uiso   1.00
C830   C     0.16776   0.83333   0.66483   0.00000  Uiso   1.00
C831   C     0.16557   0.83333   0.83517   0.00000  Uiso   1.00
C832   C     0.13950   0.69142   0.72277   0.00000  Uiso   1.00
C833   C     0.19383   0.97524   0.77723   0.00000  Uiso   1.00
C834   C     0.19383   0.69143   0.77723   0.00000  Uiso   1.00
C835   C     0.13950   0.97524   0.72277   0.00000  Uiso   1.00
C836   C     0.02106   0.79063   0.75466   0.00000  Uiso   1.00
Cl837  Cl    0.10378   0.72085   0.68699   0.00000  Uiso   1.00
Cl838  Cl    0.16085   0.73490   0.88417   0.00000  Uiso   1.00
Cl839  Cl    0.16086   0.93177   0.88417   0.00000  Uiso   1.00
Cl840  Cl    0.17247   0.73490   0.61583   0.00000  Uiso   1.00
Cl841  Cl    0.04422   0.73647   0.77023   0.00000  Uiso   1.00
Cl842  Cl    0.28911   0.93020   0.72977   0.00000  Uiso   1.00
Cl843  Cl    0.28911   0.73646   0.72978   0.00000  Uiso   1.00
Cl844  Cl    0.04422   0.93020   0.77022   0.00000  Uiso   1.00
Cl845  Cl    0.22955   0.94582   0.81301   0.00000  Uiso   1.00
Cl846  Cl    0.22955   0.72085   0.81301   0.00000  Uiso   1.00
Cl847  Cl    0.10379   0.94581   0.68699   0.00000  Uiso   1.00
Cl848  Cl    0.12636   0.92144   0.52260   0.00000  Uiso   1.00
Cl849  Cl    0.20697   0.74523   0.97740   0.00000  Uiso   1.00
Cl850  Cl    0.20699   0.92143   0.97739   0.00000  Uiso   1.00
Cl851  Cl    0.12635   0.74524   0.52260   0.00000  Uiso   1.00
Cl852  Cl    0.17248   0.93176   0.61583   0.00000  Uiso   1.00
Cu853  Cu    0.16667   0.88022   0.75000   0.00000  Uiso   1.00
Cu854  Cu    0.16667   0.78645   0.75000   0.00000  Uiso   1.00
N855   N     0.16667   0.95069   0.75000   0.00000  Uiso   1.00
N856   N     0.16667   0.71598   0.75000   0.00000  Uiso   1.00
O857   O     0.10655   0.87291   0.74999   0.00000  Uiso   1.00
O858   O     0.22679   0.79375   0.75001   0.00000  Uiso   1.00
O859   O     0.22679   0.87291   0.75001   0.00000  Uiso   1.00
O860   O     0.10655   0.79375   0.74999   0.00000  Uiso   1.00
O861   O     0.16666   0.87293   0.68573   0.00000  Uiso   1.00
O862   O     0.16667   0.79374   0.81427   0.00000  Uiso   1.00
O863   O     0.16667   0.87293   0.81427   0.00000  Uiso   1.00
O864   O     0.16666   0.79374   0.68573   0.00000  Uiso   1.00
C865   C     0.42091   0.83333   0.75318   0.00000  Uiso   1.00
C866   C     0.64561   0.87603   0.74534   0.00000  Uiso   1.00
C867   C     0.64561   0.79063   0.74535   0.00000  Uiso   1.00
C868   C     0.35439   0.87603   0.75465   0.00000  Uiso   1.00
C869   C     0.48918   0.87507   0.54684   0.00000  Uiso   1.00
C870   C     0.51082   0.79160   0.95316   0.00000  Uiso   1.00
C871   C     0.51082   0.87507   0.95316   0.00000  Uiso   1.00
C872   C     0.48917   0.79160   0.54684   0.00000  Uiso   1.00
C873   C     0.49677   0.87595   0.59221   0.00000  Uiso   1.00
C874   C     0.50323   0.79071   0.90779   0.00000  Uiso   1.00
C875   C     0.50324   0.87595   0.90779   0.00000  Uiso   1.00
C876   C     0.57909   0.83333   0.74682   0.00000  Uiso   1.00
C877   C     0.49676   0.79071   0.59221   0.00000  Uiso   1.00
C878   C     0.50010   0.83333   0.61612   0.00000  Uiso   1.00
C879   C     0.49990   0.83333   0.88388   0.00000  Uiso   1.00
C880   C     0.49488   0.83333   0.52366   0.00000  Uiso   1.00
C881   C     0.50512   0.83333   0.97634   0.00000  Uiso   1.00
C882   C     0.62379   0.83333   0.74425   0.00000  Uiso   1.00
C883   C     0.37621   0.83333   0.75575   0.00000  Uiso   1.00
C884   C     0.50109   0.83333   0.66483   0.00000  Uiso   1.00
C885   C     0.49891   0.83333   0.83517   0.00000  Uiso   1.00
C886   C     0.47284   0.69142   0.72277   0.00000  Uiso   1.00
C887   C     0.52716   0.97524   0.77723   0.00000  Uiso   1.00
C888   C     0.52716   0.69143   0.77723   0.00000  Uiso   1.00
C889   C     0.47284   0.97524   0.72277   0.00000  Uiso   1.00
C890   C     0.35439   0.79063   0.75466   0.00000  Uiso   1.00
Cl891  Cl    0.43712   0.72085   0.68699   0.00000  Uiso   1.00
Cl892  Cl    0.49419   0.73490   0.88417   0.00000  Uiso   1.00
Cl893  Cl    0.49419   0.93177   0.88417   0.00000  Uiso   1.00
Cl894  Cl    0.50580   0.73490   0.61583   0.00000  Uiso   1.00
Cl895  Cl    0.37756   0.73647   0.77023   0.00000  Uiso   1.00
Cl896  Cl    0.62244   0.93020   0.72977   0.00000  Uiso   1.00
Cl897  Cl    0.62244   0.73646   0.72978   0.00000  Uiso   1.00
Cl898  Cl    0.37756   0.93020   0.77022   0.00000  Uiso   1.00
Cl899  Cl    0.56288   0.94582   0.81301   0.00000  Uiso   1.00
Cl900  Cl    0.56288   0.72085   0.81301   0.00000  Uiso   1.00
Cl901  Cl    0.43712   0.94581   0.68699   0.00000  Uiso   1.00
Cl902  Cl    0.45970   0.92144   0.52260   0.00000  Uiso   1.00
Cl903  Cl    0.54031   0.74523   0.97740   0.00000  Uiso   1.00
Cl904  Cl    0.54032   0.92143   0.97739   0.00000  Uiso   1.00
Cl905  Cl    0.45968   0.74524   0.52260   0.00000  Uiso   1.00
Cl906  Cl    0.50582   0.93176   0.61583   0.00000  Uiso   1.00
Cu907  Cu    0.50000   0.88022   0.75000   0.00000  Uiso   1.00
Cu908  Cu    0.50000   0.78645   0.75000   0.00000  Uiso   1.00
N909   N     0.50000   0.95069   0.75000   0.00000  Uiso   1.00
N910   N     0.50000   0.71598   0.75000   0.00000  Uiso   1.00
O911   O     0.43988   0.87291   0.74999   0.00000  Uiso   1.00
O912   O     0.56012   0.79375   0.75001   0.00000  Uiso   1.00
O913   O     0.56012   0.87291   0.75001   0.00000  Uiso   1.00
O914   O     0.43988   0.79375   0.74999   0.00000  Uiso   1.00
O915   O     0.50000   0.87293   0.68573   0.00000  Uiso   1.00
O916   O     0.50000   0.79374   0.81427   0.00000  Uiso   1.00
O917   O     0.50000   0.87293   0.81427   0.00000  Uiso   1.00
O918   O     0.50000   0.79374   0.68573   0.00000  Uiso   1.00
C919   C     0.75425   0.83333   0.75318   0.00000  Uiso   1.00
C920   C     0.97894   0.87603   0.74534   0.00000  Uiso   1.00
C921   C     0.97894   0.79063   0.74535   0.00000  Uiso   1.00
C922   C     0.68773   0.87603   0.75465   0.00000  Uiso   1.00
C923   C     0.82251   0.87507   0.54684   0.00000  Uiso   1.00
C924   C     0.84415   0.79160   0.95316   0.00000  Uiso   1.00
C925   C     0.84416   0.87507   0.95316   0.00000  Uiso   1.00
C926   C     0.82251   0.79160   0.54684   0.00000  Uiso   1.00
C927   C     0.83010   0.87595   0.59221   0.00000  Uiso   1.00
C928   C     0.83657   0.79071   0.90779   0.00000  Uiso   1.00
C929   C     0.83657   0.87595   0.90779   0.00000  Uiso   1.00
C930   C     0.91242   0.83333   0.74682   0.00000  Uiso   1.00
C931   C     0.83010   0.79071   0.59221   0.00000  Uiso   1.00
C932   C     0.83343   0.83333   0.61612   0.00000  Uiso   1.00
C933   C     0.83323   0.83333   0.88388   0.00000  Uiso   1.00
C934   C     0.82822   0.83333   0.52366   0.00000  Uiso   1.00
C935   C     0.83845   0.83333   0.97634   0.00000  Uiso   1.00
C936   C     0.95712   0.83333   0.74425   0.00000  Uiso   1.00
C937   C     0.70955   0.83333   0.75575   0.00000  Uiso   1.00
C938   C     0.83443   0.83333   0.66483   0.00000  Uiso   1.00
C939   C     0.83224   0.83333   0.83517   0.00000  Uiso   1.00
C940   C     0.80617   0.69142   0.72277   0.00000  Uiso   1.00
C941   C     0.86050   0.97524   0.77723   0.00000  Uiso   1.00
C942   C     0.86049   0.69143   0.77723   0.00000  Uiso   1.00
C943   C     0.80617   0.97524   0.72277   0.00000  Uiso   1.00
C944   C     0.68773   0.79063   0.75466   0.00000  Uiso   1.00
Cl945  Cl    0.77045   0.72085   0.68699   0.00000  Uiso   1.00
Cl946  Cl    0.82752   0.73490   0.88417   0.00000  Uiso   1.00
Cl947  Cl    0.82753   0.93177   0.88417   0.00000  Uiso   1.00
Cl948  Cl    0.83914   0.73490   0.61583   0.00000  Uiso   1.00
Cl949  Cl    0.71089   0.73647   0.77023   0.00000  Uiso   1.00
Cl950  Cl    0.95578   0.93020   0.72977   0.00000  Uiso   1.00
Cl951  Cl    0.95578   0.73646   0.72978   0.00000  Uiso   1.00
Cl952  Cl    0.71089   0.93020   0.77022   0.00000  Uiso   1.00
Cl953  Cl    0.89621   0.94582   0.81301   0.00000  Uiso   1.00
Cl954  Cl    0.89621   0.72085   0.81301   0.00000  Uiso   1.00
Cl955  Cl    0.77045   0.94581   0.68699   0.00000  Uiso   1.00
Cl956  Cl    0.79303   0.92144   0.52260   0.00000  Uiso   1.00
Cl957  Cl    0.87364   0.74523   0.97740   0.00000  Uiso   1.00
Cl958  Cl    0.87365   0.92143   0.97739   0.00000  Uiso   1.00
Cl959  Cl    0.79301   0.74524   0.52260   0.00000  Uiso   1.00
Cl960  Cl    0.83915   0.93176   0.61583   0.00000  Uiso   1.00
Cu961  Cu    0.83333   0.88022   0.75000   0.00000  Uiso   1.00
Cu962  Cu    0.83333   0.78645   0.75000   0.00000  Uiso   1.00
N963   N     0.83333   0.95069   0.75000   0.00000  Uiso   1.00
N964   N     0.83333   0.71598   0.75000   0.00000  Uiso   1.00
O965   O     0.77321   0.87291   0.74999   0.00000  Uiso   1.00
O966   O     0.89345   0.79375   0.75001   0.00000  Uiso   1.00
O967   O     0.89345   0.87291   0.75001   0.00000  Uiso   1.00
O968   O     0.77321   0.79375   0.74999   0.00000  Uiso   1.00
O969   O     0.83333   0.87293   0.68573   0.00000  Uiso   1.00
O970   O     0.83334   0.79374   0.81427   0.00000  Uiso   1.00
O971   O     0.83334   0.87293   0.81427   0.00000  Uiso   1.00
O972   O     0.83333   0.79374   0.68573   0.00000  Uiso   1.00
loop_
_geom_bond_atom_site_label_1
_geom_bond_atom_site_label_2
_geom_bond_distance
_geom_bond_site_symmetry_2
_ccdc_geom_bond_type
C1     O50     1.298   .     A
C1     C19     1.472   .     S
C1     O47     1.298   .     A
C2     C18     1.414   .     A
C2     Cl32    1.776   .     S
C2     C58     1.391   .     S
C3     Cl33    1.776   .     S
C3     C18     1.414   .     A
C3     C80     1.391   .     S
C4     Cl34    1.776   .     S
C4     C19     1.414   .     A
C4     C110    1.391   1_455 S
C5     C9      1.395   .     A
C5     Cl38    1.774   .     S
C5     C16     1.407   .     A
C6     C10     1.395   .     A
C6     C17     1.407   .     A
C6     Cl39    1.774   .     S
C7     Cl40    1.774   .     S
C7     C11     1.395   .     A
C7     C17     1.407   .     A
C8     C13     1.395   .     A
C8     C16     1.407   .     A
C8     Cl41    1.774   .     S
C9     C14     1.422   .     A
C9     Cl42    1.769   .     S
C10    Cl28    1.769   .     S
C10    C15     1.422   .     A
C11    Cl29    1.769   .     S
C11    C15     1.422   .     A
C12    O48     1.298   .     A
C12    O49     1.298   .     A
C12    C18     1.473   .     S
C13    Cl30    1.769   .     S
C13    C14     1.422   .     A
C14    C20     1.490   .     S
C15    C21     1.490   .     S
C16    C503    1.509   1_554 S
C17    C502    1.509   .     S
C19    C26     1.414   .     A
C20    O51     1.302   .     A
C20    O54     1.302   .     A
C21    O53     1.302   .     A
C21    O52     1.302   .     A
C22    N46     1.372   .     A
C22    Cl27    1.763   .     S
C22    C349    1.415   1_545 S
C23    N45     1.372   .     A
C23    Cl35    1.763   .     S
C23    C186    1.415   .     S
C24    N46     1.372   .     A
C24    Cl36    1.763   .     S
C24    C347    1.415   1_545 S
C25    N45     1.372   .     A
C25    Cl37    1.763   .     S
C25    C184    1.415   .     S
C26    Cl31    1.776   .     S
C26    C111    1.391   1_455 S
Cu43   N45     2.014   .     S
Cu43   O51     1.979   .     S
Cu43   O47     1.982   .     S
Cu43   Cu44    2.681   .     S
Cu43   O49     1.982   .     S
Cu43   O53     1.979   .     S
Cu44   O52     1.979   .     S
Cu44   N46     2.014   .     S
Cu44   O54     1.979   .     S
Cu44   O50     1.982   .     S
Cu44   O48     1.982   .     S
C55    O104    1.298   .     A
C55    C73     1.472   .     S
C55    O101    1.298   .     A
C56    C72     1.414   .     A
C56    Cl86    1.776   .     S
C56    C112    1.391   .     S
C57    Cl87    1.776   .     S
C57    C72     1.414   .     A
C57    C134    1.391   .     S
C58    Cl88    1.776   .     S
C58    C73     1.414   .     A
C59    C63     1.395   .     A
C59    Cl92    1.774   .     S
C59    C70     1.407   .     A
C60    C64     1.395   .     A
C60    C71     1.407   .     A
C60    Cl93    1.774   .     S
C61    Cl94    1.774   .     S
C61    C65     1.395   .     A
C61    C71     1.407   .     A
C62    C67     1.395   .     A
C62    C70     1.407   .     A
C62    Cl95    1.774   .     S
C63    C68     1.422   .     A
C63    Cl96    1.769   .     S
C64    Cl82    1.769   .     S
C64    C69     1.422   .     A
C65    Cl83    1.769   .     S
C65    C69     1.422   .     A
C66    O102    1.298   .     A
C66    O103    1.298   .     A
C66    C72     1.473   .     S
C67    Cl84    1.769   .     S
C67    C68     1.422   .     A
C68    C74     1.490   .     S
C69    C75     1.490   .     S
C70    C557    1.509   1_554 S
C71    C556    1.509   .     S
C73    C80     1.414   .     A
C74    O105    1.302   .     A
C74    O108    1.302   .     A
C75    O107    1.302   .     A
C75    O106    1.302   .     A
C76    N100    1.372   .     A
C76    Cl81    1.763   .     S
C76    C403    1.415   1_545 S
C77    N99     1.372   .     A
C77    Cl89    1.763   .     S
C77    C240    1.415   .     S
C78    N100    1.372   .     A
C78    Cl90    1.763   .     S
C78    C401    1.415   1_545 S
C79    N99     1.372   .     A
C79    Cl91    1.763   .     S
C79    C238    1.415   .     S
C80    Cl85    1.776   .     S
Cu97   N99     2.014   .     S
Cu97   O105    1.979   .     S
Cu97   O101    1.982   .     S
Cu97   Cu98    2.681   .     S
Cu97   O103    1.982   .     S
Cu97   O107    1.979   .     S
Cu98   O106    1.979   .     S
Cu98   N100    2.014   .     S
Cu98   O108    1.979   .     S
Cu98   O104    1.982   .     S
Cu98   O102    1.982   .     S
C109   O158    1.298   .     A
C109   C127    1.472   .     S
C109   O155    1.298   .     A
C110   C126    1.414   .     A
C110   Cl140   1.776   .     S
C110   C4      1.391   1_655 S
C111   Cl141   1.776   .     S
C111   C126    1.414   .     A
C111   C26     1.391   1_655 S
C112   Cl142   1.776   .     S
C112   C127    1.414   .     A
C113   C117    1.395   .     A
C113   Cl146   1.774   .     S
C113   C124    1.407   .     A
C114   C118    1.395   .     A
C114   C125    1.407   .     A
C114   Cl147   1.774   .     S
C115   Cl148   1.774   .     S
C115   C119    1.395   .     A
C115   C125    1.407   .     A
C116   C121    1.395   .     A
C116   C124    1.407   .     A
C116   Cl149   1.774   .     S
C117   C122    1.422   .     A
C117   Cl150   1.769   .     S
C118   Cl136   1.769   .     S
C118   C123    1.422   .     A
C119   Cl137   1.769   .     S
C119   C123    1.422   .     A
C120   O156    1.298   .     A
C120   O157    1.298   .     A
C120   C126    1.473   .     S
C121   Cl138   1.769   .     S
C121   C122    1.422   .     A
C122   C128    1.490   .     S
C123   C129    1.490   .     S
C124   C611    1.509   1_554 S
C125   C610    1.509   .     S
C127   C134    1.414   .     A
C128   O159    1.302   .     A
C128   O162    1.302   .     A
C129   O161    1.302   .     A
C129   O160    1.302   .     A
C130   N154    1.372   .     A
C130   Cl135   1.763   .     S
C130   C457    1.415   1_545 S
C131   N153    1.372   .     A
C131   Cl143   1.763   .     S
C131   C294    1.415   .     S
C132   N154    1.372   .     A
C132   Cl144   1.763   .     S
C132   C455    1.415   1_545 S
C133   N153    1.372   .     A
C133   Cl145   1.763   .     S
C133   C292    1.415   .     S
C134   Cl139   1.776   .     S
Cu151  N153    2.014   .     S
Cu151  O159    1.979   .     S
Cu151  O155    1.982   .     S
Cu151  Cu152   2.681   .     S
Cu151  O157    1.982   .     S
Cu151  O161    1.979   .     S
Cu152  O160    1.979   .     S
Cu152  N154    2.014   .     S
Cu152  O162    1.979   .     S
Cu152  O158    1.982   .     S
Cu152  O156    1.982   .     S
C163   O212    1.298   .     A
C163   C181    1.472   .     S
C163   O209    1.298   .     A
C164   C180    1.414   .     A
C164   Cl194   1.776   .     S
C164   C220    1.391   .     S
C165   Cl195   1.776   .     S
C165   C180    1.414   .     A
C165   C242    1.391   .     S
C166   Cl196   1.776   .     S
C166   C181    1.414   .     A
C166   C272    1.391   1_455 S
C167   C171    1.395   .     A
C167   Cl200   1.774   .     S
C167   C178    1.407   .     A
C168   C172    1.395   .     A
C168   C179    1.407   .     A
C168   Cl201   1.774   .     S
C169   Cl202   1.774   .     S
C169   C173    1.395   .     A
C169   C179    1.407   .     A
C170   C175    1.395   .     A
C170   C178    1.407   .     A
C170   Cl203   1.774   .     S
C171   C176    1.422   .     A
C171   Cl204   1.769   .     S
C172   Cl190   1.769   .     S
C172   C177    1.422   .     A
C173   Cl191   1.769   .     S
C173   C177    1.422   .     A
C174   O210    1.298   .     A
C174   O211    1.298   .     A
C174   C180    1.473   .     S
C175   Cl192   1.769   .     S
C175   C176    1.422   .     A
C176   C182    1.490   .     S
C177   C183    1.490   .     S
C178   C665    1.509   1_554 S
C179   C664    1.509   .     S
C181   C188    1.414   .     A
C182   O213    1.302   .     A
C182   O216    1.302   .     A
C183   O215    1.302   .     A
C183   O214    1.302   .     A
C184   N208    1.372   .     A
C184   Cl189   1.763   .     S
C185   N207    1.372   .     A
C185   Cl197   1.763   .     S
C185   C348    1.415   .     S
C186   N208    1.372   .     A
C186   Cl198   1.763   .     S
C187   N207    1.372   .     A
C187   Cl199   1.763   .     S
C187   C346    1.415   .     S
C188   Cl193   1.776   .     S
C188   C273    1.391   1_455 S
Cu205  N207    2.014   .     S
Cu205  O213    1.979   .     S
Cu205  O209    1.982   .     S
Cu205  Cu206   2.681   .     S
Cu205  O211    1.982   .     S
Cu205  O215    1.979   .     S
Cu206  O214    1.979   .     S
Cu206  N208    2.014   .     S
Cu206  O216    1.979   .     S
Cu206  O212    1.982   .     S
Cu206  O210    1.982   .     S
C217   O266    1.298   .     A
C217   C235    1.472   .     S
C217   O263    1.298   .     A
C218   C234    1.414   .     A
C218   Cl248   1.776   .     S
C218   C274    1.391   .     S
C219   Cl249   1.776   .     S
C219   C234    1.414   .     A
C219   C296    1.391   .     S
C220   Cl250   1.776   .     S
C220   C235    1.414   .     A
C221   C225    1.395   .     A
C221   Cl254   1.774   .     S
C221   C232    1.407   .     A
C222   C226    1.395   .     A
C222   C233    1.407   .     A
C222   Cl255   1.774   .     S
C223   Cl256   1.774   .     S
C223   C227    1.395   .     A
C223   C233    1.407   .     A
C224   C229    1.395   .     A
C224   C232    1.407   .     A
C224   Cl257   1.774   .     S
C225   C230    1.422   .     A
C225   Cl258   1.769   .     S
C226   Cl244   1.769   .     S
C226   C231    1.422   .     A
C227   Cl245   1.769   .     S
C227   C231    1.422   .     A
C228   O264    1.298   .     A
C228   O265    1.298   .     A
C228   C234    1.473   .     S
C229   Cl246   1.769   .     S
C229   C230    1.422   .     A
C230   C236    1.490   .     S
C231   C237    1.490   .     S
C232   C719    1.509   1_554 S
C233   C718    1.509   .     S
C235   C242    1.414   .     A
C236   O267    1.302   .     A
C236   O270    1.302   .     A
C237   O269    1.302   .     A
C237   O268    1.302   .     A
C238   N262    1.372   .     A
C238   Cl243   1.763   .     S
C239   N261    1.372   .     A
C239   Cl251   1.763   .     S
C239   C402    1.415   .     S
C240   N262    1.372   .     A
C240   Cl252   1.763   .     S
C241   N261    1.372   .     A
C241   Cl253   1.763   .     S
C241   C400    1.415   .     S
C242   Cl247   1.776   .     S
Cu259  N261    2.014   .     S
Cu259  O267    1.979   .     S
Cu259  O263    1.982   .     S
Cu259  Cu260   2.681   .     S
Cu259  O265    1.982   .     S
Cu259  O269    1.979   .     S
Cu260  O268    1.979   .     S
Cu260  N262    2.014   .     S
Cu260  O270    1.979   .     S
Cu260  O266    1.982   .     S
Cu260  O264    1.982   .     S
C271   O320    1.298   .     A
C271   C289    1.472   .     S
C271   O317    1.298   .     A
C272   C288    1.414   .     A
C272   Cl302   1.776   .     S
C272   C166    1.391   1_655 S
C273   Cl303   1.776   .     S
C273   C288    1.414   .     A
C273   C188    1.391   1_655 S
C274   Cl304   1.776   .     S
C274   C289    1.414   .     A
C275   C279    1.395   .     A
C275   Cl308   1.774   .     S
C275   C286    1.407   .     A
C276   C280    1.395   .     A
C276   C287    1.407   .     A
C276   Cl309   1.774   .     S
C277   Cl310   1.774   .     S
C277   C281    1.395   .     A
C277   C287    1.407   .     A
C278   C283    1.395   .     A
C278   C286    1.407   .     A
C278   Cl311   1.774   .     S
C279   C284    1.422   .     A
C279   Cl312   1.769   .     S
C280   Cl298   1.769   .     S
C280   C285    1.422   .     A
C281   Cl299   1.769   .     S
C281   C285    1.422   .     A
C282   O318    1.298   .     A
C282   O319    1.298   .     A
C282   C288    1.473   .     S
C283   Cl300   1.769   .     S
C283   C284    1.422   .     A
C284   C290    1.490   .     S
C285   C291    1.490   .     S
C286   C773    1.509   1_554 S
C287   C772    1.509   .     S
C289   C296    1.414   .     A
C290   O321    1.302   .     A
C290   O324    1.302   .     A
C291   O323    1.302   .     A
C291   O322    1.302   .     A
C292   N316    1.372   .     A
C292   Cl297   1.763   .     S
C293   N315    1.372   .     A
C293   Cl305   1.763   .     S
C293   C456    1.415   .     S
C294   N316    1.372   .     A
C294   Cl306   1.763   .     S
C295   N315    1.372   .     A
C295   Cl307   1.763   .     S
C295   C454    1.415   .     S
C296   Cl301   1.776   .     S
Cu313  N315    2.014   .     S
Cu313  O321    1.979   .     S
Cu313  O317    1.982   .     S
Cu313  Cu314   2.681   .     S
Cu313  O319    1.982   .     S
Cu313  O323    1.979   .     S
Cu314  O322    1.979   .     S
Cu314  N316    2.014   .     S
Cu314  O324    1.979   .     S
Cu314  O320    1.982   .     S
Cu314  O318    1.982   .     S
C325   O374    1.298   .     A
C325   C343    1.472   .     S
C325   O371    1.298   .     A
C326   C342    1.414   .     A
C326   Cl356   1.776   .     S
C326   C382    1.391   .     S
C327   Cl357   1.776   .     S
C327   C342    1.414   .     A
C327   C404    1.391   .     S
C328   Cl358   1.776   .     S
C328   C343    1.414   .     A
C328   C434    1.391   1_455 S
C329   C333    1.395   .     A
C329   Cl362   1.774   .     S
C329   C340    1.407   .     A
C330   C334    1.395   .     A
C330   C341    1.407   .     A
C330   Cl363   1.774   .     S
C331   Cl364   1.774   .     S
C331   C335    1.395   .     A
C331   C341    1.407   .     A
C332   C337    1.395   .     A
C332   C340    1.407   .     A
C332   Cl365   1.774   .     S
C333   C338    1.422   .     A
C333   Cl366   1.769   .     S
C334   Cl352   1.769   .     S
C334   C339    1.422   .     A
C335   Cl353   1.769   .     S
C335   C339    1.422   .     A
C336   O372    1.298   .     A
C336   O373    1.298   .     A
C336   C342    1.473   .     S
C337   Cl354   1.769   .     S
C337   C338    1.422   .     A
C338   C344    1.490   .     S
C339   C345    1.490   .     S
C340   C827    1.509   1_554 S
C341   C826    1.509   .     S
C343   C350    1.414   .     A
C344   O375    1.302   .     A
C344   O378    1.302   .     A
C345   O377    1.302   .     A
C345   O376    1.302   .     A
C346   N370    1.372   .     A
C346   Cl351   1.763   .     S
C347   N369    1.372   .     A
C347   Cl359   1.763   .     S
C347   C24     1.415   1_565 S
C348   N370    1.372   .     A
C348   Cl360   1.763   .     S
C349   N369    1.372   .     A
C349   Cl361   1.763   .     S
C349   C22     1.415   1_565 S
C350   Cl355   1.776   .     S
C350   C435    1.391   1_455 S
Cu367  N369    2.014   .     S
Cu367  O375    1.979   .     S
Cu367  O371    1.982   .     S
Cu367  Cu368   2.681   .     S
Cu367  O373    1.982   .     S
Cu367  O377    1.979   .     S
Cu368  O376    1.979   .     S
Cu368  N370    2.014   .     S
Cu368  O378    1.979   .     S
Cu368  O374    1.982   .     S
Cu368  O372    1.982   .     S
C379   O428    1.298   .     A
C379   C397    1.472   .     S
C379   O425    1.298   .     A
C380   C396    1.414   .     A
C380   Cl410   1.776   .     S
C380   C436    1.391   .     S
C381   Cl411   1.776   .     S
C381   C396    1.414   .     A
C381   C458    1.391   .     S
C382   Cl412   1.776   .     S
C382   C397    1.414   .     A
C383   C387    1.395   .     A
C383   Cl416   1.774   .     S
C383   C394    1.407   .     A
C384   C388    1.395   .     A
C384   C395    1.407   .     A
C384   Cl417   1.774   .     S
C385   Cl418   1.774   .     S
C385   C389    1.395   .     A
C385   C395    1.407   .     A
C386   C391    1.395   .     A
C386   C394    1.407   .     A
C386   Cl419   1.774   .     S
C387   C392    1.422   .     A
C387   Cl420   1.769   .     S
C388   Cl406   1.769   .     S
C388   C393    1.422   .     A
C389   Cl407   1.769   .     S
C389   C393    1.422   .     A
C390   O426    1.298   .     A
C390   O427    1.298   .     A
C390   C396    1.473   .     S
C391   Cl408   1.769   .     S
C391   C392    1.422   .     A
C392   C398    1.490   .     S
C393   C399    1.490   .     S
C394   C881    1.509   1_554 S
C395   C880    1.509   .     S
C397   C404    1.414   .     A
C398   O429    1.302   .     A
C398   O432    1.302   .     A
C399   O431    1.302   .     A
C399   O430    1.302   .     A
C400   N424    1.372   .     A
C400   Cl405   1.763   .     S
C401   N423    1.372   .     A
C401   Cl413   1.763   .     S
C401   C78     1.415   1_565 S
C402   N424    1.372   .     A
C402   Cl414   1.763   .     S
C403   N423    1.372   .     A
C403   Cl415   1.763   .     S
C403   C76     1.415   1_565 S
C404   Cl409   1.776   .     S
Cu421  N423    2.014   .     S
Cu421  O429    1.979   .     S
Cu421  O425    1.982   .     S
Cu421  Cu422   2.681   .     S
Cu421  O427    1.982   .     S
Cu421  O431    1.979   .     S
Cu422  O430    1.979   .     S
Cu422  N424    2.014   .     S
Cu422  O432    1.979   .     S
Cu422  O428    1.982   .     S
Cu422  O426    1.982   .     S
C433   O482    1.298   .     A
C433   C451    1.472   .     S
C433   O479    1.298   .     A
C434   C450    1.414   .     A
C434   Cl464   1.776   .     S
C434   C328    1.391   1_655 S
C435   Cl465   1.776   .     S
C435   C450    1.414   .     A
C435   C350    1.391   1_655 S
C436   Cl466   1.776   .     S
C436   C451    1.414   .     A
C437   C441    1.395   .     A
C437   Cl470   1.774   .     S
C437   C448    1.407   .     A
C438   C442    1.395   .     A
C438   C449    1.407   .     A
C438   Cl471   1.774   .     S
C439   Cl472   1.774   .     S
C439   C443    1.395   .     A
C439   C449    1.407   .     A
C440   C445    1.395   .     A
C440   C448    1.407   .     A
C440   Cl473   1.774   .     S
C441   C446    1.422   .     A
C441   Cl474   1.769   .     S
C442   Cl460   1.769   .     S
C442   C447    1.422   .     A
C443   Cl461   1.769   .     S
C443   C447    1.422   .     A
C444   O480    1.298   .     A
C444   O481    1.298   .     A
C444   C450    1.473   .     S
C445   Cl462   1.769   .     S
C445   C446    1.422   .     A
C446   C452    1.490   .     S
C447   C453    1.490   .     S
C448   C935    1.509   1_554 S
C449   C934    1.509   .     S
C451   C458    1.414   .     A
C452   O483    1.302   .     A
C452   O486    1.302   .     A
C453   O485    1.302   .     A
C453   O484    1.302   .     A
C454   N478    1.372   .     A
C454   Cl459   1.763   .     S
C455   N477    1.372   .     A
C455   Cl467   1.763   .     S
C455   C132    1.415   1_565 S
C456   N478    1.372   .     A
C456   Cl468   1.763   .     S
C457   N477    1.372   .     A
C457   Cl469   1.763   .     S
C457   C130    1.415   1_565 S
C458   Cl463   1.776   .     S
Cu475  N477    2.014   .     S
Cu475  O483    1.979   .     S
Cu475  O479    1.982   .     S
Cu475  Cu476   2.681   .     S
Cu475  O481    1.982   .     S
Cu475  O485    1.979   .     S
Cu476  O484    1.979   .     S
Cu476  N478    2.014   .     S
Cu476  O486    1.979   .     S
Cu476  O482    1.982   .     S
Cu476  O480    1.982   .     S
C487   O536    1.298   .     A
C487   C505    1.472   .     S
C487   O533    1.298   .     A
C488   C504    1.414   .     A
C488   Cl518   1.776   .     S
C488   C544    1.391   .     S
C489   Cl519   1.776   .     S
C489   C504    1.414   .     A
C489   C566    1.391   .     S
C490   Cl520   1.776   .     S
C490   C505    1.414   .     A
C490   C596    1.391   1_455 S
C491   C495    1.395   .     A
C491   Cl524   1.774   .     S
C491   C502    1.407   .     A
C492   C496    1.395   .     A
C492   C503    1.407   .     A
C492   Cl525   1.774   .     S
C493   Cl526   1.774   .     S
C493   C497    1.395   .     A
C493   C503    1.407   .     A
C494   C499    1.395   .     A
C494   C502    1.407   .     A
C494   Cl527   1.774   .     S
C495   C500    1.422   .     A
C495   Cl528   1.769   .     S
C496   Cl514   1.769   .     S
C496   C501    1.422   .     A
C497   Cl515   1.769   .     S
C497   C501    1.422   .     A
C498   O534    1.298   .     A
C498   O535    1.298   .     A
C498   C504    1.473   .     S
C499   Cl516   1.769   .     S
C499   C500    1.422   .     A
C500   C506    1.490   .     S
C501   C507    1.490   .     S
C503   C16     1.509   1_556 S
C505   C512    1.414   .     A
C506   O537    1.302   .     A
C506   O540    1.302   .     A
C507   O539    1.302   .     A
C507   O538    1.302   .     A
C508   N532    1.372   .     A
C508   Cl513   1.763   .     S
C508   C835    1.415   1_545 S
C509   N531    1.372   .     A
C509   Cl521   1.763   .     S
C509   C672    1.415   .     S
C510   N532    1.372   .     A
C510   Cl522   1.763   .     S
C510   C833    1.415   1_545 S
C511   N531    1.372   .     A
C511   Cl523   1.763   .     S
C511   C670    1.415   .     S
C512   Cl517   1.776   .     S
C512   C597    1.391   1_455 S
Cu529  N531    2.014   .     S
Cu529  O537    1.979   .     S
Cu529  O533    1.982   .     S
Cu529  Cu530   2.681   .     S
Cu529  O535    1.982   .     S
Cu529  O539    1.979   .     S
Cu530  O538    1.979   .     S
Cu530  N532    2.014   .     S
Cu530  O540    1.979   .     S
Cu530  O536    1.982   .     S
Cu530  O534    1.982   .     S
C541   O590    1.298   .     A
C541   C559    1.472   .     S
C541   O587    1.298   .     A
C542   C558    1.414   .     A
C542   Cl572   1.776   .     S
C542   C598    1.391   .     S
C543   Cl573   1.776   .     S
C543   C558    1.414   .     A
C543   C620    1.391   .     S
C544   Cl574   1.776   .     S
C544   C559    1.414   .     A
C545   C549    1.395   .     A
C545   Cl578   1.774   .     S
C545   C556    1.407   .     A
C546   C550    1.395   .     A
C546   C557    1.407   .     A
C546   Cl579   1.774   .     S
C547   Cl580   1.774   .     S
C547   C551    1.395   .     A
C547   C557    1.407   .     A
C548   C553    1.395   .     A
C548   C556    1.407   .     A
C548   Cl581   1.774   .     S
C549   C554    1.422   .     A
C549   Cl582   1.769   .     S
C550   Cl568   1.769   .     S
C550   C555    1.422   .     A
C551   Cl569   1.769   .     S
C551   C555    1.422   .     A
C552   O588    1.298   .     A
C552   O589    1.298   .     A
C552   C558    1.473   .     S
C553   Cl570   1.769   .     S
C553   C554    1.422   .     A
C554   C560    1.490   .     S
C555   C561    1.490   .     S
C557   C70     1.509   1_556 S
C559   C566    1.414   .     A
C560   O591    1.302   .     A
C560   O594    1.302   .     A
C561   O593    1.302   .     A
C561   O592    1.302   .     A
C562   N586    1.372   .     A
C562   Cl567   1.763   .     S
C562   C889    1.415   1_545 S
C563   N585    1.372   .     A
C563   Cl575   1.763   .     S
C563   C726    1.415   .     S
C564   N586    1.372   .     A
C564   Cl576   1.763   .     S
C564   C887    1.415   1_545 S
C565   N585    1.372   .     A
C565   Cl577   1.763   .     S
C565   C724    1.415   .     S
C566   Cl571   1.776   .     S
Cu583  N585    2.014   .     S
Cu583  O591    1.979   .     S
Cu583  O587    1.982   .     S
Cu583  Cu584   2.681   .     S
Cu583  O589    1.982   .     S
Cu583  O593    1.979   .     S
Cu584  O592    1.979   .     S
Cu584  N586    2.014   .     S
Cu584  O594    1.979   .     S
Cu584  O590    1.982   .     S
Cu584  O588    1.982   .     S
C595   O644    1.298   .     A
C595   C613    1.472   .     S
C595   O641    1.298   .     A
C596   C612    1.414   .     A
C596   Cl626   1.776   .     S
C596   C490    1.391   1_655 S
C597   Cl627   1.776   .     S
C597   C612    1.414   .     A
C597   C512    1.391   1_655 S
C598   Cl628   1.776   .     S
C598   C613    1.414   .     A
C599   C603    1.395   .     A
C599   Cl632   1.774   .     S
C599   C610    1.407   .     A
C600   C604    1.395   .     A
C600   C611    1.407   .     A
C600   Cl633   1.774   .     S
C601   Cl634   1.774   .     S
C601   C605    1.395   .     A
C601   C611    1.407   .     A
C602   C607    1.395   .     A
C602   C610    1.407   .     A
C602   Cl635   1.774   .     S
C603   C608    1.422   .     A
C603   Cl636   1.769   .     S
C604   Cl622   1.769   .     S
C604   C609    1.422   .     A
C605   Cl623   1.769   .     S
C605   C609    1.422   .     A
C606   O642    1.298   .     A
C606   O643    1.298   .     A
C606   C612    1.473   .     S
C607   Cl624   1.769   .     S
C607   C608    1.422   .     A
C608   C614    1.490   .     S
C609   C615    1.490   .     S
C611   C124    1.509   1_556 S
C613   C620    1.414   .     A
C614   O645    1.302   .     A
C614   O648    1.302   .     A
C615   O647    1.302   .     A
C615   O646    1.302   .     A
C616   N640    1.372   .     A
C616   Cl621   1.763   .     S
C616   C943    1.415   1_545 S
C617   N639    1.372   .     A
C617   Cl629   1.763   .     S
C617   C780    1.415   .     S
C618   N640    1.372   .     A
C618   Cl630   1.763   .     S
C618   C941    1.415   1_545 S
C619   N639    1.372   .     A
C619   Cl631   1.763   .     S
C619   C778    1.415   .     S
C620   Cl625   1.776   .     S
Cu637  N639    2.014   .     S
Cu637  O645    1.979   .     S
Cu637  O641    1.982   .     S
Cu637  Cu638   2.681   .     S
Cu637  O643    1.982   .     S
Cu637  O647    1.979   .     S
Cu638  O646    1.979   .     S
Cu638  N640    2.014   .     S
Cu638  O648    1.979   .     S
Cu638  O644    1.982   .     S
Cu638  O642    1.982   .     S
C649   O698    1.298   .     A
C649   C667    1.472   .     S
C649   O695    1.298   .     A
C650   C666    1.414   .     A
C650   Cl680   1.776   .     S
C650   C706    1.391   .     S
C651   Cl681   1.776   .     S
C651   C666    1.414   .     A
C651   C728    1.391   .     S
C652   Cl682   1.776   .     S
C652   C667    1.414   .     A
C652   C758    1.391   1_455 S
C653   C657    1.395   .     A
C653   Cl686   1.774   .     S
C653   C664    1.407   .     A
C654   C658    1.395   .     A
C654   C665    1.407   .     A
C654   Cl687   1.774   .     S
C655   Cl688   1.774   .     S
C655   C659    1.395   .     A
C655   C665    1.407   .     A
C656   C661    1.395   .     A
C656   C664    1.407   .     A
C656   Cl689   1.774   .     S
C657   C662    1.422   .     A
C657   Cl690   1.769   .     S
C658   Cl676   1.769   .     S
C658   C663    1.422   .     A
C659   Cl677   1.769   .     S
C659   C663    1.422   .     A
C660   O696    1.298   .     A
C660   O697    1.298   .     A
C660   C666    1.473   .     S
C661   Cl678   1.769   .     S
C661   C662    1.422   .     A
C662   C668    1.490   .     S
C663   C669    1.490   .     S
C665   C178    1.509   1_556 S
C667   C674    1.414   .     A
C668   O699    1.302   .     A
C668   O702    1.302   .     A
C669   O701    1.302   .     A
C669   O700    1.302   .     A
C670   N694    1.372   .     A
C670   Cl675   1.763   .     S
C671   N693    1.372   .     A
C671   Cl683   1.763   .     S
C671   C834    1.415   .     S
C672   N694    1.372   .     A
C672   Cl684   1.763   .     S
C673   N693    1.372   .     A
C673   Cl685   1.763   .     S
C673   C832    1.415   .     S
C674   Cl679   1.776   .     S
C674   C759    1.391   1_455 S
Cu691  N693    2.014   .     S
Cu691  O699    1.979   .     S
Cu691  O695    1.982   .     S
Cu691  Cu692   2.681   .     S
Cu691  O697    1.982   .     S
Cu691  O701    1.979   .     S
Cu692  O700    1.979   .     S
Cu692  N694    2.014   .     S
Cu692  O702    1.979   .     S
Cu692  O698    1.982   .     S
Cu692  O696    1.982   .     S
C703   O752    1.298   .     A
C703   C721    1.472   .     S
C703   O749    1.298   .     A
C704   C720    1.414   .     A
C704   Cl734   1.776   .     S
C704   C760    1.391   .     S
C705   Cl735   1.776   .     S
C705   C720    1.414   .     A
C705   C782    1.391   .     S
C706   Cl736   1.776   .     S
C706   C721    1.414   .     A
C707   C711    1.395   .     A
C707   Cl740   1.774   .     S
C707   C718    1.407   .     A
C708   C712    1.395   .     A
C708   C719    1.407   .     A
C708   Cl741   1.774   .     S
C709   Cl742   1.774   .     S
C709   C713    1.395   .     A
C709   C719    1.407   .     A
C710   C715    1.395   .     A
C710   C718    1.407   .     A
C710   Cl743   1.774   .     S
C711   C716    1.422   .     A
C711   Cl744   1.769   .     S
C712   Cl730   1.769   .     S
C712   C717    1.422   .     A
C713   Cl731   1.769   .     S
C713   C717    1.422   .     A
C714   O750    1.298   .     A
C714   O751    1.298   .     A
C714   C720    1.473   .     S
C715   Cl732   1.769   .     S
C715   C716    1.422   .     A
C716   C722    1.490   .     S
C717   C723    1.490   .     S
C719   C232    1.509   1_556 S
C721   C728    1.414   .     A
C722   O753    1.302   .     A
C722   O756    1.302   .     A
C723   O755    1.302   .     A
C723   O754    1.302   .     A
C724   N748    1.372   .     A
C724   Cl729   1.763   .     S
C725   N747    1.372   .     A
C725   Cl737   1.763   .     S
C725   C888    1.415   .     S
C726   N748    1.372   .     A
C726   Cl738   1.763   .     S
C727   N747    1.372   .     A
C727   Cl739   1.763   .     S
C727   C886    1.415   .     S
C728   Cl733   1.776   .     S
Cu745  N747    2.014   .     S
Cu745  O753    1.979   .     S
Cu745  O749    1.982   .     S
Cu745  Cu746   2.681   .     S
Cu745  O751    1.982   .     S
Cu745  O755    1.979   .     S
Cu746  O754    1.979   .     S
Cu746  N748    2.014   .     S
Cu746  O756    1.979   .     S
Cu746  O752    1.982   .     S
Cu746  O750    1.982   .     S
C757   O806    1.298   .     A
C757   C775    1.472   .     S
C757   O803    1.298   .     A
C758   C774    1.414   .     A
C758   Cl788   1.776   .     S
C758   C652    1.391   1_655 S
C759   Cl789   1.776   .     S
C759   C774    1.414   .     A
C759   C674    1.391   1_655 S
C760   Cl790   1.776   .     S
C760   C775    1.414   .     A
C761   C765    1.395   .     A
C761   Cl794   1.774   .     S
C761   C772    1.407   .     A
C762   C766    1.395   .     A
C762   C773    1.407   .     A
C762   Cl795   1.774   .     S
C763   Cl796   1.774   .     S
C763   C767    1.395   .     A
C763   C773    1.407   .     A
C764   C769    1.395   .     A
C764   C772    1.407   .     A
C764   Cl797   1.774   .     S
C765   C770    1.422   .     A
C765   Cl798   1.769   .     S
C766   Cl784   1.769   .     S
C766   C771    1.422   .     A
C767   Cl785   1.769   .     S
C767   C771    1.422   .     A
C768   O804    1.298   .     A
C768   O805    1.298   .     A
C768   C774    1.473   .     S
C769   Cl786   1.769   .     S
C769   C770    1.422   .     A
C770   C776    1.490   .     S
C771   C777    1.490   .     S
C773   C286    1.509   1_556 S
C775   C782    1.414   .     A
C776   O807    1.302   .     A
C776   O810    1.302   .     A
C777   O809    1.302   .     A
C777   O808    1.302   .     A
C778   N802    1.372   .     A
C778   Cl783   1.763   .     S
C779   N801    1.372   .     A
C779   Cl791   1.763   .     S
C779   C942    1.415   .     S
C780   N802    1.372   .     A
C780   Cl792   1.763   .     S
C781   N801    1.372   .     A
C781   Cl793   1.763   .     S
C781   C940    1.415   .     S
C782   Cl787   1.776   .     S
Cu799  N801    2.014   .     S
Cu799  O807    1.979   .     S
Cu799  O803    1.982   .     S
Cu799  Cu800   2.681   .     S
Cu799  O805    1.982   .     S
Cu799  O809    1.979   .     S
Cu800  O808    1.979   .     S
Cu800  N802    2.014   .     S
Cu800  O810    1.979   .     S
Cu800  O806    1.982   .     S
Cu800  O804    1.982   .     S
C811   O860    1.298   .     A
C811   C829    1.472   .     S
C811   O857    1.298   .     A
C812   C828    1.414   .     A
C812   Cl842   1.776   .     S
C812   C868    1.391   .     S
C813   Cl843   1.776   .     S
C813   C828    1.414   .     A
C813   C890    1.391   .     S
C814   Cl844   1.776   .     S
C814   C829    1.414   .     A
C814   C920    1.391   1_455 S
C815   C819    1.395   .     A
C815   Cl848   1.774   .     S
C815   C826    1.407   .     A
C816   C820    1.395   .     A
C816   C827    1.407   .     A
C816   Cl849   1.774   .     S
C817   Cl850   1.774   .     S
C817   C821    1.395   .     A
C817   C827    1.407   .     A
C818   C823    1.395   .     A
C818   C826    1.407   .     A
C818   Cl851   1.774   .     S
C819   C824    1.422   .     A
C819   Cl852   1.769   .     S
C820   Cl838   1.769   .     S
C820   C825    1.422   .     A
C821   Cl839   1.769   .     S
C821   C825    1.422   .     A
C822   O858    1.298   .     A
C822   O859    1.298   .     A
C822   C828    1.473   .     S
C823   Cl840   1.769   .     S
C823   C824    1.422   .     A
C824   C830    1.490   .     S
C825   C831    1.490   .     S
C827   C340    1.509   1_556 S
C829   C836    1.414   .     A
C830   O861    1.302   .     A
C830   O864    1.302   .     A
C831   O863    1.302   .     A
C831   O862    1.302   .     A
C832   N856    1.372   .     A
C832   Cl837   1.763   .     S
C833   N855    1.372   .     A
C833   Cl845   1.763   .     S
C833   C510    1.415   1_565 S
C834   N856    1.372   .     A
C834   Cl846   1.763   .     S
C835   N855    1.372   .     A
C835   Cl847   1.763   .     S
C835   C508    1.415   1_565 S
C836   Cl841   1.776   .     S
C836   C921    1.391   1_455 S
Cu853  N855    2.014   .     S
Cu853  O861    1.979   .     S
Cu853  O857    1.982   .     S
Cu853  Cu854   2.681   .     S
Cu853  O859    1.982   .     S
Cu853  O863    1.979   .     S
Cu854  O862    1.979   .     S
Cu854  N856    2.014   .     S
Cu854  O864    1.979   .     S
Cu854  O860    1.982   .     S
Cu854  O858    1.982   .     S
C865   O914    1.298   .     A
C865   C883    1.472   .     S
C865   O911    1.298   .     A
C866   C882    1.414   .     A
C866   Cl896   1.776   .     S
C866   C922    1.391   .     S
C867   Cl897   1.776   .     S
C867   C882    1.414   .     A
C867   C944    1.391   .     S
C868   Cl898   1.776   .     S
C868   C883    1.414   .     A
C869   C873    1.395   .     A
C869   Cl902   1.774   .     S
C869   C880    1.407   .     A
C870   C874    1.395   .     A
C870   C881    1.407   .     A
C870   Cl903   1.774   .     S
C871   Cl904   1.774   .     S
C871   C875    1.395   .     A
C871   C881    1.407   .     A
C872   C877    1.395   .     A
C872   C880    1.407   .     A
C872   Cl905   1.774   .     S
C873   C878    1.422   .     A
C873   Cl906   1.769   .     S
C874   Cl892   1.769   .     S
C874   C879    1.422   .     A
C875   Cl893   1.769   .     S
C875   C879    1.422   .     A
C876   O912    1.298   .     A
C876   O913    1.298   .     A
C876   C882    1.473   .     S
C877   Cl894   1.769   .     S
C877   C878    1.422   .     A
C878   C884    1.490   .     S
C879   C885    1.490   .     S
C881   C394    1.509   1_556 S
C883   C890    1.414   .     A
C884   O915    1.302   .     A
C884   O918    1.302   .     A
C885   O917    1.302   .     A
C885   O916    1.302   .     A
C886   N910    1.372   .     A
C886   Cl891   1.763   .     S
C887   N909    1.372   .     A
C887   Cl899   1.763   .     S
C887   C564    1.415   1_565 S
C888   N910    1.372   .     A
C888   Cl900   1.763   .     S
C889   N909    1.372   .     A
C889   Cl901   1.763   .     S
C889   C562    1.415   1_565 S
C890   Cl895   1.776   .     S
Cu907  N909    2.014   .     S
Cu907  O915    1.979   .     S
Cu907  O911    1.982   .     S
Cu907  Cu908   2.681   .     S
Cu907  O913    1.982   .     S
Cu907  O917    1.979   .     S
Cu908  O916    1.979   .     S
Cu908  N910    2.014   .     S
Cu908  O918    1.979   .     S
Cu908  O914    1.982   .     S
Cu908  O912    1.982   .     S
C919   O968    1.298   .     A
C919   C937    1.472   .     S
C919   O965    1.298   .     A
C920   C936    1.414   .     A
C920   Cl950   1.776   .     S
C920   C814    1.391   1_655 S
C921   Cl951   1.776   .     S
C921   C936    1.414   .     A
C921   C836    1.391   1_655 S
C922   Cl952   1.776   .     S
C922   C937    1.414   .     A
C923   C927    1.395   .     A
C923   Cl956   1.774   .     S
C923   C934    1.407   .     A
C924   C928    1.395   .     A
C924   C935    1.407   .     A
C924   Cl957   1.774   .     S
C925   Cl958   1.774   .     S
C925   C929    1.395   .     A
C925   C935    1.407   .     A
C926   C931    1.395   .     A
C926   C934    1.407   .     A
C926   Cl959   1.774   .     S
C927   C932    1.422   .     A
C927   Cl960   1.769   .     S
C928   Cl946   1.769   .     S
C928   C933    1.422   .     A
C929   Cl947   1.769   .     S
C929   C933    1.422   .     A
C930   O966    1.298   .     A
C930   O967    1.298   .     A
C930   C936    1.473   .     S
C931   Cl948   1.769   .     S
C931   C932    1.422   .     A
C932   C938    1.490   .     S
C933   C939    1.490   .     S
C935   C448    1.509   1_556 S
C937   C944    1.414   .     A
C938   O969    1.302   .     A
C938   O972    1.302   .     A
C939   O971    1.302   .     A
C939   O970    1.302   .     A
C940   N964    1.372   .     A
C940   Cl945   1.763   .     S
C941   N963    1.372   .     A
C941   Cl953   1.763   .     S
C941   C618    1.415   1_565 S
C942   N964    1.372   .     A
C942   Cl954   1.763   .     S
C943   N963    1.372   .     A
C943   Cl955   1.763   .     S
C943   C616    1.415   1_565 S
C944   Cl949   1.776   .     S
Cu961  N963    2.014   .     S
Cu961  O969    1.979   .     S
Cu961  O965    1.982   .     S
Cu961  Cu962   2.681   .     S
Cu961  O967    1.982   .     S
Cu961  O971    1.979   .     S
Cu962  O970    1.979   .     S
Cu962  N964    2.014   .     S
Cu962  O972    1.979   .     S
Cu962  O968    1.982   .     S
Cu962  O966    1.982   .     S
