data_str_m2_o1_o18_pcu_sym.187
_audit_creation_date              2020-01-03
_audit_creation_method            'Materials Studio'
_symmetry_space_group_name_H-M    'P1'
_symmetry_Int_Tables_number       1
_symmetry_cell_setting            triclinic
loop_
_symmetry_equiv_pos_as_xyz
  x,y,z
_cell_length_a                    28.5859
_cell_length_b                    32.3873
_cell_length_c                    31.4137
_cell_angle_alpha                 89.7069
_cell_angle_beta                  73.5052
_cell_angle_gamma                 90.3148
loop_
_atom_site_label
_atom_site_type_symbol
_atom_site_fract_x
_atom_site_fract_y
_atom_site_fract_z
_atom_site_U_iso_or_equiv
_atom_site_adp_type
_atom_site_occupancy
C1     C     0.33278   0.08745   0.25139   0.00000  Uiso   1.00
C2     C     0.00056   0.24589   0.24860   0.00000  Uiso   1.00
C3     C     0.19296   0.18267   0.04518   0.00000  Uiso   1.00
C4     C     0.14037   0.15066   0.45482   0.00000  Uiso   1.00
C5     C     0.24203   0.18738   0.02247   0.00000  Uiso   1.00
C6     C     0.09130   0.14595   0.47753   0.00000  Uiso   1.00
C7     C     0.30809   0.02235   0.22555   0.00000  Uiso   1.00
C8     C     0.02524   0.31098   0.27445   0.00000  Uiso   1.00
C9     C     0.30977   0.31306   0.22200   0.00000  Uiso   1.00
C10    C     0.02356   0.02028   0.27800   0.00000  Uiso   1.00
C11    C     0.00125   0.29053   0.24749   0.00000  Uiso   1.00
C12    C     0.33208   0.04280   0.25251   0.00000  Uiso   1.00
C13    C     0.18273   0.14082   0.27786   0.00000  Uiso   1.00
C14    C     0.15060   0.19251   0.22214   0.00000  Uiso   1.00
C15    C     0.13289   0.14107   0.27772   0.00000  Uiso   1.00
C16    C     0.20044   0.19226   0.22228   0.00000  Uiso   1.00
C17    C     0.30559   0.16945   0.33570   0.00000  Uiso   1.00
C18    C     0.02774   0.16388   0.16430   0.00000  Uiso   1.00
C19    C     0.28914   0.17524   0.38411   0.00000  Uiso   1.00
C20    C     0.04419   0.15809   0.11589   0.00000  Uiso   1.00
C21    C     0.30765   0.18407   0.45402   0.00000  Uiso   1.00
C22    C     0.02569   0.14926   0.04598   0.00000  Uiso   1.00
C23    C     0.32328   0.17740   0.40846   0.00000  Uiso   1.00
C24    C     0.01005   0.15593   0.09154   0.00000  Uiso   1.00
C25    C     0.23902   0.18069   0.40636   0.00000  Uiso   1.00
C26    C     0.09432   0.15264   0.09364   0.00000  Uiso   1.00
C27    C     0.22322   0.17537   0.45289   0.00000  Uiso   1.00
C28    C     0.11012   0.15797   0.04711   0.00000  Uiso   1.00
C29    C     0.25785   0.18183   0.47668   0.00000  Uiso   1.00
C30    C     0.07548   0.15151   0.02332   0.00000  Uiso   1.00
C31    C     0.17415   0.16534   0.47652   0.00000  Uiso   1.00
C32    C     0.15918   0.16799   0.02348   0.00000  Uiso   1.00
Cu33   Cu    0.04689   0.16667   0.25000   0.00000  Uiso   1.00
Cu34   Cu    0.28645   0.16666   0.25000   0.00000  Uiso   1.00
H35    H     0.26747   0.19614   0.04072   0.00000  Uiso   1.00
H36    H     0.06586   0.13719   0.45928   0.00000  Uiso   1.00
H37    H     0.30459   0.15723   0.10797   0.00000  Uiso   1.00
H38    H     0.02874   0.17611   0.39203   0.00000  Uiso   1.00
H39    H     0.00117   0.18984   0.47158   0.00000  Uiso   1.00
H40    H     0.33217   0.14350   0.02842   0.00000  Uiso   1.00
H41    H     0.18203   0.19054   0.07990   0.00000  Uiso   1.00
H42    H     0.15130   0.14279   0.42010   0.00000  Uiso   1.00
H43    H     0.28964   0.03973   0.20558   0.00000  Uiso   1.00
H44    H     0.04369   0.29360   0.29442   0.00000  Uiso   1.00
H45    H     0.10666   0.12072   0.29975   0.00000  Uiso   1.00
H46    H     0.22667   0.21261   0.20025   0.00000  Uiso   1.00
N47    N     0.11736   0.16668   0.24999   0.00000  Uiso   1.00
N48    N     0.21597   0.16666   0.25001   0.00000  Uiso   1.00
O49    O     0.03958   0.10655   0.25000   0.00000  Uiso   1.00
O50    O     0.29375   0.22678   0.25000   0.00000  Uiso   1.00
O51    O     0.29372   0.10654   0.25000   0.00000  Uiso   1.00
O52    O     0.03961   0.22679   0.24999   0.00000  Uiso   1.00
O53    O     0.01852   0.16668   0.31491   0.00000  Uiso   1.00
O54    O     0.31481   0.16666   0.18508   0.00000  Uiso   1.00
O55    O     0.27267   0.16667   0.31492   0.00000  Uiso   1.00
O56    O     0.06067   0.16667   0.18508   0.00000  Uiso   1.00
C57    C     0.12669   0.12969   0.11668   0.00000  Uiso   1.00
H58    H     0.15725   0.11397   0.09244   0.00000  Uiso   1.00
H59    H     0.14198   0.15074   0.13711   0.00000  Uiso   1.00
H60    H     0.10545   0.10483   0.13835   0.00000  Uiso   1.00
C61    C     0.20665   0.20365   0.38332   0.00000  Uiso   1.00
H62    H     0.19136   0.18259   0.36289   0.00000  Uiso   1.00
H63    H     0.17608   0.21937   0.40756   0.00000  Uiso   1.00
H64    H     0.22788   0.22850   0.36165   0.00000  Uiso   1.00
O65    O     0.28808   0.29509   0.19254   0.00000  Uiso   1.00
H66    H     0.30355   0.26812   0.18307   0.00000  Uiso   1.00
O67    O     0.04525   0.03824   0.30746   0.00000  Uiso   1.00
H68    H     0.02978   0.06522   0.31693   0.00000  Uiso   1.00
O69    O     0.19845   0.11472   0.30568   0.00000  Uiso   1.00
H70    H     0.17024   0.09846   0.32379   0.00000  Uiso   1.00
O71    O     0.13488   0.21861   0.19431   0.00000  Uiso   1.00
H72    H     0.16310   0.23488   0.17621   0.00000  Uiso   1.00
C73    C     0.66611   0.08745   0.25139   0.00000  Uiso   1.00
C74    C     0.33389   0.24589   0.24860   0.00000  Uiso   1.00
C75    C     0.52629   0.18267   0.04518   0.00000  Uiso   1.00
C76    C     0.47371   0.15066   0.45482   0.00000  Uiso   1.00
C77    C     0.57537   0.18738   0.02247   0.00000  Uiso   1.00
C78    C     0.42463   0.14595   0.47753   0.00000  Uiso   1.00
C79    C     0.64142   0.02235   0.22555   0.00000  Uiso   1.00
C80    C     0.35858   0.31098   0.27445   0.00000  Uiso   1.00
C81    C     0.64311   0.31306   0.22200   0.00000  Uiso   1.00
C82    C     0.35690   0.02028   0.27800   0.00000  Uiso   1.00
C83    C     0.33458   0.29053   0.24749   0.00000  Uiso   1.00
C84    C     0.66542   0.04280   0.25251   0.00000  Uiso   1.00
C85    C     0.51607   0.14082   0.27786   0.00000  Uiso   1.00
C86    C     0.48393   0.19251   0.22214   0.00000  Uiso   1.00
C87    C     0.46622   0.14107   0.27772   0.00000  Uiso   1.00
C88    C     0.53378   0.19226   0.22228   0.00000  Uiso   1.00
C89    C     0.63892   0.16945   0.33570   0.00000  Uiso   1.00
C90    C     0.36108   0.16388   0.16430   0.00000  Uiso   1.00
C91    C     0.62247   0.17524   0.38411   0.00000  Uiso   1.00
C92    C     0.37753   0.15809   0.11589   0.00000  Uiso   1.00
C93    C     0.64098   0.18407   0.45402   0.00000  Uiso   1.00
C94    C     0.35902   0.14926   0.04598   0.00000  Uiso   1.00
C95    C     0.65662   0.17740   0.40846   0.00000  Uiso   1.00
C96    C     0.34338   0.15593   0.09154   0.00000  Uiso   1.00
C97    C     0.57235   0.18069   0.40636   0.00000  Uiso   1.00
C98    C     0.42765   0.15264   0.09364   0.00000  Uiso   1.00
C99    C     0.55655   0.17537   0.45289   0.00000  Uiso   1.00
C100   C     0.44345   0.15797   0.04711   0.00000  Uiso   1.00
C101   C     0.59119   0.18183   0.47668   0.00000  Uiso   1.00
C102   C     0.40881   0.15151   0.02332   0.00000  Uiso   1.00
C103   C     0.50749   0.16534   0.47652   0.00000  Uiso   1.00
C104   C     0.49251   0.16799   0.02348   0.00000  Uiso   1.00
Cu105  Cu    0.38022   0.16667   0.25000   0.00000  Uiso   1.00
Cu106  Cu    0.61978   0.16666   0.25000   0.00000  Uiso   1.00
H107   H     0.60080   0.19614   0.04072   0.00000  Uiso   1.00
H108   H     0.39920   0.13719   0.45928   0.00000  Uiso   1.00
H109   H     0.63793   0.15723   0.10797   0.00000  Uiso   1.00
H110   H     0.36207   0.17611   0.39203   0.00000  Uiso   1.00
H111   H     0.33450   0.18984   0.47158   0.00000  Uiso   1.00
H112   H     0.66550   0.14350   0.02842   0.00000  Uiso   1.00
H113   H     0.51536   0.19054   0.07990   0.00000  Uiso   1.00
H114   H     0.48464   0.14279   0.42010   0.00000  Uiso   1.00
H115   H     0.62298   0.03973   0.20558   0.00000  Uiso   1.00
H116   H     0.37702   0.29360   0.29442   0.00000  Uiso   1.00
H117   H     0.44000   0.12072   0.29975   0.00000  Uiso   1.00
H118   H     0.56000   0.21261   0.20025   0.00000  Uiso   1.00
N119   N     0.45069   0.16668   0.24999   0.00000  Uiso   1.00
N120   N     0.54931   0.16666   0.25001   0.00000  Uiso   1.00
O121   O     0.37291   0.10655   0.25000   0.00000  Uiso   1.00
O122   O     0.62709   0.22678   0.25000   0.00000  Uiso   1.00
O123   O     0.62706   0.10654   0.25000   0.00000  Uiso   1.00
O124   O     0.37294   0.22679   0.24999   0.00000  Uiso   1.00
O125   O     0.35186   0.16668   0.31491   0.00000  Uiso   1.00
O126   O     0.64814   0.16666   0.18508   0.00000  Uiso   1.00
O127   O     0.60600   0.16667   0.31492   0.00000  Uiso   1.00
O128   O     0.39400   0.16667   0.18508   0.00000  Uiso   1.00
C129   C     0.46002   0.12969   0.11668   0.00000  Uiso   1.00
H130   H     0.49058   0.11397   0.09244   0.00000  Uiso   1.00
H131   H     0.47531   0.15074   0.13711   0.00000  Uiso   1.00
H132   H     0.43879   0.10483   0.13835   0.00000  Uiso   1.00
C133   C     0.53998   0.20365   0.38332   0.00000  Uiso   1.00
H134   H     0.52469   0.18259   0.36289   0.00000  Uiso   1.00
H135   H     0.50942   0.21937   0.40756   0.00000  Uiso   1.00
H136   H     0.56121   0.22850   0.36165   0.00000  Uiso   1.00
O137   O     0.62142   0.29509   0.19254   0.00000  Uiso   1.00
H138   H     0.63689   0.26812   0.18307   0.00000  Uiso   1.00
O139   O     0.37858   0.03824   0.30746   0.00000  Uiso   1.00
H140   H     0.36312   0.06522   0.31693   0.00000  Uiso   1.00
O141   O     0.53179   0.11472   0.30568   0.00000  Uiso   1.00
H142   H     0.50357   0.09846   0.32379   0.00000  Uiso   1.00
O143   O     0.46821   0.21861   0.19431   0.00000  Uiso   1.00
H144   H     0.49643   0.23488   0.17621   0.00000  Uiso   1.00
C145   C     0.99944   0.08745   0.25139   0.00000  Uiso   1.00
C146   C     0.66722   0.24589   0.24860   0.00000  Uiso   1.00
C147   C     0.85963   0.18267   0.04518   0.00000  Uiso   1.00
C148   C     0.80704   0.15066   0.45482   0.00000  Uiso   1.00
C149   C     0.90870   0.18738   0.02247   0.00000  Uiso   1.00
C150   C     0.75797   0.14595   0.47753   0.00000  Uiso   1.00
C151   C     0.97476   0.02235   0.22555   0.00000  Uiso   1.00
C152   C     0.69191   0.31098   0.27445   0.00000  Uiso   1.00
C153   C     0.97644   0.31306   0.22200   0.00000  Uiso   1.00
C154   C     0.69023   0.02028   0.27800   0.00000  Uiso   1.00
C155   C     0.66792   0.29053   0.24749   0.00000  Uiso   1.00
C156   C     0.99875   0.04280   0.25251   0.00000  Uiso   1.00
C157   C     0.84940   0.14082   0.27786   0.00000  Uiso   1.00
C158   C     0.81727   0.19251   0.22214   0.00000  Uiso   1.00
C159   C     0.79956   0.14107   0.27772   0.00000  Uiso   1.00
C160   C     0.86711   0.19226   0.22228   0.00000  Uiso   1.00
C161   C     0.97226   0.16945   0.33570   0.00000  Uiso   1.00
C162   C     0.69441   0.16388   0.16430   0.00000  Uiso   1.00
C163   C     0.95581   0.17524   0.38411   0.00000  Uiso   1.00
C164   C     0.71086   0.15809   0.11589   0.00000  Uiso   1.00
C165   C     0.97431   0.18407   0.45402   0.00000  Uiso   1.00
C166   C     0.69235   0.14926   0.04598   0.00000  Uiso   1.00
C167   C     0.98995   0.17740   0.40846   0.00000  Uiso   1.00
C168   C     0.67672   0.15593   0.09154   0.00000  Uiso   1.00
C169   C     0.90568   0.18069   0.40636   0.00000  Uiso   1.00
C170   C     0.76098   0.15264   0.09364   0.00000  Uiso   1.00
C171   C     0.88988   0.17537   0.45289   0.00000  Uiso   1.00
C172   C     0.77678   0.15797   0.04711   0.00000  Uiso   1.00
C173   C     0.92452   0.18183   0.47668   0.00000  Uiso   1.00
C174   C     0.74215   0.15151   0.02332   0.00000  Uiso   1.00
C175   C     0.84082   0.16534   0.47652   0.00000  Uiso   1.00
C176   C     0.82585   0.16799   0.02348   0.00000  Uiso   1.00
Cu177  Cu    0.71355   0.16667   0.25000   0.00000  Uiso   1.00
Cu178  Cu    0.95311   0.16666   0.25000   0.00000  Uiso   1.00
H179   H     0.93414   0.19614   0.04072   0.00000  Uiso   1.00
H180   H     0.73253   0.13719   0.45928   0.00000  Uiso   1.00
H181   H     0.97126   0.15723   0.10797   0.00000  Uiso   1.00
H182   H     0.69541   0.17611   0.39203   0.00000  Uiso   1.00
H183   H     0.66783   0.18984   0.47158   0.00000  Uiso   1.00
H184   H     0.99883   0.14350   0.02842   0.00000  Uiso   1.00
H185   H     0.84870   0.19054   0.07990   0.00000  Uiso   1.00
H186   H     0.81797   0.14279   0.42010   0.00000  Uiso   1.00
H187   H     0.95631   0.03973   0.20558   0.00000  Uiso   1.00
H188   H     0.71036   0.29360   0.29442   0.00000  Uiso   1.00
H189   H     0.77333   0.12072   0.29975   0.00000  Uiso   1.00
H190   H     0.89334   0.21261   0.20025   0.00000  Uiso   1.00
N191   N     0.78403   0.16668   0.24999   0.00000  Uiso   1.00
N192   N     0.88264   0.16666   0.25001   0.00000  Uiso   1.00
O193   O     0.70625   0.10655   0.25000   0.00000  Uiso   1.00
O194   O     0.96042   0.22678   0.25000   0.00000  Uiso   1.00
O195   O     0.96039   0.10654   0.25000   0.00000  Uiso   1.00
O196   O     0.70628   0.22679   0.24999   0.00000  Uiso   1.00
O197   O     0.68519   0.16668   0.31491   0.00000  Uiso   1.00
O198   O     0.98148   0.16666   0.18508   0.00000  Uiso   1.00
O199   O     0.93933   0.16667   0.31492   0.00000  Uiso   1.00
O200   O     0.72733   0.16667   0.18508   0.00000  Uiso   1.00
C201   C     0.79336   0.12969   0.11668   0.00000  Uiso   1.00
H202   H     0.82392   0.11397   0.09244   0.00000  Uiso   1.00
H203   H     0.80864   0.15074   0.13711   0.00000  Uiso   1.00
H204   H     0.77212   0.10483   0.13835   0.00000  Uiso   1.00
C205   C     0.87331   0.20365   0.38332   0.00000  Uiso   1.00
H206   H     0.85802   0.18259   0.36289   0.00000  Uiso   1.00
H207   H     0.84275   0.21937   0.40756   0.00000  Uiso   1.00
H208   H     0.89455   0.22850   0.36165   0.00000  Uiso   1.00
O209   O     0.95475   0.29509   0.19254   0.00000  Uiso   1.00
H210   H     0.97022   0.26812   0.18307   0.00000  Uiso   1.00
O211   O     0.71192   0.03824   0.30746   0.00000  Uiso   1.00
H212   H     0.69645   0.06522   0.31693   0.00000  Uiso   1.00
O213   O     0.86512   0.11472   0.30568   0.00000  Uiso   1.00
H214   H     0.83690   0.09846   0.32379   0.00000  Uiso   1.00
O215   O     0.80155   0.21861   0.19431   0.00000  Uiso   1.00
H216   H     0.82976   0.23488   0.17621   0.00000  Uiso   1.00
C217   C     0.33278   0.42078   0.25139   0.00000  Uiso   1.00
C218   C     0.00056   0.57922   0.24860   0.00000  Uiso   1.00
C219   C     0.19296   0.51601   0.04518   0.00000  Uiso   1.00
C220   C     0.14037   0.48399   0.45482   0.00000  Uiso   1.00
C221   C     0.24203   0.52072   0.02247   0.00000  Uiso   1.00
C222   C     0.09130   0.47928   0.47753   0.00000  Uiso   1.00
C223   C     0.30809   0.35568   0.22555   0.00000  Uiso   1.00
C224   C     0.02524   0.64432   0.27445   0.00000  Uiso   1.00
C225   C     0.30977   0.64639   0.22200   0.00000  Uiso   1.00
C226   C     0.02356   0.35361   0.27800   0.00000  Uiso   1.00
C227   C     0.00125   0.62386   0.24749   0.00000  Uiso   1.00
C228   C     0.33208   0.37614   0.25251   0.00000  Uiso   1.00
C229   C     0.18273   0.47415   0.27786   0.00000  Uiso   1.00
C230   C     0.15060   0.52585   0.22214   0.00000  Uiso   1.00
C231   C     0.13289   0.47440   0.27772   0.00000  Uiso   1.00
C232   C     0.20044   0.52560   0.22228   0.00000  Uiso   1.00
C233   C     0.30559   0.50279   0.33570   0.00000  Uiso   1.00
C234   C     0.02774   0.49721   0.16430   0.00000  Uiso   1.00
C235   C     0.28914   0.50857   0.38411   0.00000  Uiso   1.00
C236   C     0.04419   0.49143   0.11589   0.00000  Uiso   1.00
C237   C     0.30765   0.51741   0.45402   0.00000  Uiso   1.00
C238   C     0.02569   0.48259   0.04598   0.00000  Uiso   1.00
C239   C     0.32328   0.51073   0.40846   0.00000  Uiso   1.00
C240   C     0.01005   0.48927   0.09154   0.00000  Uiso   1.00
C241   C     0.23902   0.51402   0.40636   0.00000  Uiso   1.00
C242   C     0.09432   0.48598   0.09364   0.00000  Uiso   1.00
C243   C     0.22322   0.50870   0.45289   0.00000  Uiso   1.00
C244   C     0.11012   0.49130   0.04711   0.00000  Uiso   1.00
C245   C     0.25785   0.51516   0.47668   0.00000  Uiso   1.00
C246   C     0.07548   0.48484   0.02332   0.00000  Uiso   1.00
C247   C     0.17415   0.49867   0.47652   0.00000  Uiso   1.00
C248   C     0.15918   0.50132   0.02348   0.00000  Uiso   1.00
Cu249  Cu    0.04689   0.50001   0.25000   0.00000  Uiso   1.00
Cu250  Cu    0.28645   0.49999   0.25000   0.00000  Uiso   1.00
H251   H     0.26747   0.52948   0.04072   0.00000  Uiso   1.00
H252   H     0.06586   0.47052   0.45928   0.00000  Uiso   1.00
H253   H     0.30459   0.49056   0.10797   0.00000  Uiso   1.00
H254   H     0.02874   0.50944   0.39203   0.00000  Uiso   1.00
H255   H     0.00117   0.52317   0.47158   0.00000  Uiso   1.00
H256   H     0.33217   0.47683   0.02842   0.00000  Uiso   1.00
H257   H     0.18203   0.52387   0.07990   0.00000  Uiso   1.00
H258   H     0.15130   0.47613   0.42010   0.00000  Uiso   1.00
H259   H     0.28964   0.37307   0.20558   0.00000  Uiso   1.00
H260   H     0.04369   0.62693   0.29442   0.00000  Uiso   1.00
H261   H     0.10666   0.45405   0.29975   0.00000  Uiso   1.00
H262   H     0.22667   0.54595   0.20025   0.00000  Uiso   1.00
N263   N     0.11736   0.50001   0.24999   0.00000  Uiso   1.00
N264   N     0.21597   0.49999   0.25001   0.00000  Uiso   1.00
O265   O     0.03958   0.43989   0.25000   0.00000  Uiso   1.00
O266   O     0.29375   0.56011   0.25000   0.00000  Uiso   1.00
O267   O     0.29372   0.43988   0.25000   0.00000  Uiso   1.00
O268   O     0.03961   0.56012   0.24999   0.00000  Uiso   1.00
O269   O     0.01852   0.50001   0.31491   0.00000  Uiso   1.00
O270   O     0.31481   0.49999   0.18508   0.00000  Uiso   1.00
O271   O     0.27267   0.50000   0.31492   0.00000  Uiso   1.00
O272   O     0.06067   0.50000   0.18508   0.00000  Uiso   1.00
C273   C     0.12669   0.46302   0.11668   0.00000  Uiso   1.00
H274   H     0.15725   0.44730   0.09244   0.00000  Uiso   1.00
H275   H     0.14198   0.48408   0.13711   0.00000  Uiso   1.00
H276   H     0.10545   0.43816   0.13835   0.00000  Uiso   1.00
C277   C     0.20665   0.53698   0.38332   0.00000  Uiso   1.00
H278   H     0.19136   0.51592   0.36289   0.00000  Uiso   1.00
H279   H     0.17608   0.55270   0.40756   0.00000  Uiso   1.00
H280   H     0.22788   0.56184   0.36165   0.00000  Uiso   1.00
O281   O     0.28808   0.62842   0.19254   0.00000  Uiso   1.00
H282   H     0.30355   0.60145   0.18307   0.00000  Uiso   1.00
O283   O     0.04525   0.37158   0.30746   0.00000  Uiso   1.00
H284   H     0.02978   0.39855   0.31693   0.00000  Uiso   1.00
O285   O     0.19845   0.44805   0.30568   0.00000  Uiso   1.00
H286   H     0.17024   0.43179   0.32379   0.00000  Uiso   1.00
O287   O     0.13488   0.55195   0.19431   0.00000  Uiso   1.00
H288   H     0.16310   0.56821   0.17621   0.00000  Uiso   1.00
C289   C     0.66611   0.42078   0.25139   0.00000  Uiso   1.00
C290   C     0.33389   0.57922   0.24860   0.00000  Uiso   1.00
C291   C     0.52629   0.51601   0.04518   0.00000  Uiso   1.00
C292   C     0.47371   0.48399   0.45482   0.00000  Uiso   1.00
C293   C     0.57537   0.52072   0.02247   0.00000  Uiso   1.00
C294   C     0.42463   0.47928   0.47753   0.00000  Uiso   1.00
C295   C     0.64142   0.35568   0.22555   0.00000  Uiso   1.00
C296   C     0.35858   0.64432   0.27445   0.00000  Uiso   1.00
C297   C     0.64311   0.64639   0.22200   0.00000  Uiso   1.00
C298   C     0.35690   0.35361   0.27800   0.00000  Uiso   1.00
C299   C     0.33458   0.62386   0.24749   0.00000  Uiso   1.00
C300   C     0.66542   0.37614   0.25251   0.00000  Uiso   1.00
C301   C     0.51607   0.47415   0.27786   0.00000  Uiso   1.00
C302   C     0.48393   0.52585   0.22214   0.00000  Uiso   1.00
C303   C     0.46622   0.47440   0.27772   0.00000  Uiso   1.00
C304   C     0.53378   0.52560   0.22228   0.00000  Uiso   1.00
C305   C     0.63892   0.50279   0.33570   0.00000  Uiso   1.00
C306   C     0.36108   0.49721   0.16430   0.00000  Uiso   1.00
C307   C     0.62247   0.50857   0.38411   0.00000  Uiso   1.00
C308   C     0.37753   0.49143   0.11589   0.00000  Uiso   1.00
C309   C     0.64098   0.51741   0.45402   0.00000  Uiso   1.00
C310   C     0.35902   0.48259   0.04598   0.00000  Uiso   1.00
C311   C     0.65662   0.51073   0.40846   0.00000  Uiso   1.00
C312   C     0.34338   0.48927   0.09154   0.00000  Uiso   1.00
C313   C     0.57235   0.51402   0.40636   0.00000  Uiso   1.00
C314   C     0.42765   0.48598   0.09364   0.00000  Uiso   1.00
C315   C     0.55655   0.50870   0.45289   0.00000  Uiso   1.00
C316   C     0.44345   0.49130   0.04711   0.00000  Uiso   1.00
C317   C     0.59119   0.51516   0.47668   0.00000  Uiso   1.00
C318   C     0.40881   0.48484   0.02332   0.00000  Uiso   1.00
C319   C     0.50749   0.49867   0.47652   0.00000  Uiso   1.00
C320   C     0.49251   0.50132   0.02348   0.00000  Uiso   1.00
Cu321  Cu    0.38022   0.50001   0.25000   0.00000  Uiso   1.00
Cu322  Cu    0.61978   0.49999   0.25000   0.00000  Uiso   1.00
H323   H     0.60080   0.52948   0.04072   0.00000  Uiso   1.00
H324   H     0.39920   0.47052   0.45928   0.00000  Uiso   1.00
H325   H     0.63793   0.49056   0.10797   0.00000  Uiso   1.00
H326   H     0.36207   0.50944   0.39203   0.00000  Uiso   1.00
H327   H     0.33450   0.52317   0.47158   0.00000  Uiso   1.00
H328   H     0.66550   0.47683   0.02842   0.00000  Uiso   1.00
H329   H     0.51536   0.52387   0.07990   0.00000  Uiso   1.00
H330   H     0.48464   0.47613   0.42010   0.00000  Uiso   1.00
H331   H     0.62298   0.37307   0.20558   0.00000  Uiso   1.00
H332   H     0.37702   0.62693   0.29442   0.00000  Uiso   1.00
H333   H     0.44000   0.45405   0.29975   0.00000  Uiso   1.00
H334   H     0.56000   0.54595   0.20025   0.00000  Uiso   1.00
N335   N     0.45069   0.50001   0.24999   0.00000  Uiso   1.00
N336   N     0.54931   0.49999   0.25001   0.00000  Uiso   1.00
O337   O     0.37291   0.43989   0.25000   0.00000  Uiso   1.00
O338   O     0.62709   0.56011   0.25000   0.00000  Uiso   1.00
O339   O     0.62706   0.43988   0.25000   0.00000  Uiso   1.00
O340   O     0.37294   0.56012   0.24999   0.00000  Uiso   1.00
O341   O     0.35186   0.50001   0.31491   0.00000  Uiso   1.00
O342   O     0.64814   0.49999   0.18508   0.00000  Uiso   1.00
O343   O     0.60600   0.50000   0.31492   0.00000  Uiso   1.00
O344   O     0.39400   0.50000   0.18508   0.00000  Uiso   1.00
C345   C     0.46002   0.46302   0.11668   0.00000  Uiso   1.00
H346   H     0.49058   0.44730   0.09244   0.00000  Uiso   1.00
H347   H     0.47531   0.48408   0.13711   0.00000  Uiso   1.00
H348   H     0.43879   0.43816   0.13835   0.00000  Uiso   1.00
C349   C     0.53998   0.53698   0.38332   0.00000  Uiso   1.00
H350   H     0.52469   0.51592   0.36289   0.00000  Uiso   1.00
H351   H     0.50942   0.55270   0.40756   0.00000  Uiso   1.00
H352   H     0.56121   0.56184   0.36165   0.00000  Uiso   1.00
O353   O     0.62142   0.62842   0.19254   0.00000  Uiso   1.00
H354   H     0.63689   0.60145   0.18307   0.00000  Uiso   1.00
O355   O     0.37858   0.37158   0.30746   0.00000  Uiso   1.00
H356   H     0.36312   0.39855   0.31693   0.00000  Uiso   1.00
O357   O     0.53179   0.44805   0.30568   0.00000  Uiso   1.00
H358   H     0.50357   0.43179   0.32379   0.00000  Uiso   1.00
O359   O     0.46821   0.55195   0.19431   0.00000  Uiso   1.00
H360   H     0.49643   0.56821   0.17621   0.00000  Uiso   1.00
C361   C     0.99944   0.42078   0.25139   0.00000  Uiso   1.00
C362   C     0.66722   0.57922   0.24860   0.00000  Uiso   1.00
C363   C     0.85963   0.51601   0.04518   0.00000  Uiso   1.00
C364   C     0.80704   0.48399   0.45482   0.00000  Uiso   1.00
C365   C     0.90870   0.52072   0.02247   0.00000  Uiso   1.00
C366   C     0.75797   0.47928   0.47753   0.00000  Uiso   1.00
C367   C     0.97476   0.35568   0.22555   0.00000  Uiso   1.00
C368   C     0.69191   0.64432   0.27445   0.00000  Uiso   1.00
C369   C     0.97644   0.64639   0.22200   0.00000  Uiso   1.00
C370   C     0.69023   0.35361   0.27800   0.00000  Uiso   1.00
C371   C     0.66792   0.62386   0.24749   0.00000  Uiso   1.00
C372   C     0.99875   0.37614   0.25251   0.00000  Uiso   1.00
C373   C     0.84940   0.47415   0.27786   0.00000  Uiso   1.00
C374   C     0.81727   0.52585   0.22214   0.00000  Uiso   1.00
C375   C     0.79956   0.47440   0.27772   0.00000  Uiso   1.00
C376   C     0.86711   0.52560   0.22228   0.00000  Uiso   1.00
C377   C     0.97226   0.50279   0.33570   0.00000  Uiso   1.00
C378   C     0.69441   0.49721   0.16430   0.00000  Uiso   1.00
C379   C     0.95581   0.50857   0.38411   0.00000  Uiso   1.00
C380   C     0.71086   0.49143   0.11589   0.00000  Uiso   1.00
C381   C     0.97431   0.51741   0.45402   0.00000  Uiso   1.00
C382   C     0.69235   0.48259   0.04598   0.00000  Uiso   1.00
C383   C     0.98995   0.51073   0.40846   0.00000  Uiso   1.00
C384   C     0.67672   0.48927   0.09154   0.00000  Uiso   1.00
C385   C     0.90568   0.51402   0.40636   0.00000  Uiso   1.00
C386   C     0.76098   0.48598   0.09364   0.00000  Uiso   1.00
C387   C     0.88988   0.50870   0.45289   0.00000  Uiso   1.00
C388   C     0.77678   0.49130   0.04711   0.00000  Uiso   1.00
C389   C     0.92452   0.51516   0.47668   0.00000  Uiso   1.00
C390   C     0.74215   0.48484   0.02332   0.00000  Uiso   1.00
C391   C     0.84082   0.49867   0.47652   0.00000  Uiso   1.00
C392   C     0.82585   0.50132   0.02348   0.00000  Uiso   1.00
Cu393  Cu    0.71355   0.50001   0.25000   0.00000  Uiso   1.00
Cu394  Cu    0.95311   0.49999   0.25000   0.00000  Uiso   1.00
H395   H     0.93414   0.52948   0.04072   0.00000  Uiso   1.00
H396   H     0.73253   0.47052   0.45928   0.00000  Uiso   1.00
H397   H     0.97126   0.49056   0.10797   0.00000  Uiso   1.00
H398   H     0.69541   0.50944   0.39203   0.00000  Uiso   1.00
H399   H     0.66783   0.52317   0.47158   0.00000  Uiso   1.00
H400   H     0.99883   0.47683   0.02842   0.00000  Uiso   1.00
H401   H     0.84870   0.52387   0.07990   0.00000  Uiso   1.00
H402   H     0.81797   0.47613   0.42010   0.00000  Uiso   1.00
H403   H     0.95631   0.37307   0.20558   0.00000  Uiso   1.00
H404   H     0.71036   0.62693   0.29442   0.00000  Uiso   1.00
H405   H     0.77333   0.45405   0.29975   0.00000  Uiso   1.00
H406   H     0.89334   0.54595   0.20025   0.00000  Uiso   1.00
N407   N     0.78403   0.50001   0.24999   0.00000  Uiso   1.00
N408   N     0.88264   0.49999   0.25001   0.00000  Uiso   1.00
O409   O     0.70625   0.43989   0.25000   0.00000  Uiso   1.00
O410   O     0.96042   0.56011   0.25000   0.00000  Uiso   1.00
O411   O     0.96039   0.43988   0.25000   0.00000  Uiso   1.00
O412   O     0.70628   0.56012   0.24999   0.00000  Uiso   1.00
O413   O     0.68519   0.50001   0.31491   0.00000  Uiso   1.00
O414   O     0.98148   0.49999   0.18508   0.00000  Uiso   1.00
O415   O     0.93933   0.50000   0.31492   0.00000  Uiso   1.00
O416   O     0.72733   0.50000   0.18508   0.00000  Uiso   1.00
C417   C     0.79336   0.46302   0.11668   0.00000  Uiso   1.00
H418   H     0.82392   0.44730   0.09244   0.00000  Uiso   1.00
H419   H     0.80864   0.48408   0.13711   0.00000  Uiso   1.00
H420   H     0.77212   0.43816   0.13835   0.00000  Uiso   1.00
C421   C     0.87331   0.53698   0.38332   0.00000  Uiso   1.00
H422   H     0.85802   0.51592   0.36289   0.00000  Uiso   1.00
H423   H     0.84275   0.55270   0.40756   0.00000  Uiso   1.00
H424   H     0.89455   0.56184   0.36165   0.00000  Uiso   1.00
O425   O     0.95475   0.62842   0.19254   0.00000  Uiso   1.00
H426   H     0.97022   0.60145   0.18307   0.00000  Uiso   1.00
O427   O     0.71192   0.37158   0.30746   0.00000  Uiso   1.00
H428   H     0.69645   0.39855   0.31693   0.00000  Uiso   1.00
O429   O     0.86512   0.44805   0.30568   0.00000  Uiso   1.00
H430   H     0.83690   0.43179   0.32379   0.00000  Uiso   1.00
O431   O     0.80155   0.55195   0.19431   0.00000  Uiso   1.00
H432   H     0.82976   0.56821   0.17621   0.00000  Uiso   1.00
C433   C     0.33278   0.75411   0.25139   0.00000  Uiso   1.00
C434   C     0.00056   0.91255   0.24860   0.00000  Uiso   1.00
C435   C     0.19296   0.84934   0.04518   0.00000  Uiso   1.00
C436   C     0.14037   0.81733   0.45482   0.00000  Uiso   1.00
C437   C     0.24203   0.85405   0.02247   0.00000  Uiso   1.00
C438   C     0.09130   0.81262   0.47753   0.00000  Uiso   1.00
C439   C     0.30809   0.68902   0.22555   0.00000  Uiso   1.00
C440   C     0.02524   0.97765   0.27445   0.00000  Uiso   1.00
C441   C     0.30977   0.97972   0.22200   0.00000  Uiso   1.00
C442   C     0.02356   0.68694   0.27800   0.00000  Uiso   1.00
C443   C     0.00125   0.95720   0.24749   0.00000  Uiso   1.00
C444   C     0.33208   0.70947   0.25251   0.00000  Uiso   1.00
C445   C     0.18273   0.80749   0.27786   0.00000  Uiso   1.00
C446   C     0.15060   0.85918   0.22214   0.00000  Uiso   1.00
C447   C     0.13289   0.80774   0.27772   0.00000  Uiso   1.00
C448   C     0.20044   0.85893   0.22228   0.00000  Uiso   1.00
C449   C     0.30559   0.83612   0.33570   0.00000  Uiso   1.00
C450   C     0.02774   0.83055   0.16430   0.00000  Uiso   1.00
C451   C     0.28914   0.84191   0.38411   0.00000  Uiso   1.00
C452   C     0.04419   0.82476   0.11589   0.00000  Uiso   1.00
C453   C     0.30765   0.85074   0.45402   0.00000  Uiso   1.00
C454   C     0.02569   0.81593   0.04598   0.00000  Uiso   1.00
C455   C     0.32328   0.84407   0.40846   0.00000  Uiso   1.00
C456   C     0.01005   0.82260   0.09154   0.00000  Uiso   1.00
C457   C     0.23902   0.84736   0.40636   0.00000  Uiso   1.00
C458   C     0.09432   0.81931   0.09364   0.00000  Uiso   1.00
C459   C     0.22322   0.84203   0.45289   0.00000  Uiso   1.00
C460   C     0.11012   0.82463   0.04711   0.00000  Uiso   1.00
C461   C     0.25785   0.84849   0.47668   0.00000  Uiso   1.00
C462   C     0.07548   0.81817   0.02332   0.00000  Uiso   1.00
C463   C     0.17415   0.83201   0.47652   0.00000  Uiso   1.00
C464   C     0.15918   0.83466   0.02348   0.00000  Uiso   1.00
Cu465  Cu    0.04689   0.83334   0.25000   0.00000  Uiso   1.00
Cu466  Cu    0.28645   0.83333   0.25000   0.00000  Uiso   1.00
H467   H     0.26747   0.86281   0.04072   0.00000  Uiso   1.00
H468   H     0.06586   0.80386   0.45928   0.00000  Uiso   1.00
H469   H     0.30459   0.82389   0.10797   0.00000  Uiso   1.00
H470   H     0.02874   0.84277   0.39203   0.00000  Uiso   1.00
H471   H     0.00117   0.85650   0.47158   0.00000  Uiso   1.00
H472   H     0.33217   0.81016   0.02842   0.00000  Uiso   1.00
H473   H     0.18203   0.85721   0.07990   0.00000  Uiso   1.00
H474   H     0.15130   0.80946   0.42010   0.00000  Uiso   1.00
H475   H     0.28964   0.70640   0.20558   0.00000  Uiso   1.00
H476   H     0.04369   0.96027   0.29442   0.00000  Uiso   1.00
H477   H     0.10666   0.78738   0.29975   0.00000  Uiso   1.00
H478   H     0.22667   0.87928   0.20025   0.00000  Uiso   1.00
N479   N     0.11736   0.83334   0.24999   0.00000  Uiso   1.00
N480   N     0.21597   0.83332   0.25001   0.00000  Uiso   1.00
O481   O     0.03958   0.77322   0.25000   0.00000  Uiso   1.00
O482   O     0.29375   0.89345   0.25000   0.00000  Uiso   1.00
O483   O     0.29372   0.77321   0.25000   0.00000  Uiso   1.00
O484   O     0.03961   0.89346   0.24999   0.00000  Uiso   1.00
O485   O     0.01852   0.83334   0.31491   0.00000  Uiso   1.00
O486   O     0.31481   0.83332   0.18508   0.00000  Uiso   1.00
O487   O     0.27267   0.83333   0.31492   0.00000  Uiso   1.00
O488   O     0.06067   0.83333   0.18508   0.00000  Uiso   1.00
C489   C     0.12669   0.79635   0.11668   0.00000  Uiso   1.00
H490   H     0.15725   0.78063   0.09244   0.00000  Uiso   1.00
H491   H     0.14198   0.81741   0.13711   0.00000  Uiso   1.00
H492   H     0.10545   0.77149   0.13835   0.00000  Uiso   1.00
C493   C     0.20665   0.87031   0.38332   0.00000  Uiso   1.00
H494   H     0.19136   0.84925   0.36289   0.00000  Uiso   1.00
H495   H     0.17608   0.88603   0.40756   0.00000  Uiso   1.00
H496   H     0.22788   0.89517   0.36165   0.00000  Uiso   1.00
O497   O     0.28808   0.96176   0.19254   0.00000  Uiso   1.00
H498   H     0.30355   0.93478   0.18307   0.00000  Uiso   1.00
O499   O     0.04525   0.70491   0.30746   0.00000  Uiso   1.00
H500   H     0.02978   0.73188   0.31693   0.00000  Uiso   1.00
O501   O     0.19845   0.78139   0.30568   0.00000  Uiso   1.00
H502   H     0.17024   0.76512   0.32379   0.00000  Uiso   1.00
O503   O     0.13488   0.88528   0.19431   0.00000  Uiso   1.00
H504   H     0.16310   0.90154   0.17621   0.00000  Uiso   1.00
C505   C     0.66611   0.75411   0.25139   0.00000  Uiso   1.00
C506   C     0.33389   0.91255   0.24860   0.00000  Uiso   1.00
C507   C     0.52629   0.84934   0.04518   0.00000  Uiso   1.00
C508   C     0.47371   0.81733   0.45482   0.00000  Uiso   1.00
C509   C     0.57537   0.85405   0.02247   0.00000  Uiso   1.00
C510   C     0.42463   0.81262   0.47753   0.00000  Uiso   1.00
C511   C     0.64142   0.68902   0.22555   0.00000  Uiso   1.00
C512   C     0.35858   0.97765   0.27445   0.00000  Uiso   1.00
C513   C     0.64311   0.97972   0.22200   0.00000  Uiso   1.00
C514   C     0.35690   0.68694   0.27800   0.00000  Uiso   1.00
C515   C     0.33458   0.95720   0.24749   0.00000  Uiso   1.00
C516   C     0.66542   0.70947   0.25251   0.00000  Uiso   1.00
C517   C     0.51607   0.80749   0.27786   0.00000  Uiso   1.00
C518   C     0.48393   0.85918   0.22214   0.00000  Uiso   1.00
C519   C     0.46622   0.80774   0.27772   0.00000  Uiso   1.00
C520   C     0.53378   0.85893   0.22228   0.00000  Uiso   1.00
C521   C     0.63892   0.83612   0.33570   0.00000  Uiso   1.00
C522   C     0.36108   0.83055   0.16430   0.00000  Uiso   1.00
C523   C     0.62247   0.84191   0.38411   0.00000  Uiso   1.00
C524   C     0.37753   0.82476   0.11589   0.00000  Uiso   1.00
C525   C     0.64098   0.85074   0.45402   0.00000  Uiso   1.00
C526   C     0.35902   0.81593   0.04598   0.00000  Uiso   1.00
C527   C     0.65662   0.84407   0.40846   0.00000  Uiso   1.00
C528   C     0.34338   0.82260   0.09154   0.00000  Uiso   1.00
C529   C     0.57235   0.84736   0.40636   0.00000  Uiso   1.00
C530   C     0.42765   0.81931   0.09364   0.00000  Uiso   1.00
C531   C     0.55655   0.84203   0.45289   0.00000  Uiso   1.00
C532   C     0.44345   0.82463   0.04711   0.00000  Uiso   1.00
C533   C     0.59119   0.84849   0.47668   0.00000  Uiso   1.00
C534   C     0.40881   0.81817   0.02332   0.00000  Uiso   1.00
C535   C     0.50749   0.83201   0.47652   0.00000  Uiso   1.00
C536   C     0.49251   0.83466   0.02348   0.00000  Uiso   1.00
Cu537  Cu    0.38022   0.83334   0.25000   0.00000  Uiso   1.00
Cu538  Cu    0.61978   0.83333   0.25000   0.00000  Uiso   1.00
H539   H     0.60080   0.86281   0.04072   0.00000  Uiso   1.00
H540   H     0.39920   0.80386   0.45928   0.00000  Uiso   1.00
H541   H     0.63793   0.82389   0.10797   0.00000  Uiso   1.00
H542   H     0.36207   0.84277   0.39203   0.00000  Uiso   1.00
H543   H     0.33450   0.85650   0.47158   0.00000  Uiso   1.00
H544   H     0.66550   0.81016   0.02842   0.00000  Uiso   1.00
H545   H     0.51536   0.85721   0.07990   0.00000  Uiso   1.00
H546   H     0.48464   0.80946   0.42010   0.00000  Uiso   1.00
H547   H     0.62298   0.70640   0.20558   0.00000  Uiso   1.00
H548   H     0.37702   0.96027   0.29442   0.00000  Uiso   1.00
H549   H     0.44000   0.78738   0.29975   0.00000  Uiso   1.00
H550   H     0.56000   0.87928   0.20025   0.00000  Uiso   1.00
N551   N     0.45069   0.83334   0.24999   0.00000  Uiso   1.00
N552   N     0.54931   0.83332   0.25001   0.00000  Uiso   1.00
O553   O     0.37291   0.77322   0.25000   0.00000  Uiso   1.00
O554   O     0.62709   0.89345   0.25000   0.00000  Uiso   1.00
O555   O     0.62706   0.77321   0.25000   0.00000  Uiso   1.00
O556   O     0.37294   0.89346   0.24999   0.00000  Uiso   1.00
O557   O     0.35186   0.83334   0.31491   0.00000  Uiso   1.00
O558   O     0.64814   0.83332   0.18508   0.00000  Uiso   1.00
O559   O     0.60600   0.83333   0.31492   0.00000  Uiso   1.00
O560   O     0.39400   0.83333   0.18508   0.00000  Uiso   1.00
C561   C     0.46002   0.79635   0.11668   0.00000  Uiso   1.00
H562   H     0.49058   0.78063   0.09244   0.00000  Uiso   1.00
H563   H     0.47531   0.81741   0.13711   0.00000  Uiso   1.00
H564   H     0.43879   0.77149   0.13835   0.00000  Uiso   1.00
C565   C     0.53998   0.87031   0.38332   0.00000  Uiso   1.00
H566   H     0.52469   0.84925   0.36289   0.00000  Uiso   1.00
H567   H     0.50942   0.88603   0.40756   0.00000  Uiso   1.00
H568   H     0.56121   0.89517   0.36165   0.00000  Uiso   1.00
O569   O     0.62142   0.96176   0.19254   0.00000  Uiso   1.00
H570   H     0.63689   0.93478   0.18307   0.00000  Uiso   1.00
O571   O     0.37858   0.70491   0.30746   0.00000  Uiso   1.00
H572   H     0.36312   0.73188   0.31693   0.00000  Uiso   1.00
O573   O     0.53179   0.78139   0.30568   0.00000  Uiso   1.00
H574   H     0.50357   0.76512   0.32379   0.00000  Uiso   1.00
O575   O     0.46821   0.88528   0.19431   0.00000  Uiso   1.00
H576   H     0.49643   0.90154   0.17621   0.00000  Uiso   1.00
C577   C     0.99944   0.75411   0.25139   0.00000  Uiso   1.00
C578   C     0.66722   0.91255   0.24860   0.00000  Uiso   1.00
C579   C     0.85963   0.84934   0.04518   0.00000  Uiso   1.00
C580   C     0.80704   0.81733   0.45482   0.00000  Uiso   1.00
C581   C     0.90870   0.85405   0.02247   0.00000  Uiso   1.00
C582   C     0.75797   0.81262   0.47753   0.00000  Uiso   1.00
C583   C     0.97476   0.68902   0.22555   0.00000  Uiso   1.00
C584   C     0.69191   0.97765   0.27445   0.00000  Uiso   1.00
C585   C     0.97644   0.97972   0.22200   0.00000  Uiso   1.00
C586   C     0.69023   0.68694   0.27800   0.00000  Uiso   1.00
C587   C     0.66792   0.95720   0.24749   0.00000  Uiso   1.00
C588   C     0.99875   0.70947   0.25251   0.00000  Uiso   1.00
C589   C     0.84940   0.80749   0.27786   0.00000  Uiso   1.00
C590   C     0.81727   0.85918   0.22214   0.00000  Uiso   1.00
C591   C     0.79956   0.80774   0.27772   0.00000  Uiso   1.00
C592   C     0.86711   0.85893   0.22228   0.00000  Uiso   1.00
C593   C     0.97226   0.83612   0.33570   0.00000  Uiso   1.00
C594   C     0.69441   0.83055   0.16430   0.00000  Uiso   1.00
C595   C     0.95581   0.84191   0.38411   0.00000  Uiso   1.00
C596   C     0.71086   0.82476   0.11589   0.00000  Uiso   1.00
C597   C     0.97431   0.85074   0.45402   0.00000  Uiso   1.00
C598   C     0.69235   0.81593   0.04598   0.00000  Uiso   1.00
C599   C     0.98995   0.84407   0.40846   0.00000  Uiso   1.00
C600   C     0.67672   0.82260   0.09154   0.00000  Uiso   1.00
C601   C     0.90568   0.84736   0.40636   0.00000  Uiso   1.00
C602   C     0.76098   0.81931   0.09364   0.00000  Uiso   1.00
C603   C     0.88988   0.84203   0.45289   0.00000  Uiso   1.00
C604   C     0.77678   0.82463   0.04711   0.00000  Uiso   1.00
C605   C     0.92452   0.84849   0.47668   0.00000  Uiso   1.00
C606   C     0.74215   0.81817   0.02332   0.00000  Uiso   1.00
C607   C     0.84082   0.83201   0.47652   0.00000  Uiso   1.00
C608   C     0.82585   0.83466   0.02348   0.00000  Uiso   1.00
Cu609  Cu    0.71355   0.83334   0.25000   0.00000  Uiso   1.00
Cu610  Cu    0.95311   0.83333   0.25000   0.00000  Uiso   1.00
H611   H     0.93414   0.86281   0.04072   0.00000  Uiso   1.00
H612   H     0.73253   0.80386   0.45928   0.00000  Uiso   1.00
H613   H     0.97126   0.82389   0.10797   0.00000  Uiso   1.00
H614   H     0.69541   0.84277   0.39203   0.00000  Uiso   1.00
H615   H     0.66783   0.85650   0.47158   0.00000  Uiso   1.00
H616   H     0.99883   0.81016   0.02842   0.00000  Uiso   1.00
H617   H     0.84870   0.85721   0.07990   0.00000  Uiso   1.00
H618   H     0.81797   0.80946   0.42010   0.00000  Uiso   1.00
H619   H     0.95631   0.70640   0.20558   0.00000  Uiso   1.00
H620   H     0.71036   0.96027   0.29442   0.00000  Uiso   1.00
H621   H     0.77333   0.78738   0.29975   0.00000  Uiso   1.00
H622   H     0.89334   0.87928   0.20025   0.00000  Uiso   1.00
N623   N     0.78403   0.83334   0.24999   0.00000  Uiso   1.00
N624   N     0.88264   0.83332   0.25001   0.00000  Uiso   1.00
O625   O     0.70625   0.77322   0.25000   0.00000  Uiso   1.00
O626   O     0.96042   0.89345   0.25000   0.00000  Uiso   1.00
O627   O     0.96039   0.77321   0.25000   0.00000  Uiso   1.00
O628   O     0.70628   0.89346   0.24999   0.00000  Uiso   1.00
O629   O     0.68519   0.83334   0.31491   0.00000  Uiso   1.00
O630   O     0.98148   0.83332   0.18508   0.00000  Uiso   1.00
O631   O     0.93933   0.83333   0.31492   0.00000  Uiso   1.00
O632   O     0.72733   0.83333   0.18508   0.00000  Uiso   1.00
C633   C     0.79336   0.79635   0.11668   0.00000  Uiso   1.00
H634   H     0.82392   0.78063   0.09244   0.00000  Uiso   1.00
H635   H     0.80864   0.81741   0.13711   0.00000  Uiso   1.00
H636   H     0.77212   0.77149   0.13835   0.00000  Uiso   1.00
C637   C     0.87331   0.87031   0.38332   0.00000  Uiso   1.00
H638   H     0.85802   0.84925   0.36289   0.00000  Uiso   1.00
H639   H     0.84275   0.88603   0.40756   0.00000  Uiso   1.00
H640   H     0.89455   0.89517   0.36165   0.00000  Uiso   1.00
O641   O     0.95475   0.96176   0.19254   0.00000  Uiso   1.00
H642   H     0.97022   0.93478   0.18307   0.00000  Uiso   1.00
O643   O     0.71192   0.70491   0.30746   0.00000  Uiso   1.00
H644   H     0.69645   0.73188   0.31693   0.00000  Uiso   1.00
O645   O     0.86512   0.78139   0.30568   0.00000  Uiso   1.00
H646   H     0.83690   0.76512   0.32379   0.00000  Uiso   1.00
O647   O     0.80155   0.88528   0.19431   0.00000  Uiso   1.00
H648   H     0.82976   0.90154   0.17621   0.00000  Uiso   1.00
C649   C     0.33278   0.08745   0.75139   0.00000  Uiso   1.00
C650   C     0.00056   0.24589   0.74860   0.00000  Uiso   1.00
C651   C     0.19296   0.18267   0.54518   0.00000  Uiso   1.00
C652   C     0.14037   0.15066   0.95482   0.00000  Uiso   1.00
C653   C     0.24203   0.18738   0.52247   0.00000  Uiso   1.00
C654   C     0.09130   0.14595   0.97753   0.00000  Uiso   1.00
C655   C     0.30809   0.02235   0.72555   0.00000  Uiso   1.00
C656   C     0.02524   0.31098   0.77445   0.00000  Uiso   1.00
C657   C     0.30977   0.31306   0.72200   0.00000  Uiso   1.00
C658   C     0.02356   0.02028   0.77800   0.00000  Uiso   1.00
C659   C     0.00125   0.29053   0.74749   0.00000  Uiso   1.00
C660   C     0.33208   0.04280   0.75251   0.00000  Uiso   1.00
C661   C     0.18273   0.14082   0.77786   0.00000  Uiso   1.00
C662   C     0.15060   0.19251   0.72214   0.00000  Uiso   1.00
C663   C     0.13289   0.14107   0.77772   0.00000  Uiso   1.00
C664   C     0.20044   0.19226   0.72228   0.00000  Uiso   1.00
C665   C     0.30559   0.16945   0.83570   0.00000  Uiso   1.00
C666   C     0.02774   0.16388   0.66430   0.00000  Uiso   1.00
C667   C     0.28914   0.17524   0.88411   0.00000  Uiso   1.00
C668   C     0.04419   0.15809   0.61589   0.00000  Uiso   1.00
C669   C     0.30765   0.18407   0.95402   0.00000  Uiso   1.00
C670   C     0.02569   0.14926   0.54598   0.00000  Uiso   1.00
C671   C     0.32328   0.17740   0.90846   0.00000  Uiso   1.00
C672   C     0.01005   0.15593   0.59154   0.00000  Uiso   1.00
C673   C     0.23902   0.18069   0.90636   0.00000  Uiso   1.00
C674   C     0.09432   0.15264   0.59364   0.00000  Uiso   1.00
C675   C     0.22322   0.17537   0.95289   0.00000  Uiso   1.00
C676   C     0.11012   0.15797   0.54711   0.00000  Uiso   1.00
C677   C     0.25785   0.18183   0.97668   0.00000  Uiso   1.00
C678   C     0.07548   0.15151   0.52332   0.00000  Uiso   1.00
C679   C     0.17415   0.16534   0.97652   0.00000  Uiso   1.00
C680   C     0.15918   0.16799   0.52348   0.00000  Uiso   1.00
Cu681  Cu    0.04689   0.16667   0.75000   0.00000  Uiso   1.00
Cu682  Cu    0.28645   0.16666   0.75000   0.00000  Uiso   1.00
H683   H     0.26747   0.19614   0.54072   0.00000  Uiso   1.00
H684   H     0.06586   0.13719   0.95928   0.00000  Uiso   1.00
H685   H     0.30459   0.15723   0.60797   0.00000  Uiso   1.00
H686   H     0.02874   0.17611   0.89203   0.00000  Uiso   1.00
H687   H     0.00117   0.18984   0.97158   0.00000  Uiso   1.00
H688   H     0.33217   0.14350   0.52842   0.00000  Uiso   1.00
H689   H     0.18203   0.19054   0.57990   0.00000  Uiso   1.00
H690   H     0.15130   0.14279   0.92010   0.00000  Uiso   1.00
H691   H     0.28964   0.03973   0.70558   0.00000  Uiso   1.00
H692   H     0.04369   0.29360   0.79442   0.00000  Uiso   1.00
H693   H     0.10666   0.12072   0.79975   0.00000  Uiso   1.00
H694   H     0.22667   0.21261   0.70025   0.00000  Uiso   1.00
N695   N     0.11736   0.16668   0.74999   0.00000  Uiso   1.00
N696   N     0.21597   0.16666   0.75001   0.00000  Uiso   1.00
O697   O     0.03958   0.10655   0.75000   0.00000  Uiso   1.00
O698   O     0.29375   0.22678   0.75000   0.00000  Uiso   1.00
O699   O     0.29372   0.10654   0.75000   0.00000  Uiso   1.00
O700   O     0.03961   0.22679   0.74999   0.00000  Uiso   1.00
O701   O     0.01852   0.16668   0.81491   0.00000  Uiso   1.00
O702   O     0.31481   0.16666   0.68508   0.00000  Uiso   1.00
O703   O     0.27267   0.16667   0.81492   0.00000  Uiso   1.00
O704   O     0.06067   0.16667   0.68508   0.00000  Uiso   1.00
C705   C     0.12669   0.12969   0.61668   0.00000  Uiso   1.00
H706   H     0.15725   0.11397   0.59244   0.00000  Uiso   1.00
H707   H     0.14198   0.15074   0.63711   0.00000  Uiso   1.00
H708   H     0.10545   0.10483   0.63835   0.00000  Uiso   1.00
C709   C     0.20665   0.20365   0.88332   0.00000  Uiso   1.00
H710   H     0.19136   0.18259   0.86289   0.00000  Uiso   1.00
H711   H     0.17608   0.21937   0.90756   0.00000  Uiso   1.00
H712   H     0.22788   0.22850   0.86165   0.00000  Uiso   1.00
O713   O     0.28808   0.29509   0.69254   0.00000  Uiso   1.00
H714   H     0.30355   0.26812   0.68307   0.00000  Uiso   1.00
O715   O     0.04525   0.03824   0.80746   0.00000  Uiso   1.00
H716   H     0.02978   0.06522   0.81693   0.00000  Uiso   1.00
O717   O     0.19845   0.11472   0.80568   0.00000  Uiso   1.00
H718   H     0.17024   0.09846   0.82379   0.00000  Uiso   1.00
O719   O     0.13488   0.21861   0.69431   0.00000  Uiso   1.00
H720   H     0.16310   0.23488   0.67621   0.00000  Uiso   1.00
C721   C     0.66611   0.08745   0.75139   0.00000  Uiso   1.00
C722   C     0.33389   0.24589   0.74860   0.00000  Uiso   1.00
C723   C     0.52629   0.18267   0.54518   0.00000  Uiso   1.00
C724   C     0.47371   0.15066   0.95482   0.00000  Uiso   1.00
C725   C     0.57537   0.18738   0.52247   0.00000  Uiso   1.00
C726   C     0.42463   0.14595   0.97753   0.00000  Uiso   1.00
C727   C     0.64142   0.02235   0.72555   0.00000  Uiso   1.00
C728   C     0.35858   0.31098   0.77445   0.00000  Uiso   1.00
C729   C     0.64311   0.31306   0.72200   0.00000  Uiso   1.00
C730   C     0.35690   0.02028   0.77800   0.00000  Uiso   1.00
C731   C     0.33458   0.29053   0.74749   0.00000  Uiso   1.00
C732   C     0.66542   0.04280   0.75251   0.00000  Uiso   1.00
C733   C     0.51607   0.14082   0.77786   0.00000  Uiso   1.00
C734   C     0.48393   0.19251   0.72214   0.00000  Uiso   1.00
C735   C     0.46622   0.14107   0.77772   0.00000  Uiso   1.00
C736   C     0.53378   0.19226   0.72228   0.00000  Uiso   1.00
C737   C     0.63892   0.16945   0.83570   0.00000  Uiso   1.00
C738   C     0.36108   0.16388   0.66430   0.00000  Uiso   1.00
C739   C     0.62247   0.17524   0.88411   0.00000  Uiso   1.00
C740   C     0.37753   0.15809   0.61589   0.00000  Uiso   1.00
C741   C     0.64098   0.18407   0.95402   0.00000  Uiso   1.00
C742   C     0.35902   0.14926   0.54598   0.00000  Uiso   1.00
C743   C     0.65662   0.17740   0.90846   0.00000  Uiso   1.00
C744   C     0.34338   0.15593   0.59154   0.00000  Uiso   1.00
C745   C     0.57235   0.18069   0.90636   0.00000  Uiso   1.00
C746   C     0.42765   0.15264   0.59364   0.00000  Uiso   1.00
C747   C     0.55655   0.17537   0.95289   0.00000  Uiso   1.00
C748   C     0.44345   0.15797   0.54711   0.00000  Uiso   1.00
C749   C     0.59119   0.18183   0.97668   0.00000  Uiso   1.00
C750   C     0.40881   0.15151   0.52332   0.00000  Uiso   1.00
C751   C     0.50749   0.16534   0.97652   0.00000  Uiso   1.00
C752   C     0.49251   0.16799   0.52348   0.00000  Uiso   1.00
Cu753  Cu    0.38022   0.16667   0.75000   0.00000  Uiso   1.00
Cu754  Cu    0.61978   0.16666   0.75000   0.00000  Uiso   1.00
H755   H     0.60080   0.19614   0.54072   0.00000  Uiso   1.00
H756   H     0.39920   0.13719   0.95928   0.00000  Uiso   1.00
H757   H     0.63793   0.15723   0.60797   0.00000  Uiso   1.00
H758   H     0.36207   0.17611   0.89203   0.00000  Uiso   1.00
H759   H     0.33450   0.18984   0.97158   0.00000  Uiso   1.00
H760   H     0.66550   0.14350   0.52842   0.00000  Uiso   1.00
H761   H     0.51536   0.19054   0.57990   0.00000  Uiso   1.00
H762   H     0.48464   0.14279   0.92010   0.00000  Uiso   1.00
H763   H     0.62298   0.03973   0.70558   0.00000  Uiso   1.00
H764   H     0.37702   0.29360   0.79442   0.00000  Uiso   1.00
H765   H     0.44000   0.12072   0.79975   0.00000  Uiso   1.00
H766   H     0.56000   0.21261   0.70025   0.00000  Uiso   1.00
N767   N     0.45069   0.16668   0.74999   0.00000  Uiso   1.00
N768   N     0.54931   0.16666   0.75001   0.00000  Uiso   1.00
O769   O     0.37291   0.10655   0.75000   0.00000  Uiso   1.00
O770   O     0.62709   0.22678   0.75000   0.00000  Uiso   1.00
O771   O     0.62706   0.10654   0.75000   0.00000  Uiso   1.00
O772   O     0.37294   0.22679   0.74999   0.00000  Uiso   1.00
O773   O     0.35186   0.16668   0.81491   0.00000  Uiso   1.00
O774   O     0.64814   0.16666   0.68508   0.00000  Uiso   1.00
O775   O     0.60600   0.16667   0.81492   0.00000  Uiso   1.00
O776   O     0.39400   0.16667   0.68508   0.00000  Uiso   1.00
C777   C     0.46002   0.12969   0.61668   0.00000  Uiso   1.00
H778   H     0.49058   0.11397   0.59244   0.00000  Uiso   1.00
H779   H     0.47531   0.15074   0.63711   0.00000  Uiso   1.00
H780   H     0.43879   0.10483   0.63835   0.00000  Uiso   1.00
C781   C     0.53998   0.20365   0.88332   0.00000  Uiso   1.00
H782   H     0.52469   0.18259   0.86289   0.00000  Uiso   1.00
H783   H     0.50942   0.21937   0.90756   0.00000  Uiso   1.00
H784   H     0.56121   0.22850   0.86165   0.00000  Uiso   1.00
O785   O     0.62142   0.29509   0.69254   0.00000  Uiso   1.00
H786   H     0.63689   0.26812   0.68307   0.00000  Uiso   1.00
O787   O     0.37858   0.03824   0.80746   0.00000  Uiso   1.00
H788   H     0.36312   0.06522   0.81693   0.00000  Uiso   1.00
O789   O     0.53179   0.11472   0.80568   0.00000  Uiso   1.00
H790   H     0.50357   0.09846   0.82379   0.00000  Uiso   1.00
O791   O     0.46821   0.21861   0.69431   0.00000  Uiso   1.00
H792   H     0.49643   0.23488   0.67621   0.00000  Uiso   1.00
C793   C     0.99944   0.08745   0.75139   0.00000  Uiso   1.00
C794   C     0.66722   0.24589   0.74860   0.00000  Uiso   1.00
C795   C     0.85963   0.18267   0.54518   0.00000  Uiso   1.00
C796   C     0.80704   0.15066   0.95482   0.00000  Uiso   1.00
C797   C     0.90870   0.18738   0.52247   0.00000  Uiso   1.00
C798   C     0.75797   0.14595   0.97753   0.00000  Uiso   1.00
C799   C     0.97476   0.02235   0.72555   0.00000  Uiso   1.00
C800   C     0.69191   0.31098   0.77445   0.00000  Uiso   1.00
C801   C     0.97644   0.31306   0.72200   0.00000  Uiso   1.00
C802   C     0.69023   0.02028   0.77800   0.00000  Uiso   1.00
C803   C     0.66792   0.29053   0.74749   0.00000  Uiso   1.00
C804   C     0.99875   0.04280   0.75251   0.00000  Uiso   1.00
C805   C     0.84940   0.14082   0.77786   0.00000  Uiso   1.00
C806   C     0.81727   0.19251   0.72214   0.00000  Uiso   1.00
C807   C     0.79956   0.14107   0.77772   0.00000  Uiso   1.00
C808   C     0.86711   0.19226   0.72228   0.00000  Uiso   1.00
C809   C     0.97226   0.16945   0.83570   0.00000  Uiso   1.00
C810   C     0.69441   0.16388   0.66430   0.00000  Uiso   1.00
C811   C     0.95581   0.17524   0.88411   0.00000  Uiso   1.00
C812   C     0.71086   0.15809   0.61589   0.00000  Uiso   1.00
C813   C     0.97431   0.18407   0.95402   0.00000  Uiso   1.00
C814   C     0.69235   0.14926   0.54598   0.00000  Uiso   1.00
C815   C     0.98995   0.17740   0.90846   0.00000  Uiso   1.00
C816   C     0.67672   0.15593   0.59154   0.00000  Uiso   1.00
C817   C     0.90568   0.18069   0.90636   0.00000  Uiso   1.00
C818   C     0.76098   0.15264   0.59364   0.00000  Uiso   1.00
C819   C     0.88988   0.17537   0.95289   0.00000  Uiso   1.00
C820   C     0.77678   0.15797   0.54711   0.00000  Uiso   1.00
C821   C     0.92452   0.18183   0.97668   0.00000  Uiso   1.00
C822   C     0.74215   0.15151   0.52332   0.00000  Uiso   1.00
C823   C     0.84082   0.16534   0.97652   0.00000  Uiso   1.00
C824   C     0.82585   0.16799   0.52348   0.00000  Uiso   1.00
Cu825  Cu    0.71355   0.16667   0.75000   0.00000  Uiso   1.00
Cu826  Cu    0.95311   0.16666   0.75000   0.00000  Uiso   1.00
H827   H     0.93414   0.19614   0.54072   0.00000  Uiso   1.00
H828   H     0.73253   0.13719   0.95928   0.00000  Uiso   1.00
H829   H     0.97126   0.15723   0.60797   0.00000  Uiso   1.00
H830   H     0.69541   0.17611   0.89203   0.00000  Uiso   1.00
H831   H     0.66783   0.18984   0.97158   0.00000  Uiso   1.00
H832   H     0.99883   0.14350   0.52842   0.00000  Uiso   1.00
H833   H     0.84870   0.19054   0.57990   0.00000  Uiso   1.00
H834   H     0.81797   0.14279   0.92010   0.00000  Uiso   1.00
H835   H     0.95631   0.03973   0.70558   0.00000  Uiso   1.00
H836   H     0.71036   0.29360   0.79442   0.00000  Uiso   1.00
H837   H     0.77333   0.12072   0.79975   0.00000  Uiso   1.00
H838   H     0.89334   0.21261   0.70025   0.00000  Uiso   1.00
N839   N     0.78403   0.16668   0.74999   0.00000  Uiso   1.00
N840   N     0.88264   0.16666   0.75001   0.00000  Uiso   1.00
O841   O     0.70625   0.10655   0.75000   0.00000  Uiso   1.00
O842   O     0.96042   0.22678   0.75000   0.00000  Uiso   1.00
O843   O     0.96039   0.10654   0.75000   0.00000  Uiso   1.00
O844   O     0.70628   0.22679   0.74999   0.00000  Uiso   1.00
O845   O     0.68519   0.16668   0.81491   0.00000  Uiso   1.00
O846   O     0.98148   0.16666   0.68508   0.00000  Uiso   1.00
O847   O     0.93933   0.16667   0.81492   0.00000  Uiso   1.00
O848   O     0.72733   0.16667   0.68508   0.00000  Uiso   1.00
C849   C     0.79336   0.12969   0.61668   0.00000  Uiso   1.00
H850   H     0.82392   0.11397   0.59244   0.00000  Uiso   1.00
H851   H     0.80864   0.15074   0.63711   0.00000  Uiso   1.00
H852   H     0.77212   0.10483   0.63835   0.00000  Uiso   1.00
C853   C     0.87331   0.20365   0.88332   0.00000  Uiso   1.00
H854   H     0.85802   0.18259   0.86289   0.00000  Uiso   1.00
H855   H     0.84275   0.21937   0.90756   0.00000  Uiso   1.00
H856   H     0.89455   0.22850   0.86165   0.00000  Uiso   1.00
O857   O     0.95475   0.29509   0.69254   0.00000  Uiso   1.00
H858   H     0.97022   0.26812   0.68307   0.00000  Uiso   1.00
O859   O     0.71192   0.03824   0.80746   0.00000  Uiso   1.00
H860   H     0.69645   0.06522   0.81693   0.00000  Uiso   1.00
O861   O     0.86512   0.11472   0.80568   0.00000  Uiso   1.00
H862   H     0.83690   0.09846   0.82379   0.00000  Uiso   1.00
O863   O     0.80155   0.21861   0.69431   0.00000  Uiso   1.00
H864   H     0.82976   0.23488   0.67621   0.00000  Uiso   1.00
C865   C     0.33278   0.42078   0.75139   0.00000  Uiso   1.00
C866   C     0.00056   0.57922   0.74860   0.00000  Uiso   1.00
C867   C     0.19296   0.51601   0.54518   0.00000  Uiso   1.00
C868   C     0.14037   0.48399   0.95482   0.00000  Uiso   1.00
C869   C     0.24203   0.52072   0.52247   0.00000  Uiso   1.00
C870   C     0.09130   0.47928   0.97753   0.00000  Uiso   1.00
C871   C     0.30809   0.35568   0.72555   0.00000  Uiso   1.00
C872   C     0.02524   0.64432   0.77445   0.00000  Uiso   1.00
C873   C     0.30977   0.64639   0.72200   0.00000  Uiso   1.00
C874   C     0.02356   0.35361   0.77800   0.00000  Uiso   1.00
C875   C     0.00125   0.62386   0.74749   0.00000  Uiso   1.00
C876   C     0.33208   0.37614   0.75251   0.00000  Uiso   1.00
C877   C     0.18273   0.47415   0.77786   0.00000  Uiso   1.00
C878   C     0.15060   0.52585   0.72214   0.00000  Uiso   1.00
C879   C     0.13289   0.47440   0.77772   0.00000  Uiso   1.00
C880   C     0.20044   0.52560   0.72228   0.00000  Uiso   1.00
C881   C     0.30559   0.50279   0.83570   0.00000  Uiso   1.00
C882   C     0.02774   0.49721   0.66430   0.00000  Uiso   1.00
C883   C     0.28914   0.50857   0.88411   0.00000  Uiso   1.00
C884   C     0.04419   0.49143   0.61589   0.00000  Uiso   1.00
C885   C     0.30765   0.51741   0.95402   0.00000  Uiso   1.00
C886   C     0.02569   0.48259   0.54598   0.00000  Uiso   1.00
C887   C     0.32328   0.51073   0.90846   0.00000  Uiso   1.00
C888   C     0.01005   0.48927   0.59154   0.00000  Uiso   1.00
C889   C     0.23902   0.51402   0.90636   0.00000  Uiso   1.00
C890   C     0.09432   0.48598   0.59364   0.00000  Uiso   1.00
C891   C     0.22322   0.50870   0.95289   0.00000  Uiso   1.00
C892   C     0.11012   0.49130   0.54711   0.00000  Uiso   1.00
C893   C     0.25785   0.51516   0.97668   0.00000  Uiso   1.00
C894   C     0.07548   0.48484   0.52332   0.00000  Uiso   1.00
C895   C     0.17415   0.49867   0.97652   0.00000  Uiso   1.00
C896   C     0.15918   0.50132   0.52348   0.00000  Uiso   1.00
Cu897  Cu    0.04689   0.50001   0.75000   0.00000  Uiso   1.00
Cu898  Cu    0.28645   0.49999   0.75000   0.00000  Uiso   1.00
H899   H     0.26747   0.52948   0.54072   0.00000  Uiso   1.00
H900   H     0.06586   0.47052   0.95928   0.00000  Uiso   1.00
H901   H     0.30459   0.49056   0.60797   0.00000  Uiso   1.00
H902   H     0.02874   0.50944   0.89203   0.00000  Uiso   1.00
H903   H     0.00117   0.52317   0.97158   0.00000  Uiso   1.00
H904   H     0.33217   0.47683   0.52842   0.00000  Uiso   1.00
H905   H     0.18203   0.52387   0.57990   0.00000  Uiso   1.00
H906   H     0.15130   0.47613   0.92010   0.00000  Uiso   1.00
H907   H     0.28964   0.37307   0.70558   0.00000  Uiso   1.00
H908   H     0.04369   0.62693   0.79442   0.00000  Uiso   1.00
H909   H     0.10666   0.45405   0.79975   0.00000  Uiso   1.00
H910   H     0.22667   0.54595   0.70025   0.00000  Uiso   1.00
N911   N     0.11736   0.50001   0.74999   0.00000  Uiso   1.00
N912   N     0.21597   0.49999   0.75001   0.00000  Uiso   1.00
O913   O     0.03958   0.43989   0.75000   0.00000  Uiso   1.00
O914   O     0.29375   0.56011   0.75000   0.00000  Uiso   1.00
O915   O     0.29372   0.43988   0.75000   0.00000  Uiso   1.00
O916   O     0.03961   0.56012   0.74999   0.00000  Uiso   1.00
O917   O     0.01852   0.50001   0.81491   0.00000  Uiso   1.00
O918   O     0.31481   0.49999   0.68508   0.00000  Uiso   1.00
O919   O     0.27267   0.50000   0.81492   0.00000  Uiso   1.00
O920   O     0.06067   0.50000   0.68508   0.00000  Uiso   1.00
C921   C     0.12669   0.46302   0.61668   0.00000  Uiso   1.00
H922   H     0.15725   0.44730   0.59244   0.00000  Uiso   1.00
H923   H     0.14198   0.48408   0.63711   0.00000  Uiso   1.00
H924   H     0.10545   0.43816   0.63835   0.00000  Uiso   1.00
C925   C     0.20665   0.53698   0.88332   0.00000  Uiso   1.00
H926   H     0.19136   0.51592   0.86289   0.00000  Uiso   1.00
H927   H     0.17608   0.55270   0.90756   0.00000  Uiso   1.00
H928   H     0.22788   0.56184   0.86165   0.00000  Uiso   1.00
O929   O     0.28808   0.62842   0.69254   0.00000  Uiso   1.00
H930   H     0.30355   0.60145   0.68307   0.00000  Uiso   1.00
O931   O     0.04525   0.37158   0.80746   0.00000  Uiso   1.00
H932   H     0.02978   0.39855   0.81693   0.00000  Uiso   1.00
O933   O     0.19845   0.44805   0.80568   0.00000  Uiso   1.00
H934   H     0.17024   0.43179   0.82379   0.00000  Uiso   1.00
O935   O     0.13488   0.55195   0.69431   0.00000  Uiso   1.00
H936   H     0.16310   0.56821   0.67621   0.00000  Uiso   1.00
C937   C     0.66611   0.42078   0.75139   0.00000  Uiso   1.00
C938   C     0.33389   0.57922   0.74860   0.00000  Uiso   1.00
C939   C     0.52629   0.51601   0.54518   0.00000  Uiso   1.00
C940   C     0.47371   0.48399   0.95482   0.00000  Uiso   1.00
C941   C     0.57537   0.52072   0.52247   0.00000  Uiso   1.00
C942   C     0.42463   0.47928   0.97753   0.00000  Uiso   1.00
C943   C     0.64142   0.35568   0.72555   0.00000  Uiso   1.00
C944   C     0.35858   0.64432   0.77445   0.00000  Uiso   1.00
C945   C     0.64311   0.64639   0.72200   0.00000  Uiso   1.00
C946   C     0.35690   0.35361   0.77800   0.00000  Uiso   1.00
C947   C     0.33458   0.62386   0.74749   0.00000  Uiso   1.00
C948   C     0.66542   0.37614   0.75251   0.00000  Uiso   1.00
C949   C     0.51607   0.47415   0.77786   0.00000  Uiso   1.00
C950   C     0.48393   0.52585   0.72214   0.00000  Uiso   1.00
C951   C     0.46622   0.47440   0.77772   0.00000  Uiso   1.00
C952   C     0.53378   0.52560   0.72228   0.00000  Uiso   1.00
C953   C     0.63892   0.50279   0.83570   0.00000  Uiso   1.00
C954   C     0.36108   0.49721   0.66430   0.00000  Uiso   1.00
C955   C     0.62247   0.50857   0.88411   0.00000  Uiso   1.00
C956   C     0.37753   0.49143   0.61589   0.00000  Uiso   1.00
C957   C     0.64098   0.51741   0.95402   0.00000  Uiso   1.00
C958   C     0.35902   0.48259   0.54598   0.00000  Uiso   1.00
C959   C     0.65662   0.51073   0.90846   0.00000  Uiso   1.00
C960   C     0.34338   0.48927   0.59154   0.00000  Uiso   1.00
C961   C     0.57235   0.51402   0.90636   0.00000  Uiso   1.00
C962   C     0.42765   0.48598   0.59364   0.00000  Uiso   1.00
C963   C     0.55655   0.50870   0.95289   0.00000  Uiso   1.00
C964   C     0.44345   0.49130   0.54711   0.00000  Uiso   1.00
C965   C     0.59119   0.51516   0.97668   0.00000  Uiso   1.00
C966   C     0.40881   0.48484   0.52332   0.00000  Uiso   1.00
C967   C     0.50749   0.49867   0.97652   0.00000  Uiso   1.00
C968   C     0.49251   0.50132   0.52348   0.00000  Uiso   1.00
Cu969  Cu    0.38022   0.50001   0.75000   0.00000  Uiso   1.00
Cu970  Cu    0.61978   0.49999   0.75000   0.00000  Uiso   1.00
H971   H     0.60080   0.52948   0.54072   0.00000  Uiso   1.00
H972   H     0.39920   0.47052   0.95928   0.00000  Uiso   1.00
H973   H     0.63793   0.49056   0.60797   0.00000  Uiso   1.00
H974   H     0.36207   0.50944   0.89203   0.00000  Uiso   1.00
H975   H     0.33450   0.52317   0.97158   0.00000  Uiso   1.00
H976   H     0.66550   0.47683   0.52842   0.00000  Uiso   1.00
H977   H     0.51536   0.52387   0.57990   0.00000  Uiso   1.00
H978   H     0.48464   0.47613   0.92010   0.00000  Uiso   1.00
H979   H     0.62298   0.37307   0.70558   0.00000  Uiso   1.00
H980   H     0.37702   0.62693   0.79442   0.00000  Uiso   1.00
H981   H     0.44000   0.45405   0.79975   0.00000  Uiso   1.00
H982   H     0.56000   0.54595   0.70025   0.00000  Uiso   1.00
N983   N     0.45069   0.50001   0.74999   0.00000  Uiso   1.00
N984   N     0.54931   0.49999   0.75001   0.00000  Uiso   1.00
O985   O     0.37291   0.43989   0.75000   0.00000  Uiso   1.00
O986   O     0.62709   0.56011   0.75000   0.00000  Uiso   1.00
O987   O     0.62706   0.43988   0.75000   0.00000  Uiso   1.00
O988   O     0.37294   0.56012   0.74999   0.00000  Uiso   1.00
O989   O     0.35186   0.50001   0.81491   0.00000  Uiso   1.00
O990   O     0.64814   0.49999   0.68508   0.00000  Uiso   1.00
O991   O     0.60600   0.50000   0.81492   0.00000  Uiso   1.00
O992   O     0.39400   0.50000   0.68508   0.00000  Uiso   1.00
C993   C     0.46002   0.46302   0.61668   0.00000  Uiso   1.00
H994   H     0.49058   0.44730   0.59244   0.00000  Uiso   1.00
H995   H     0.47531   0.48408   0.63711   0.00000  Uiso   1.00
H996   H     0.43879   0.43816   0.63835   0.00000  Uiso   1.00
C997   C     0.53998   0.53698   0.88332   0.00000  Uiso   1.00
H998   H     0.52469   0.51592   0.86289   0.00000  Uiso   1.00
H999   H     0.50942   0.55270   0.90756   0.00000  Uiso   1.00
H1000  H     0.56121   0.56184   0.86165   0.00000  Uiso   1.00
O1001  O     0.62142   0.62842   0.69254   0.00000  Uiso   1.00
H1002  H     0.63689   0.60145   0.68307   0.00000  Uiso   1.00
O1003  O     0.37858   0.37158   0.80746   0.00000  Uiso   1.00
H1004  H     0.36312   0.39855   0.81693   0.00000  Uiso   1.00
O1005  O     0.53179   0.44805   0.80568   0.00000  Uiso   1.00
H1006  H     0.50357   0.43179   0.82379   0.00000  Uiso   1.00
O1007  O     0.46821   0.55195   0.69431   0.00000  Uiso   1.00
H1008  H     0.49643   0.56821   0.67621   0.00000  Uiso   1.00
C1009  C     0.99944   0.42078   0.75139   0.00000  Uiso   1.00
C1010  C     0.66722   0.57922   0.74860   0.00000  Uiso   1.00
C1011  C     0.85963   0.51601   0.54518   0.00000  Uiso   1.00
C1012  C     0.80704   0.48399   0.95482   0.00000  Uiso   1.00
C1013  C     0.90870   0.52072   0.52247   0.00000  Uiso   1.00
C1014  C     0.75797   0.47928   0.97753   0.00000  Uiso   1.00
C1015  C     0.97476   0.35568   0.72555   0.00000  Uiso   1.00
C1016  C     0.69191   0.64432   0.77445   0.00000  Uiso   1.00
C1017  C     0.97644   0.64639   0.72200   0.00000  Uiso   1.00
C1018  C     0.69023   0.35361   0.77800   0.00000  Uiso   1.00
C1019  C     0.66792   0.62386   0.74749   0.00000  Uiso   1.00
C1020  C     0.99875   0.37614   0.75251   0.00000  Uiso   1.00
C1021  C     0.84940   0.47415   0.77786   0.00000  Uiso   1.00
C1022  C     0.81727   0.52585   0.72214   0.00000  Uiso   1.00
C1023  C     0.79956   0.47440   0.77772   0.00000  Uiso   1.00
C1024  C     0.86711   0.52560   0.72228   0.00000  Uiso   1.00
C1025  C     0.97226   0.50279   0.83570   0.00000  Uiso   1.00
C1026  C     0.69441   0.49721   0.66430   0.00000  Uiso   1.00
C1027  C     0.95581   0.50857   0.88411   0.00000  Uiso   1.00
C1028  C     0.71086   0.49143   0.61589   0.00000  Uiso   1.00
C1029  C     0.97431   0.51741   0.95402   0.00000  Uiso   1.00
C1030  C     0.69235   0.48259   0.54598   0.00000  Uiso   1.00
C1031  C     0.98995   0.51073   0.90846   0.00000  Uiso   1.00
C1032  C     0.67672   0.48927   0.59154   0.00000  Uiso   1.00
C1033  C     0.90568   0.51402   0.90636   0.00000  Uiso   1.00
C1034  C     0.76098   0.48598   0.59364   0.00000  Uiso   1.00
C1035  C     0.88988   0.50870   0.95289   0.00000  Uiso   1.00
C1036  C     0.77678   0.49130   0.54711   0.00000  Uiso   1.00
C1037  C     0.92452   0.51516   0.97668   0.00000  Uiso   1.00
C1038  C     0.74215   0.48484   0.52332   0.00000  Uiso   1.00
C1039  C     0.84082   0.49867   0.97652   0.00000  Uiso   1.00
C1040  C     0.82585   0.50132   0.52348   0.00000  Uiso   1.00
Cu1041 Cu    0.71355   0.50001   0.75000   0.00000  Uiso   1.00
Cu1042 Cu    0.95311   0.49999   0.75000   0.00000  Uiso   1.00
H1043  H     0.93414   0.52948   0.54072   0.00000  Uiso   1.00
H1044  H     0.73253   0.47052   0.95928   0.00000  Uiso   1.00
H1045  H     0.97126   0.49056   0.60797   0.00000  Uiso   1.00
H1046  H     0.69541   0.50944   0.89203   0.00000  Uiso   1.00
H1047  H     0.66783   0.52317   0.97158   0.00000  Uiso   1.00
H1048  H     0.99883   0.47683   0.52842   0.00000  Uiso   1.00
H1049  H     0.84870   0.52387   0.57990   0.00000  Uiso   1.00
H1050  H     0.81797   0.47613   0.92010   0.00000  Uiso   1.00
H1051  H     0.95631   0.37307   0.70558   0.00000  Uiso   1.00
H1052  H     0.71036   0.62693   0.79442   0.00000  Uiso   1.00
H1053  H     0.77333   0.45405   0.79975   0.00000  Uiso   1.00
H1054  H     0.89334   0.54595   0.70025   0.00000  Uiso   1.00
N1055  N     0.78403   0.50001   0.74999   0.00000  Uiso   1.00
N1056  N     0.88264   0.49999   0.75001   0.00000  Uiso   1.00
O1057  O     0.70625   0.43989   0.75000   0.00000  Uiso   1.00
O1058  O     0.96042   0.56011   0.75000   0.00000  Uiso   1.00
O1059  O     0.96039   0.43988   0.75000   0.00000  Uiso   1.00
O1060  O     0.70628   0.56012   0.74999   0.00000  Uiso   1.00
O1061  O     0.68519   0.50001   0.81491   0.00000  Uiso   1.00
O1062  O     0.98148   0.49999   0.68508   0.00000  Uiso   1.00
O1063  O     0.93933   0.50000   0.81492   0.00000  Uiso   1.00
O1064  O     0.72733   0.50000   0.68508   0.00000  Uiso   1.00
C1065  C     0.79336   0.46302   0.61668   0.00000  Uiso   1.00
H1066  H     0.82392   0.44730   0.59244   0.00000  Uiso   1.00
H1067  H     0.80864   0.48408   0.63711   0.00000  Uiso   1.00
H1068  H     0.77212   0.43816   0.63835   0.00000  Uiso   1.00
C1069  C     0.87331   0.53698   0.88332   0.00000  Uiso   1.00
H1070  H     0.85802   0.51592   0.86289   0.00000  Uiso   1.00
H1071  H     0.84275   0.55270   0.90756   0.00000  Uiso   1.00
H1072  H     0.89455   0.56184   0.86165   0.00000  Uiso   1.00
O1073  O     0.95475   0.62842   0.69254   0.00000  Uiso   1.00
H1074  H     0.97022   0.60145   0.68307   0.00000  Uiso   1.00
O1075  O     0.71192   0.37158   0.80746   0.00000  Uiso   1.00
H1076  H     0.69645   0.39855   0.81693   0.00000  Uiso   1.00
O1077  O     0.86512   0.44805   0.80568   0.00000  Uiso   1.00
H1078  H     0.83690   0.43179   0.82379   0.00000  Uiso   1.00
O1079  O     0.80155   0.55195   0.69431   0.00000  Uiso   1.00
H1080  H     0.82976   0.56821   0.67621   0.00000  Uiso   1.00
C1081  C     0.33278   0.75411   0.75139   0.00000  Uiso   1.00
C1082  C     0.00056   0.91255   0.74860   0.00000  Uiso   1.00
C1083  C     0.19296   0.84934   0.54518   0.00000  Uiso   1.00
C1084  C     0.14037   0.81733   0.95482   0.00000  Uiso   1.00
C1085  C     0.24203   0.85405   0.52247   0.00000  Uiso   1.00
C1086  C     0.09130   0.81262   0.97753   0.00000  Uiso   1.00
C1087  C     0.30809   0.68902   0.72555   0.00000  Uiso   1.00
C1088  C     0.02524   0.97765   0.77445   0.00000  Uiso   1.00
C1089  C     0.30977   0.97972   0.72200   0.00000  Uiso   1.00
C1090  C     0.02356   0.68694   0.77800   0.00000  Uiso   1.00
C1091  C     0.00125   0.95720   0.74749   0.00000  Uiso   1.00
C1092  C     0.33208   0.70947   0.75251   0.00000  Uiso   1.00
C1093  C     0.18273   0.80749   0.77786   0.00000  Uiso   1.00
C1094  C     0.15060   0.85918   0.72214   0.00000  Uiso   1.00
C1095  C     0.13289   0.80774   0.77772   0.00000  Uiso   1.00
C1096  C     0.20044   0.85893   0.72228   0.00000  Uiso   1.00
C1097  C     0.30559   0.83612   0.83570   0.00000  Uiso   1.00
C1098  C     0.02774   0.83055   0.66430   0.00000  Uiso   1.00
C1099  C     0.28914   0.84191   0.88411   0.00000  Uiso   1.00
C1100  C     0.04419   0.82476   0.61589   0.00000  Uiso   1.00
C1101  C     0.30765   0.85074   0.95402   0.00000  Uiso   1.00
C1102  C     0.02569   0.81593   0.54598   0.00000  Uiso   1.00
C1103  C     0.32328   0.84407   0.90846   0.00000  Uiso   1.00
C1104  C     0.01005   0.82260   0.59154   0.00000  Uiso   1.00
C1105  C     0.23902   0.84736   0.90636   0.00000  Uiso   1.00
C1106  C     0.09432   0.81931   0.59364   0.00000  Uiso   1.00
C1107  C     0.22322   0.84203   0.95289   0.00000  Uiso   1.00
C1108  C     0.11012   0.82463   0.54711   0.00000  Uiso   1.00
C1109  C     0.25785   0.84849   0.97668   0.00000  Uiso   1.00
C1110  C     0.07548   0.81817   0.52332   0.00000  Uiso   1.00
C1111  C     0.17415   0.83201   0.97652   0.00000  Uiso   1.00
C1112  C     0.15918   0.83466   0.52348   0.00000  Uiso   1.00
Cu1113 Cu    0.04689   0.83334   0.75000   0.00000  Uiso   1.00
Cu1114 Cu    0.28645   0.83333   0.75000   0.00000  Uiso   1.00
H1115  H     0.26747   0.86281   0.54072   0.00000  Uiso   1.00
H1116  H     0.06586   0.80386   0.95928   0.00000  Uiso   1.00
H1117  H     0.30459   0.82389   0.60797   0.00000  Uiso   1.00
H1118  H     0.02874   0.84277   0.89203   0.00000  Uiso   1.00
H1119  H     0.00117   0.85650   0.97158   0.00000  Uiso   1.00
H1120  H     0.33217   0.81016   0.52842   0.00000  Uiso   1.00
H1121  H     0.18203   0.85721   0.57990   0.00000  Uiso   1.00
H1122  H     0.15130   0.80946   0.92010   0.00000  Uiso   1.00
H1123  H     0.28964   0.70640   0.70558   0.00000  Uiso   1.00
H1124  H     0.04369   0.96027   0.79442   0.00000  Uiso   1.00
H1125  H     0.10666   0.78738   0.79975   0.00000  Uiso   1.00
H1126  H     0.22667   0.87928   0.70025   0.00000  Uiso   1.00
N1127  N     0.11736   0.83334   0.74999   0.00000  Uiso   1.00
N1128  N     0.21597   0.83332   0.75001   0.00000  Uiso   1.00
O1129  O     0.03958   0.77322   0.75000   0.00000  Uiso   1.00
O1130  O     0.29375   0.89345   0.75000   0.00000  Uiso   1.00
O1131  O     0.29372   0.77321   0.75000   0.00000  Uiso   1.00
O1132  O     0.03961   0.89346   0.74999   0.00000  Uiso   1.00
O1133  O     0.01852   0.83334   0.81491   0.00000  Uiso   1.00
O1134  O     0.31481   0.83332   0.68508   0.00000  Uiso   1.00
O1135  O     0.27267   0.83333   0.81492   0.00000  Uiso   1.00
O1136  O     0.06067   0.83333   0.68508   0.00000  Uiso   1.00
C1137  C     0.12669   0.79635   0.61668   0.00000  Uiso   1.00
H1138  H     0.15725   0.78063   0.59244   0.00000  Uiso   1.00
H1139  H     0.14198   0.81741   0.63711   0.00000  Uiso   1.00
H1140  H     0.10545   0.77149   0.63835   0.00000  Uiso   1.00
C1141  C     0.20665   0.87031   0.88332   0.00000  Uiso   1.00
H1142  H     0.19136   0.84925   0.86289   0.00000  Uiso   1.00
H1143  H     0.17608   0.88603   0.90756   0.00000  Uiso   1.00
H1144  H     0.22788   0.89517   0.86165   0.00000  Uiso   1.00
O1145  O     0.28808   0.96176   0.69254   0.00000  Uiso   1.00
H1146  H     0.30355   0.93478   0.68307   0.00000  Uiso   1.00
O1147  O     0.04525   0.70491   0.80746   0.00000  Uiso   1.00
H1148  H     0.02978   0.73188   0.81693   0.00000  Uiso   1.00
O1149  O     0.19845   0.78139   0.80568   0.00000  Uiso   1.00
H1150  H     0.17024   0.76512   0.82379   0.00000  Uiso   1.00
O1151  O     0.13488   0.88528   0.69431   0.00000  Uiso   1.00
H1152  H     0.16310   0.90154   0.67621   0.00000  Uiso   1.00
C1153  C     0.66611   0.75411   0.75139   0.00000  Uiso   1.00
C1154  C     0.33389   0.91255   0.74860   0.00000  Uiso   1.00
C1155  C     0.52629   0.84934   0.54518   0.00000  Uiso   1.00
C1156  C     0.47371   0.81733   0.95482   0.00000  Uiso   1.00
C1157  C     0.57537   0.85405   0.52247   0.00000  Uiso   1.00
C1158  C     0.42463   0.81262   0.97753   0.00000  Uiso   1.00
C1159  C     0.64142   0.68902   0.72555   0.00000  Uiso   1.00
C1160  C     0.35858   0.97765   0.77445   0.00000  Uiso   1.00
C1161  C     0.64311   0.97972   0.72200   0.00000  Uiso   1.00
C1162  C     0.35690   0.68694   0.77800   0.00000  Uiso   1.00
C1163  C     0.33458   0.95720   0.74749   0.00000  Uiso   1.00
C1164  C     0.66542   0.70947   0.75251   0.00000  Uiso   1.00
C1165  C     0.51607   0.80749   0.77786   0.00000  Uiso   1.00
C1166  C     0.48393   0.85918   0.72214   0.00000  Uiso   1.00
C1167  C     0.46622   0.80774   0.77772   0.00000  Uiso   1.00
C1168  C     0.53378   0.85893   0.72228   0.00000  Uiso   1.00
C1169  C     0.63892   0.83612   0.83570   0.00000  Uiso   1.00
C1170  C     0.36108   0.83055   0.66430   0.00000  Uiso   1.00
C1171  C     0.62247   0.84191   0.88411   0.00000  Uiso   1.00
C1172  C     0.37753   0.82476   0.61589   0.00000  Uiso   1.00
C1173  C     0.64098   0.85074   0.95402   0.00000  Uiso   1.00
C1174  C     0.35902   0.81593   0.54598   0.00000  Uiso   1.00
C1175  C     0.65662   0.84407   0.90846   0.00000  Uiso   1.00
C1176  C     0.34338   0.82260   0.59154   0.00000  Uiso   1.00
C1177  C     0.57235   0.84736   0.90636   0.00000  Uiso   1.00
C1178  C     0.42765   0.81931   0.59364   0.00000  Uiso   1.00
C1179  C     0.55655   0.84203   0.95289   0.00000  Uiso   1.00
C1180  C     0.44345   0.82463   0.54711   0.00000  Uiso   1.00
C1181  C     0.59119   0.84849   0.97668   0.00000  Uiso   1.00
C1182  C     0.40881   0.81817   0.52332   0.00000  Uiso   1.00
C1183  C     0.50749   0.83201   0.97652   0.00000  Uiso   1.00
C1184  C     0.49251   0.83466   0.52348   0.00000  Uiso   1.00
Cu1185 Cu    0.38022   0.83334   0.75000   0.00000  Uiso   1.00
Cu1186 Cu    0.61978   0.83333   0.75000   0.00000  Uiso   1.00
H1187  H     0.60080   0.86281   0.54072   0.00000  Uiso   1.00
H1188  H     0.39920   0.80386   0.95928   0.00000  Uiso   1.00
H1189  H     0.63793   0.82389   0.60797   0.00000  Uiso   1.00
H1190  H     0.36207   0.84277   0.89203   0.00000  Uiso   1.00
H1191  H     0.33450   0.85650   0.97158   0.00000  Uiso   1.00
H1192  H     0.66550   0.81016   0.52842   0.00000  Uiso   1.00
H1193  H     0.51536   0.85721   0.57990   0.00000  Uiso   1.00
H1194  H     0.48464   0.80946   0.92010   0.00000  Uiso   1.00
H1195  H     0.62298   0.70640   0.70558   0.00000  Uiso   1.00
H1196  H     0.37702   0.96027   0.79442   0.00000  Uiso   1.00
H1197  H     0.44000   0.78738   0.79975   0.00000  Uiso   1.00
H1198  H     0.56000   0.87928   0.70025   0.00000  Uiso   1.00
N1199  N     0.45069   0.83334   0.74999   0.00000  Uiso   1.00
N1200  N     0.54931   0.83332   0.75001   0.00000  Uiso   1.00
O1201  O     0.37291   0.77322   0.75000   0.00000  Uiso   1.00
O1202  O     0.62709   0.89345   0.75000   0.00000  Uiso   1.00
O1203  O     0.62706   0.77321   0.75000   0.00000  Uiso   1.00
O1204  O     0.37294   0.89346   0.74999   0.00000  Uiso   1.00
O1205  O     0.35186   0.83334   0.81491   0.00000  Uiso   1.00
O1206  O     0.64814   0.83332   0.68508   0.00000  Uiso   1.00
O1207  O     0.60600   0.83333   0.81492   0.00000  Uiso   1.00
O1208  O     0.39400   0.83333   0.68508   0.00000  Uiso   1.00
C1209  C     0.46002   0.79635   0.61668   0.00000  Uiso   1.00
H1210  H     0.49058   0.78063   0.59244   0.00000  Uiso   1.00
H1211  H     0.47531   0.81741   0.63711   0.00000  Uiso   1.00
H1212  H     0.43879   0.77149   0.63835   0.00000  Uiso   1.00
C1213  C     0.53998   0.87031   0.88332   0.00000  Uiso   1.00
H1214  H     0.52469   0.84925   0.86289   0.00000  Uiso   1.00
H1215  H     0.50942   0.88603   0.90756   0.00000  Uiso   1.00
H1216  H     0.56121   0.89517   0.86165   0.00000  Uiso   1.00
O1217  O     0.62142   0.96176   0.69254   0.00000  Uiso   1.00
H1218  H     0.63689   0.93478   0.68307   0.00000  Uiso   1.00
O1219  O     0.37858   0.70491   0.80746   0.00000  Uiso   1.00
H1220  H     0.36312   0.73188   0.81693   0.00000  Uiso   1.00
O1221  O     0.53179   0.78139   0.80568   0.00000  Uiso   1.00
H1222  H     0.50357   0.76512   0.82379   0.00000  Uiso   1.00
O1223  O     0.46821   0.88528   0.69431   0.00000  Uiso   1.00
H1224  H     0.49643   0.90154   0.67621   0.00000  Uiso   1.00
C1225  C     0.99944   0.75411   0.75139   0.00000  Uiso   1.00
C1226  C     0.66722   0.91255   0.74860   0.00000  Uiso   1.00
C1227  C     0.85963   0.84934   0.54518   0.00000  Uiso   1.00
C1228  C     0.80704   0.81733   0.95482   0.00000  Uiso   1.00
C1229  C     0.90870   0.85405   0.52247   0.00000  Uiso   1.00
C1230  C     0.75797   0.81262   0.97753   0.00000  Uiso   1.00
C1231  C     0.97476   0.68902   0.72555   0.00000  Uiso   1.00
C1232  C     0.69191   0.97765   0.77445   0.00000  Uiso   1.00
C1233  C     0.97644   0.97972   0.72200   0.00000  Uiso   1.00
C1234  C     0.69023   0.68694   0.77800   0.00000  Uiso   1.00
C1235  C     0.66792   0.95720   0.74749   0.00000  Uiso   1.00
C1236  C     0.99875   0.70947   0.75251   0.00000  Uiso   1.00
C1237  C     0.84940   0.80749   0.77786   0.00000  Uiso   1.00
C1238  C     0.81727   0.85918   0.72214   0.00000  Uiso   1.00
C1239  C     0.79956   0.80774   0.77772   0.00000  Uiso   1.00
C1240  C     0.86711   0.85893   0.72228   0.00000  Uiso   1.00
C1241  C     0.97226   0.83612   0.83570   0.00000  Uiso   1.00
C1242  C     0.69441   0.83055   0.66430   0.00000  Uiso   1.00
C1243  C     0.95581   0.84191   0.88411   0.00000  Uiso   1.00
C1244  C     0.71086   0.82476   0.61589   0.00000  Uiso   1.00
C1245  C     0.97431   0.85074   0.95402   0.00000  Uiso   1.00
C1246  C     0.69235   0.81593   0.54598   0.00000  Uiso   1.00
C1247  C     0.98995   0.84407   0.90846   0.00000  Uiso   1.00
C1248  C     0.67672   0.82260   0.59154   0.00000  Uiso   1.00
C1249  C     0.90568   0.84736   0.90636   0.00000  Uiso   1.00
C1250  C     0.76098   0.81931   0.59364   0.00000  Uiso   1.00
C1251  C     0.88988   0.84203   0.95289   0.00000  Uiso   1.00
C1252  C     0.77678   0.82463   0.54711   0.00000  Uiso   1.00
C1253  C     0.92452   0.84849   0.97668   0.00000  Uiso   1.00
C1254  C     0.74215   0.81817   0.52332   0.00000  Uiso   1.00
C1255  C     0.84082   0.83201   0.97652   0.00000  Uiso   1.00
C1256  C     0.82585   0.83466   0.52348   0.00000  Uiso   1.00
Cu1257 Cu    0.71355   0.83334   0.75000   0.00000  Uiso   1.00
Cu1258 Cu    0.95311   0.83333   0.75000   0.00000  Uiso   1.00
H1259  H     0.93414   0.86281   0.54072   0.00000  Uiso   1.00
H1260  H     0.73253   0.80386   0.95928   0.00000  Uiso   1.00
H1261  H     0.97126   0.82389   0.60797   0.00000  Uiso   1.00
H1262  H     0.69541   0.84277   0.89203   0.00000  Uiso   1.00
H1263  H     0.66783   0.85650   0.97158   0.00000  Uiso   1.00
H1264  H     0.99883   0.81016   0.52842   0.00000  Uiso   1.00
H1265  H     0.84870   0.85721   0.57990   0.00000  Uiso   1.00
H1266  H     0.81797   0.80946   0.92010   0.00000  Uiso   1.00
H1267  H     0.95631   0.70640   0.70558   0.00000  Uiso   1.00
H1268  H     0.71036   0.96027   0.79442   0.00000  Uiso   1.00
H1269  H     0.77333   0.78738   0.79975   0.00000  Uiso   1.00
H1270  H     0.89334   0.87928   0.70025   0.00000  Uiso   1.00
N1271  N     0.78403   0.83334   0.74999   0.00000  Uiso   1.00
N1272  N     0.88264   0.83332   0.75001   0.00000  Uiso   1.00
O1273  O     0.70625   0.77322   0.75000   0.00000  Uiso   1.00
O1274  O     0.96042   0.89345   0.75000   0.00000  Uiso   1.00
O1275  O     0.96039   0.77321   0.75000   0.00000  Uiso   1.00
O1276  O     0.70628   0.89346   0.74999   0.00000  Uiso   1.00
O1277  O     0.68519   0.83334   0.81491   0.00000  Uiso   1.00
O1278  O     0.98148   0.83332   0.68508   0.00000  Uiso   1.00
O1279  O     0.93933   0.83333   0.81492   0.00000  Uiso   1.00
O1280  O     0.72733   0.83333   0.68508   0.00000  Uiso   1.00
C1281  C     0.79336   0.79635   0.61668   0.00000  Uiso   1.00
H1282  H     0.82392   0.78063   0.59244   0.00000  Uiso   1.00
H1283  H     0.80864   0.81741   0.63711   0.00000  Uiso   1.00
H1284  H     0.77212   0.77149   0.63835   0.00000  Uiso   1.00
C1285  C     0.87331   0.87031   0.88332   0.00000  Uiso   1.00
H1286  H     0.85802   0.84925   0.86289   0.00000  Uiso   1.00
H1287  H     0.84275   0.88603   0.90756   0.00000  Uiso   1.00
H1288  H     0.89455   0.89517   0.86165   0.00000  Uiso   1.00
O1289  O     0.95475   0.96176   0.69254   0.00000  Uiso   1.00
H1290  H     0.97022   0.93478   0.68307   0.00000  Uiso   1.00
O1291  O     0.71192   0.70491   0.80746   0.00000  Uiso   1.00
H1292  H     0.69645   0.73188   0.81693   0.00000  Uiso   1.00
O1293  O     0.86512   0.78139   0.80568   0.00000  Uiso   1.00
H1294  H     0.83690   0.76512   0.82379   0.00000  Uiso   1.00
O1295  O     0.80155   0.88528   0.69431   0.00000  Uiso   1.00
H1296  H     0.82976   0.90154   0.67621   0.00000  Uiso   1.00
loop_
_geom_bond_atom_site_label_1
_geom_bond_atom_site_label_2
_geom_bond_distance
_geom_bond_site_symmetry_2
_ccdc_geom_bond_type
C1     O51     1.291   .     A
C1     C12     1.446   .     S
C1     O121    1.290   .     S
C2     O52     1.291   .     A
C2     C11     1.446   .     S
C2     O194    1.290   1_455 S
C3     C5      1.389   .     A
C3     C32     1.413   .     A
C3     H41     1.078   .     S
C4     C6      1.389   .     A
C4     H42     1.078   .     S
C4     C31     1.413   .     A
C5     H35     1.083   .     S
C5     C677    1.393   1_554 S
C6     H36     1.083   .     S
C6     C678    1.393   .     S
C7     H43     1.085   .     S
C7     C12     1.399   .     A
C7     C441    1.386   1_545 S
C8     C11     1.399   .     A
C8     H44     1.085   .     S
C8     C226    1.386   .     S
C9     O65     1.381   .     S
C9     C223    1.386   .     S
C9     C83     1.414   .     S
C10    O67     1.381   .     S
C10    C440    1.386   1_545 S
C10    C156    1.414   1_455 S
C11    C153    1.414   1_455 S
C12    C82     1.414   .     S
C13    N48     1.371   .     A
C13    O69     1.378   .     S
C13    C15     1.426   .     A
C14    N47     1.371   .     A
C14    O71     1.378   .     S
C14    C16     1.426   .     A
C15    N47     1.364   .     A
C15    H45     1.082   .     S
C16    N48     1.364   .     A
C16    H46     1.082   .     S
C17    O55     1.292   .     A
C17    C19     1.472   .     S
C17    O125    1.302   .     S
C18    C20     1.472   .     S
C18    O56     1.292   .     A
C18    O198    1.302   1_455 S
C19    C23     1.402   .     A
C19    C25     1.417   .     A
C20    C24     1.402   .     A
C20    C26     1.417   .     A
C21    C23     1.391   .     A
C21    C29     1.400   .     A
C21    H111    1.081   .     S
C22    C24     1.391   .     A
C22    C30     1.400   .     A
C22    H184    1.081   1_455 S
C23    H110    1.083   .     S
C24    H181    1.083   1_455 S
C25    C61     1.522   .     S
C25    C27     1.411   .     A
C26    C57     1.522   .     S
C26    C28     1.411   .     A
C27    C29     1.415   .     A
C27    C31     1.423   .     A
C28    C30     1.415   .     A
C28    C32     1.423   .     A
C29    C653    1.393   .     S
C30    C654    1.393   1_554 S
C31    C680    1.418   .     S
C32    C679    1.418   1_554 S
Cu33   O56     1.964   .     S
Cu33   O52     1.959   .     S
Cu33   O53     1.969   .     S
Cu33   N47     2.014   .     S
Cu33   O49     1.957   .     S
Cu33   Cu178   2.681   1_455 S
Cu34   O55     1.964   .     S
Cu34   O51     1.959   .     S
Cu34   O54     1.969   .     S
Cu34   O50     1.957   .     S
Cu34   N48     2.014   .     S
Cu34   Cu105   2.681   .     S
H37    C96     1.083   .     S
H38    C167    1.083   1_455 S
H39    C165    1.081   1_455 S
H40    C94     1.081   .     S
O49    C145    1.290   1_455 S
O50    C74     1.290   .     S
O53    C161    1.302   1_455 S
O54    C90     1.302   .     S
C57    H58     1.110   .     S
C57    H59     1.108   .     S
C57    H60     1.111   .     S
C61    H62     1.108   .     S
C61    H64     1.111   .     S
C61    H63     1.110   .     S
O65    H66     0.990   .     S
O67    H68     0.990   .     S
O69    H70     0.992   .     S
O71    H72     0.992   .     S
C73    O123    1.291   .     A
C73    C84     1.446   .     S
C73    O193    1.290   .     S
C74    O124    1.291   .     A
C74    C83     1.446   .     S
C75    C77     1.389   .     A
C75    C104    1.413   .     A
C75    H113    1.078   .     S
C76    C78     1.389   .     A
C76    H114    1.078   .     S
C76    C103    1.413   .     A
C77    H107    1.083   .     S
C77    C749    1.393   1_554 S
C78    H108    1.083   .     S
C78    C750    1.393   .     S
C79    H115    1.085   .     S
C79    C84     1.399   .     A
C79    C513    1.386   1_545 S
C80    C83     1.399   .     A
C80    H116    1.085   .     S
C80    C298    1.386   .     S
C81    O137    1.381   .     S
C81    C295    1.386   .     S
C81    C155    1.414   .     S
C82    O139    1.381   .     S
C82    C512    1.386   1_545 S
C84    C154    1.414   .     S
C85    N120    1.371   .     A
C85    O141    1.378   .     S
C85    C87     1.426   .     A
C86    N119    1.371   .     A
C86    O143    1.378   .     S
C86    C88     1.426   .     A
C87    N119    1.364   .     A
C87    H117    1.082   .     S
C88    N120    1.364   .     A
C88    H118    1.082   .     S
C89    O127    1.292   .     A
C89    C91     1.472   .     S
C89    O197    1.302   .     S
C90    C92     1.472   .     S
C90    O128    1.292   .     A
C91    C95     1.402   .     A
C91    C97     1.417   .     A
C92    C96     1.402   .     A
C92    C98     1.417   .     A
C93    C95     1.391   .     A
C93    C101    1.400   .     A
C93    H183    1.081   .     S
C94    C96     1.391   .     A
C94    C102    1.400   .     A
C95    H182    1.083   .     S
C97    C133    1.522   .     S
C97    C99     1.411   .     A
C98    C129    1.522   .     S
C98    C100    1.411   .     A
C99    C101    1.415   .     A
C99    C103    1.423   .     A
C100   C102    1.415   .     A
C100   C104    1.423   .     A
C101   C725    1.393   .     S
C102   C726    1.393   1_554 S
C103   C752    1.418   .     S
C104   C751    1.418   1_554 S
Cu105  O128    1.964   .     S
Cu105  O124    1.959   .     S
Cu105  O125    1.969   .     S
Cu105  N119    2.014   .     S
Cu105  O121    1.957   .     S
Cu106  O127    1.964   .     S
Cu106  O123    1.959   .     S
Cu106  O126    1.969   .     S
Cu106  O122    1.957   .     S
Cu106  N120    2.014   .     S
Cu106  Cu177   2.681   .     S
H109   C168    1.083   .     S
H112   C166    1.081   .     S
O122   C146    1.290   .     S
O126   C162    1.302   .     S
C129   H130    1.110   .     S
C129   H131    1.108   .     S
C129   H132    1.111   .     S
C133   H134    1.108   .     S
C133   H136    1.111   .     S
C133   H135    1.110   .     S
O137   H138    0.990   .     S
O139   H140    0.990   .     S
O141   H142    0.992   .     S
O143   H144    0.992   .     S
C145   O195    1.291   .     A
C145   C156    1.446   .     S
C145   O49     1.290   1_655 S
C146   O196    1.291   .     A
C146   C155    1.446   .     S
C147   C149    1.389   .     A
C147   C176    1.413   .     A
C147   H185    1.078   .     S
C148   C150    1.389   .     A
C148   H186    1.078   .     S
C148   C175    1.413   .     A
C149   H179    1.083   .     S
C149   C821    1.393   1_554 S
C150   H180    1.083   .     S
C150   C822    1.393   .     S
C151   H187    1.085   .     S
C151   C156    1.399   .     A
C151   C585    1.386   1_545 S
C152   C155    1.399   .     A
C152   H188    1.085   .     S
C152   C370    1.386   .     S
C153   O209    1.381   .     S
C153   C367    1.386   .     S
C153   C11     1.414   1_655 S
C154   O211    1.381   .     S
C154   C584    1.386   1_545 S
C156   C10     1.414   1_655 S
C157   N192    1.371   .     A
C157   O213    1.378   .     S
C157   C159    1.426   .     A
C158   N191    1.371   .     A
C158   O215    1.378   .     S
C158   C160    1.426   .     A
C159   N191    1.364   .     A
C159   H189    1.082   .     S
C160   N192    1.364   .     A
C160   H190    1.082   .     S
C161   O199    1.292   .     A
C161   C163    1.472   .     S
C161   O53     1.302   1_655 S
C162   C164    1.472   .     S
C162   O200    1.292   .     A
C163   C167    1.402   .     A
C163   C169    1.417   .     A
C164   C168    1.402   .     A
C164   C170    1.417   .     A
C165   C167    1.391   .     A
C165   C173    1.400   .     A
C165   H39     1.081   1_655 S
C166   C168    1.391   .     A
C166   C174    1.400   .     A
C167   H38     1.083   1_655 S
C169   C205    1.522   .     S
C169   C171    1.411   .     A
C170   C201    1.522   .     S
C170   C172    1.411   .     A
C171   C173    1.415   .     A
C171   C175    1.423   .     A
C172   C174    1.415   .     A
C172   C176    1.423   .     A
C173   C797    1.393   .     S
C174   C798    1.393   1_554 S
C175   C824    1.418   .     S
C176   C823    1.418   1_554 S
Cu177  O200    1.964   .     S
Cu177  O196    1.959   .     S
Cu177  O197    1.969   .     S
Cu177  N191    2.014   .     S
Cu177  O193    1.957   .     S
Cu178  O199    1.964   .     S
Cu178  O195    1.959   .     S
Cu178  O198    1.969   .     S
Cu178  O194    1.957   .     S
Cu178  N192    2.014   .     S
Cu178  Cu33    2.681   1_655 S
H181   C24     1.083   1_655 S
H184   C22     1.081   1_655 S
O194   C2      1.290   1_655 S
O198   C18     1.302   1_655 S
C201   H202    1.110   .     S
C201   H203    1.108   .     S
C201   H204    1.111   .     S
C205   H206    1.108   .     S
C205   H208    1.111   .     S
C205   H207    1.110   .     S
O209   H210    0.990   .     S
O211   H212    0.990   .     S
O213   H214    0.992   .     S
O215   H216    0.992   .     S
C217   O267    1.291   .     A
C217   C228    1.446   .     S
C217   O337    1.290   .     S
C218   O268    1.291   .     A
C218   C227    1.446   .     S
C218   O410    1.290   1_455 S
C219   C221    1.389   .     A
C219   C248    1.413   .     A
C219   H257    1.078   .     S
C220   C222    1.389   .     A
C220   H258    1.078   .     S
C220   C247    1.413   .     A
C221   H251    1.083   .     S
C221   C893    1.393   1_554 S
C222   H252    1.083   .     S
C222   C894    1.393   .     S
C223   H259    1.085   .     S
C223   C228    1.399   .     A
C224   C227    1.399   .     A
C224   H260    1.085   .     S
C224   C442    1.386   .     S
C225   O281    1.381   .     S
C225   C439    1.386   .     S
C225   C299    1.414   .     S
C226   O283    1.381   .     S
C226   C372    1.414   1_455 S
C227   C369    1.414   1_455 S
C228   C298    1.414   .     S
C229   N264    1.371   .     A
C229   O285    1.378   .     S
C229   C231    1.426   .     A
C230   N263    1.371   .     A
C230   O287    1.378   .     S
C230   C232    1.426   .     A
C231   N263    1.364   .     A
C231   H261    1.082   .     S
C232   N264    1.364   .     A
C232   H262    1.082   .     S
C233   O271    1.292   .     A
C233   C235    1.472   .     S
C233   O341    1.302   .     S
C234   C236    1.472   .     S
C234   O272    1.292   .     A
C234   O414    1.302   1_455 S
C235   C239    1.402   .     A
C235   C241    1.417   .     A
C236   C240    1.402   .     A
C236   C242    1.417   .     A
C237   C239    1.391   .     A
C237   C245    1.400   .     A
C237   H327    1.081   .     S
C238   C240    1.391   .     A
C238   C246    1.400   .     A
C238   H400    1.081   1_455 S
C239   H326    1.083   .     S
C240   H397    1.083   1_455 S
C241   C277    1.522   .     S
C241   C243    1.411   .     A
C242   C273    1.522   .     S
C242   C244    1.411   .     A
C243   C245    1.415   .     A
C243   C247    1.423   .     A
C244   C246    1.415   .     A
C244   C248    1.423   .     A
C245   C869    1.393   .     S
C246   C870    1.393   1_554 S
C247   C896    1.418   .     S
C248   C895    1.418   1_554 S
Cu249  O272    1.964   .     S
Cu249  O268    1.959   .     S
Cu249  O269    1.969   .     S
Cu249  N263    2.014   .     S
Cu249  O265    1.957   .     S
Cu249  Cu394   2.681   1_455 S
Cu250  O271    1.964   .     S
Cu250  O267    1.959   .     S
Cu250  O270    1.969   .     S
Cu250  O266    1.957   .     S
Cu250  N264    2.014   .     S
Cu250  Cu321   2.681   .     S
H253   C312    1.083   .     S
H254   C383    1.083   1_455 S
H255   C381    1.081   1_455 S
H256   C310    1.081   .     S
O265   C361    1.290   1_455 S
O266   C290    1.290   .     S
O269   C377    1.302   1_455 S
O270   C306    1.302   .     S
C273   H274    1.110   .     S
C273   H275    1.108   .     S
C273   H276    1.111   .     S
C277   H278    1.108   .     S
C277   H280    1.111   .     S
C277   H279    1.110   .     S
O281   H282    0.990   .     S
O283   H284    0.990   .     S
O285   H286    0.992   .     S
O287   H288    0.992   .     S
C289   O339    1.291   .     A
C289   C300    1.446   .     S
C289   O409    1.290   .     S
C290   O340    1.291   .     A
C290   C299    1.446   .     S
C291   C293    1.389   .     A
C291   C320    1.413   .     A
C291   H329    1.078   .     S
C292   C294    1.389   .     A
C292   H330    1.078   .     S
C292   C319    1.413   .     A
C293   H323    1.083   .     S
C293   C965    1.393   1_554 S
C294   H324    1.083   .     S
C294   C966    1.393   .     S
C295   H331    1.085   .     S
C295   C300    1.399   .     A
C296   C299    1.399   .     A
C296   H332    1.085   .     S
C296   C514    1.386   .     S
C297   O353    1.381   .     S
C297   C511    1.386   .     S
C297   C371    1.414   .     S
C298   O355    1.381   .     S
C300   C370    1.414   .     S
C301   N336    1.371   .     A
C301   O357    1.378   .     S
C301   C303    1.426   .     A
C302   N335    1.371   .     A
C302   O359    1.378   .     S
C302   C304    1.426   .     A
C303   N335    1.364   .     A
C303   H333    1.082   .     S
C304   N336    1.364   .     A
C304   H334    1.082   .     S
C305   O343    1.292   .     A
C305   C307    1.472   .     S
C305   O413    1.302   .     S
C306   C308    1.472   .     S
C306   O344    1.292   .     A
C307   C311    1.402   .     A
C307   C313    1.417   .     A
C308   C312    1.402   .     A
C308   C314    1.417   .     A
C309   C311    1.391   .     A
C309   C317    1.400   .     A
C309   H399    1.081   .     S
C310   C312    1.391   .     A
C310   C318    1.400   .     A
C311   H398    1.083   .     S
C313   C349    1.522   .     S
C313   C315    1.411   .     A
C314   C345    1.522   .     S
C314   C316    1.411   .     A
C315   C317    1.415   .     A
C315   C319    1.423   .     A
C316   C318    1.415   .     A
C316   C320    1.423   .     A
C317   C941    1.393   .     S
C318   C942    1.393   1_554 S
C319   C968    1.418   .     S
C320   C967    1.418   1_554 S
Cu321  O344    1.964   .     S
Cu321  O340    1.959   .     S
Cu321  O341    1.969   .     S
Cu321  N335    2.014   .     S
Cu321  O337    1.957   .     S
Cu322  O343    1.964   .     S
Cu322  O339    1.959   .     S
Cu322  O342    1.969   .     S
Cu322  O338    1.957   .     S
Cu322  N336    2.014   .     S
Cu322  Cu393   2.681   .     S
H325   C384    1.083   .     S
H328   C382    1.081   .     S
O338   C362    1.290   .     S
O342   C378    1.302   .     S
C345   H346    1.110   .     S
C345   H347    1.108   .     S
C345   H348    1.111   .     S
C349   H350    1.108   .     S
C349   H352    1.111   .     S
C349   H351    1.110   .     S
O353   H354    0.990   .     S
O355   H356    0.990   .     S
O357   H358    0.992   .     S
O359   H360    0.992   .     S
C361   O411    1.291   .     A
C361   C372    1.446   .     S
C361   O265    1.290   1_655 S
C362   O412    1.291   .     A
C362   C371    1.446   .     S
C363   C365    1.389   .     A
C363   C392    1.413   .     A
C363   H401    1.078   .     S
C364   C366    1.389   .     A
C364   H402    1.078   .     S
C364   C391    1.413   .     A
C365   H395    1.083   .     S
C365   C1037   1.393   1_554 S
C366   H396    1.083   .     S
C366   C1038   1.393   .     S
C367   H403    1.085   .     S
C367   C372    1.399   .     A
C368   C371    1.399   .     A
C368   H404    1.085   .     S
C368   C586    1.386   .     S
C369   O425    1.381   .     S
C369   C583    1.386   .     S
C369   C227    1.414   1_655 S
C370   O427    1.381   .     S
C372   C226    1.414   1_655 S
C373   N408    1.371   .     A
C373   O429    1.378   .     S
C373   C375    1.426   .     A
C374   N407    1.371   .     A
C374   O431    1.378   .     S
C374   C376    1.426   .     A
C375   N407    1.364   .     A
C375   H405    1.082   .     S
C376   N408    1.364   .     A
C376   H406    1.082   .     S
C377   O415    1.292   .     A
C377   C379    1.472   .     S
C377   O269    1.302   1_655 S
C378   C380    1.472   .     S
C378   O416    1.292   .     A
C379   C383    1.402   .     A
C379   C385    1.417   .     A
C380   C384    1.402   .     A
C380   C386    1.417   .     A
C381   C383    1.391   .     A
C381   C389    1.400   .     A
C381   H255    1.081   1_655 S
C382   C384    1.391   .     A
C382   C390    1.400   .     A
C383   H254    1.083   1_655 S
C385   C421    1.522   .     S
C385   C387    1.411   .     A
C386   C417    1.522   .     S
C386   C388    1.411   .     A
C387   C389    1.415   .     A
C387   C391    1.423   .     A
C388   C390    1.415   .     A
C388   C392    1.423   .     A
C389   C1013   1.393   .     S
C390   C1014   1.393   1_554 S
C391   C1040   1.418   .     S
C392   C1039   1.418   1_554 S
Cu393  O416    1.964   .     S
Cu393  O412    1.959   .     S
Cu393  O413    1.969   .     S
Cu393  N407    2.014   .     S
Cu393  O409    1.957   .     S
Cu394  O415    1.964   .     S
Cu394  O411    1.959   .     S
Cu394  O414    1.969   .     S
Cu394  O410    1.957   .     S
Cu394  N408    2.014   .     S
Cu394  Cu249   2.681   1_655 S
H397   C240    1.083   1_655 S
H400   C238    1.081   1_655 S
O410   C218    1.290   1_655 S
O414   C234    1.302   1_655 S
C417   H418    1.110   .     S
C417   H419    1.108   .     S
C417   H420    1.111   .     S
C421   H422    1.108   .     S
C421   H424    1.111   .     S
C421   H423    1.110   .     S
O425   H426    0.990   .     S
O427   H428    0.990   .     S
O429   H430    0.992   .     S
O431   H432    0.992   .     S
C433   O483    1.291   .     A
C433   C444    1.446   .     S
C433   O553    1.290   .     S
C434   O484    1.291   .     A
C434   C443    1.446   .     S
C434   O626    1.290   1_455 S
C435   C437    1.389   .     A
C435   C464    1.413   .     A
C435   H473    1.078   .     S
C436   C438    1.389   .     A
C436   H474    1.078   .     S
C436   C463    1.413   .     A
C437   H467    1.083   .     S
C437   C1109   1.393   1_554 S
C438   H468    1.083   .     S
C438   C1110   1.393   .     S
C439   H475    1.085   .     S
C439   C444    1.399   .     A
C440   C443    1.399   .     A
C440   H476    1.085   .     S
C440   C10     1.386   1_565 S
C441   O497    1.381   .     S
C441   C7      1.386   1_565 S
C441   C515    1.414   .     S
C442   O499    1.381   .     S
C442   C588    1.414   1_455 S
C443   C585    1.414   1_455 S
C444   C514    1.414   .     S
C445   N480    1.371   .     A
C445   O501    1.378   .     S
C445   C447    1.426   .     A
C446   N479    1.371   .     A
C446   O503    1.378   .     S
C446   C448    1.426   .     A
C447   N479    1.364   .     A
C447   H477    1.082   .     S
C448   N480    1.364   .     A
C448   H478    1.082   .     S
C449   O487    1.292   .     A
C449   C451    1.472   .     S
C449   O557    1.302   .     S
C450   C452    1.472   .     S
C450   O488    1.292   .     A
C450   O630    1.302   1_455 S
C451   C455    1.402   .     A
C451   C457    1.417   .     A
C452   C456    1.402   .     A
C452   C458    1.417   .     A
C453   C455    1.391   .     A
C453   C461    1.400   .     A
C453   H543    1.081   .     S
C454   C456    1.391   .     A
C454   C462    1.400   .     A
C454   H616    1.081   1_455 S
C455   H542    1.083   .     S
C456   H613    1.083   1_455 S
C457   C493    1.522   .     S
C457   C459    1.411   .     A
C458   C489    1.522   .     S
C458   C460    1.411   .     A
C459   C461    1.415   .     A
C459   C463    1.423   .     A
C460   C462    1.415   .     A
C460   C464    1.423   .     A
C461   C1085   1.393   .     S
C462   C1086   1.393   1_554 S
C463   C1112   1.418   .     S
C464   C1111   1.418   1_554 S
Cu465  O488    1.964   .     S
Cu465  O484    1.959   .     S
Cu465  O485    1.969   .     S
Cu465  N479    2.014   .     S
Cu465  O481    1.957   .     S
Cu465  Cu610   2.681   1_455 S
Cu466  O487    1.964   .     S
Cu466  O483    1.959   .     S
Cu466  O486    1.969   .     S
Cu466  O482    1.957   .     S
Cu466  N480    2.014   .     S
Cu466  Cu537   2.681   .     S
H469   C528    1.083   .     S
H470   C599    1.083   1_455 S
H471   C597    1.081   1_455 S
H472   C526    1.081   .     S
O481   C577    1.290   1_455 S
O482   C506    1.290   .     S
O485   C593    1.302   1_455 S
O486   C522    1.302   .     S
C489   H490    1.110   .     S
C489   H491    1.108   .     S
C489   H492    1.111   .     S
C493   H494    1.108   .     S
C493   H496    1.111   .     S
C493   H495    1.110   .     S
O497   H498    0.990   .     S
O499   H500    0.990   .     S
O501   H502    0.992   .     S
O503   H504    0.992   .     S
C505   O555    1.291   .     A
C505   C516    1.446   .     S
C505   O625    1.290   .     S
C506   O556    1.291   .     A
C506   C515    1.446   .     S
C507   C509    1.389   .     A
C507   C536    1.413   .     A
C507   H545    1.078   .     S
C508   C510    1.389   .     A
C508   H546    1.078   .     S
C508   C535    1.413   .     A
C509   H539    1.083   .     S
C509   C1181   1.393   1_554 S
C510   H540    1.083   .     S
C510   C1182   1.393   .     S
C511   H547    1.085   .     S
C511   C516    1.399   .     A
C512   C515    1.399   .     A
C512   H548    1.085   .     S
C512   C82     1.386   1_565 S
C513   O569    1.381   .     S
C513   C79     1.386   1_565 S
C513   C587    1.414   .     S
C514   O571    1.381   .     S
C516   C586    1.414   .     S
C517   N552    1.371   .     A
C517   O573    1.378   .     S
C517   C519    1.426   .     A
C518   N551    1.371   .     A
C518   O575    1.378   .     S
C518   C520    1.426   .     A
C519   N551    1.364   .     A
C519   H549    1.082   .     S
C520   N552    1.364   .     A
C520   H550    1.082   .     S
C521   O559    1.292   .     A
C521   C523    1.472   .     S
C521   O629    1.302   .     S
C522   C524    1.472   .     S
C522   O560    1.292   .     A
C523   C527    1.402   .     A
C523   C529    1.417   .     A
C524   C528    1.402   .     A
C524   C530    1.417   .     A
C525   C527    1.391   .     A
C525   C533    1.400   .     A
C525   H615    1.081   .     S
C526   C528    1.391   .     A
C526   C534    1.400   .     A
C527   H614    1.083   .     S
C529   C565    1.522   .     S
C529   C531    1.411   .     A
C530   C561    1.522   .     S
C530   C532    1.411   .     A
C531   C533    1.415   .     A
C531   C535    1.423   .     A
C532   C534    1.415   .     A
C532   C536    1.423   .     A
C533   C1157   1.393   .     S
C534   C1158   1.393   1_554 S
C535   C1184   1.418   .     S
C536   C1183   1.418   1_554 S
Cu537  O560    1.964   .     S
Cu537  O556    1.959   .     S
Cu537  O557    1.969   .     S
Cu537  N551    2.014   .     S
Cu537  O553    1.957   .     S
Cu538  O559    1.964   .     S
Cu538  O555    1.959   .     S
Cu538  O558    1.969   .     S
Cu538  O554    1.957   .     S
Cu538  N552    2.014   .     S
Cu538  Cu609   2.681   .     S
H541   C600    1.083   .     S
H544   C598    1.081   .     S
O554   C578    1.290   .     S
O558   C594    1.302   .     S
C561   H562    1.110   .     S
C561   H563    1.108   .     S
C561   H564    1.111   .     S
C565   H566    1.108   .     S
C565   H568    1.111   .     S
C565   H567    1.110   .     S
O569   H570    0.990   .     S
O571   H572    0.990   .     S
O573   H574    0.992   .     S
O575   H576    0.992   .     S
C577   O627    1.291   .     A
C577   C588    1.446   .     S
C577   O481    1.290   1_655 S
C578   O628    1.291   .     A
C578   C587    1.446   .     S
C579   C581    1.389   .     A
C579   C608    1.413   .     A
C579   H617    1.078   .     S
C580   C582    1.389   .     A
C580   H618    1.078   .     S
C580   C607    1.413   .     A
C581   H611    1.083   .     S
C581   C1253   1.393   1_554 S
C582   H612    1.083   .     S
C582   C1254   1.393   .     S
C583   H619    1.085   .     S
C583   C588    1.399   .     A
C584   C587    1.399   .     A
C584   H620    1.085   .     S
C584   C154    1.386   1_565 S
C585   O641    1.381   .     S
C585   C151    1.386   1_565 S
C585   C443    1.414   1_655 S
C586   O643    1.381   .     S
C588   C442    1.414   1_655 S
C589   N624    1.371   .     A
C589   O645    1.378   .     S
C589   C591    1.426   .     A
C590   N623    1.371   .     A
C590   O647    1.378   .     S
C590   C592    1.426   .     A
C591   N623    1.364   .     A
C591   H621    1.082   .     S
C592   N624    1.364   .     A
C592   H622    1.082   .     S
C593   O631    1.292   .     A
C593   C595    1.472   .     S
C593   O485    1.302   1_655 S
C594   C596    1.472   .     S
C594   O632    1.292   .     A
C595   C599    1.402   .     A
C595   C601    1.417   .     A
C596   C600    1.402   .     A
C596   C602    1.417   .     A
C597   C599    1.391   .     A
C597   C605    1.400   .     A
C597   H471    1.081   1_655 S
C598   C600    1.391   .     A
C598   C606    1.400   .     A
C599   H470    1.083   1_655 S
C601   C637    1.522   .     S
C601   C603    1.411   .     A
C602   C633    1.522   .     S
C602   C604    1.411   .     A
C603   C605    1.415   .     A
C603   C607    1.423   .     A
C604   C606    1.415   .     A
C604   C608    1.423   .     A
C605   C1229   1.393   .     S
C606   C1230   1.393   1_554 S
C607   C1256   1.418   .     S
C608   C1255   1.418   1_554 S
Cu609  O632    1.964   .     S
Cu609  O628    1.959   .     S
Cu609  O629    1.969   .     S
Cu609  N623    2.014   .     S
Cu609  O625    1.957   .     S
Cu610  O631    1.964   .     S
Cu610  O627    1.959   .     S
Cu610  O630    1.969   .     S
Cu610  O626    1.957   .     S
Cu610  N624    2.014   .     S
Cu610  Cu465   2.681   1_655 S
H613   C456    1.083   1_655 S
H616   C454    1.081   1_655 S
O626   C434    1.290   1_655 S
O630   C450    1.302   1_655 S
C633   H634    1.110   .     S
C633   H635    1.108   .     S
C633   H636    1.111   .     S
C637   H638    1.108   .     S
C637   H640    1.111   .     S
C637   H639    1.110   .     S
O641   H642    0.990   .     S
O643   H644    0.990   .     S
O645   H646    0.992   .     S
O647   H648    0.992   .     S
C649   O699    1.291   .     A
C649   C660    1.446   .     S
C649   O769    1.290   .     S
C650   O700    1.291   .     A
C650   C659    1.446   .     S
C650   O842    1.290   1_455 S
C651   C653    1.389   .     A
C651   C680    1.413   .     A
C651   H689    1.078   .     S
C652   C654    1.389   .     A
C652   H690    1.078   .     S
C652   C679    1.413   .     A
C653   H683    1.083   .     S
C654   H684    1.083   .     S
C654   C30     1.393   1_556 S
C655   H691    1.085   .     S
C655   C660    1.399   .     A
C655   C1089   1.386   1_545 S
C656   C659    1.399   .     A
C656   H692    1.085   .     S
C656   C874    1.386   .     S
C657   O713    1.381   .     S
C657   C871    1.386   .     S
C657   C731    1.414   .     S
C658   O715    1.381   .     S
C658   C1088   1.386   1_545 S
C658   C804    1.414   1_455 S
C659   C801    1.414   1_455 S
C660   C730    1.414   .     S
C661   N696    1.371   .     A
C661   O717    1.378   .     S
C661   C663    1.426   .     A
C662   N695    1.371   .     A
C662   O719    1.378   .     S
C662   C664    1.426   .     A
C663   N695    1.364   .     A
C663   H693    1.082   .     S
C664   N696    1.364   .     A
C664   H694    1.082   .     S
C665   O703    1.292   .     A
C665   C667    1.472   .     S
C665   O773    1.302   .     S
C666   C668    1.472   .     S
C666   O704    1.292   .     A
C666   O846    1.302   1_455 S
C667   C671    1.402   .     A
C667   C673    1.417   .     A
C668   C672    1.402   .     A
C668   C674    1.417   .     A
C669   C671    1.391   .     A
C669   C677    1.400   .     A
C669   H759    1.081   .     S
C670   C672    1.391   .     A
C670   C678    1.400   .     A
C670   H832    1.081   1_455 S
C671   H758    1.083   .     S
C672   H829    1.083   1_455 S
C673   C709    1.522   .     S
C673   C675    1.411   .     A
C674   C705    1.522   .     S
C674   C676    1.411   .     A
C675   C677    1.415   .     A
C675   C679    1.423   .     A
C676   C678    1.415   .     A
C676   C680    1.423   .     A
C677   C5      1.393   1_556 S
C679   C32     1.418   1_556 S
Cu681  O704    1.964   .     S
Cu681  O700    1.959   .     S
Cu681  O701    1.969   .     S
Cu681  N695    2.014   .     S
Cu681  O697    1.957   .     S
Cu681  Cu826   2.681   1_455 S
Cu682  O703    1.964   .     S
Cu682  O699    1.959   .     S
Cu682  O702    1.969   .     S
Cu682  O698    1.957   .     S
Cu682  N696    2.014   .     S
Cu682  Cu753   2.681   .     S
H685   C744    1.083   .     S
H686   C815    1.083   1_455 S
H687   C813    1.081   1_455 S
H688   C742    1.081   .     S
O697   C793    1.290   1_455 S
O698   C722    1.290   .     S
O701   C809    1.302   1_455 S
O702   C738    1.302   .     S
C705   H706    1.110   .     S
C705   H707    1.108   .     S
C705   H708    1.111   .     S
C709   H710    1.108   .     S
C709   H712    1.111   .     S
C709   H711    1.110   .     S
O713   H714    0.990   .     S
O715   H716    0.990   .     S
O717   H718    0.992   .     S
O719   H720    0.992   .     S
C721   O771    1.291   .     A
C721   C732    1.446   .     S
C721   O841    1.290   .     S
C722   O772    1.291   .     A
C722   C731    1.446   .     S
C723   C725    1.389   .     A
C723   C752    1.413   .     A
C723   H761    1.078   .     S
C724   C726    1.389   .     A
C724   H762    1.078   .     S
C724   C751    1.413   .     A
C725   H755    1.083   .     S
C726   H756    1.083   .     S
C726   C102    1.393   1_556 S
C727   H763    1.085   .     S
C727   C732    1.399   .     A
C727   C1161   1.386   1_545 S
C728   C731    1.399   .     A
C728   H764    1.085   .     S
C728   C946    1.386   .     S
C729   O785    1.381   .     S
C729   C943    1.386   .     S
C729   C803    1.414   .     S
C730   O787    1.381   .     S
C730   C1160   1.386   1_545 S
C732   C802    1.414   .     S
C733   N768    1.371   .     A
C733   O789    1.378   .     S
C733   C735    1.426   .     A
C734   N767    1.371   .     A
C734   O791    1.378   .     S
C734   C736    1.426   .     A
C735   N767    1.364   .     A
C735   H765    1.082   .     S
C736   N768    1.364   .     A
C736   H766    1.082   .     S
C737   O775    1.292   .     A
C737   C739    1.472   .     S
C737   O845    1.302   .     S
C738   C740    1.472   .     S
C738   O776    1.292   .     A
C739   C743    1.402   .     A
C739   C745    1.417   .     A
C740   C744    1.402   .     A
C740   C746    1.417   .     A
C741   C743    1.391   .     A
C741   C749    1.400   .     A
C741   H831    1.081   .     S
C742   C744    1.391   .     A
C742   C750    1.400   .     A
C743   H830    1.083   .     S
C745   C781    1.522   .     S
C745   C747    1.411   .     A
C746   C777    1.522   .     S
C746   C748    1.411   .     A
C747   C749    1.415   .     A
C747   C751    1.423   .     A
C748   C750    1.415   .     A
C748   C752    1.423   .     A
C749   C77     1.393   1_556 S
C751   C104    1.418   1_556 S
Cu753  O776    1.964   .     S
Cu753  O772    1.959   .     S
Cu753  O773    1.969   .     S
Cu753  N767    2.014   .     S
Cu753  O769    1.957   .     S
Cu754  O775    1.964   .     S
Cu754  O771    1.959   .     S
Cu754  O774    1.969   .     S
Cu754  O770    1.957   .     S
Cu754  N768    2.014   .     S
Cu754  Cu825   2.681   .     S
H757   C816    1.083   .     S
H760   C814    1.081   .     S
O770   C794    1.290   .     S
O774   C810    1.302   .     S
C777   H778    1.110   .     S
C777   H779    1.108   .     S
C777   H780    1.111   .     S
C781   H782    1.108   .     S
C781   H784    1.111   .     S
C781   H783    1.110   .     S
O785   H786    0.990   .     S
O787   H788    0.990   .     S
O789   H790    0.992   .     S
O791   H792    0.992   .     S
C793   O843    1.291   .     A
C793   C804    1.446   .     S
C793   O697    1.290   1_655 S
C794   O844    1.291   .     A
C794   C803    1.446   .     S
C795   C797    1.389   .     A
C795   C824    1.413   .     A
C795   H833    1.078   .     S
C796   C798    1.389   .     A
C796   H834    1.078   .     S
C796   C823    1.413   .     A
C797   H827    1.083   .     S
C798   H828    1.083   .     S
C798   C174    1.393   1_556 S
C799   H835    1.085   .     S
C799   C804    1.399   .     A
C799   C1233   1.386   1_545 S
C800   C803    1.399   .     A
C800   H836    1.085   .     S
C800   C1018   1.386   .     S
C801   O857    1.381   .     S
C801   C1015   1.386   .     S
C801   C659    1.414   1_655 S
C802   O859    1.381   .     S
C802   C1232   1.386   1_545 S
C804   C658    1.414   1_655 S
C805   N840    1.371   .     A
C805   O861    1.378   .     S
C805   C807    1.426   .     A
C806   N839    1.371   .     A
C806   O863    1.378   .     S
C806   C808    1.426   .     A
C807   N839    1.364   .     A
C807   H837    1.082   .     S
C808   N840    1.364   .     A
C808   H838    1.082   .     S
C809   O847    1.292   .     A
C809   C811    1.472   .     S
C809   O701    1.302   1_655 S
C810   C812    1.472   .     S
C810   O848    1.292   .     A
C811   C815    1.402   .     A
C811   C817    1.417   .     A
C812   C816    1.402   .     A
C812   C818    1.417   .     A
C813   C815    1.391   .     A
C813   C821    1.400   .     A
C813   H687    1.081   1_655 S
C814   C816    1.391   .     A
C814   C822    1.400   .     A
C815   H686    1.083   1_655 S
C817   C853    1.522   .     S
C817   C819    1.411   .     A
C818   C849    1.522   .     S
C818   C820    1.411   .     A
C819   C821    1.415   .     A
C819   C823    1.423   .     A
C820   C822    1.415   .     A
C820   C824    1.423   .     A
C821   C149    1.393   1_556 S
C823   C176    1.418   1_556 S
Cu825  O848    1.964   .     S
Cu825  O844    1.959   .     S
Cu825  O845    1.969   .     S
Cu825  N839    2.014   .     S
Cu825  O841    1.957   .     S
Cu826  O847    1.964   .     S
Cu826  O843    1.959   .     S
Cu826  O846    1.969   .     S
Cu826  O842    1.957   .     S
Cu826  N840    2.014   .     S
Cu826  Cu681   2.681   1_655 S
H829   C672    1.083   1_655 S
H832   C670    1.081   1_655 S
O842   C650    1.290   1_655 S
O846   C666    1.302   1_655 S
C849   H850    1.110   .     S
C849   H851    1.108   .     S
C849   H852    1.111   .     S
C853   H854    1.108   .     S
C853   H856    1.111   .     S
C853   H855    1.110   .     S
O857   H858    0.990   .     S
O859   H860    0.990   .     S
O861   H862    0.992   .     S
O863   H864    0.992   .     S
C865   O915    1.291   .     A
C865   C876    1.446   .     S
C865   O985    1.290   .     S
C866   O916    1.291   .     A
C866   C875    1.446   .     S
C866   O1058   1.290   1_455 S
C867   C869    1.389   .     A
C867   C896    1.413   .     A
C867   H905    1.078   .     S
C868   C870    1.389   .     A
C868   H906    1.078   .     S
C868   C895    1.413   .     A
C869   H899    1.083   .     S
C870   H900    1.083   .     S
C870   C246    1.393   1_556 S
C871   H907    1.085   .     S
C871   C876    1.399   .     A
C872   C875    1.399   .     A
C872   H908    1.085   .     S
C872   C1090   1.386   .     S
C873   O929    1.381   .     S
C873   C1087   1.386   .     S
C873   C947    1.414   .     S
C874   O931    1.381   .     S
C874   C1020   1.414   1_455 S
C875   C1017   1.414   1_455 S
C876   C946    1.414   .     S
C877   N912    1.371   .     A
C877   O933    1.378   .     S
C877   C879    1.426   .     A
C878   N911    1.371   .     A
C878   O935    1.378   .     S
C878   C880    1.426   .     A
C879   N911    1.364   .     A
C879   H909    1.082   .     S
C880   N912    1.364   .     A
C880   H910    1.082   .     S
C881   O919    1.292   .     A
C881   C883    1.472   .     S
C881   O989    1.302   .     S
C882   C884    1.472   .     S
C882   O920    1.292   .     A
C882   O1062   1.302   1_455 S
C883   C887    1.402   .     A
C883   C889    1.417   .     A
C884   C888    1.402   .     A
C884   C890    1.417   .     A
C885   C887    1.391   .     A
C885   C893    1.400   .     A
C885   H975    1.081   .     S
C886   C888    1.391   .     A
C886   C894    1.400   .     A
C886   H1048   1.081   1_455 S
C887   H974    1.083   .     S
C888   H1045   1.083   1_455 S
C889   C925    1.522   .     S
C889   C891    1.411   .     A
C890   C921    1.522   .     S
C890   C892    1.411   .     A
C891   C893    1.415   .     A
C891   C895    1.423   .     A
C892   C894    1.415   .     A
C892   C896    1.423   .     A
C893   C221    1.393   1_556 S
C895   C248    1.418   1_556 S
Cu897  O920    1.964   .     S
Cu897  O916    1.959   .     S
Cu897  O917    1.969   .     S
Cu897  N911    2.014   .     S
Cu897  O913    1.957   .     S
Cu897  Cu1042  2.681   1_455 S
Cu898  O919    1.964   .     S
Cu898  O915    1.959   .     S
Cu898  O918    1.969   .     S
Cu898  O914    1.957   .     S
Cu898  N912    2.014   .     S
Cu898  Cu969   2.681   .     S
H901   C960    1.083   .     S
H902   C1031   1.083   1_455 S
H903   C1029   1.081   1_455 S
H904   C958    1.081   .     S
O913   C1009   1.290   1_455 S
O914   C938    1.290   .     S
O917   C1025   1.302   1_455 S
O918   C954    1.302   .     S
C921   H922    1.110   .     S
C921   H923    1.108   .     S
C921   H924    1.111   .     S
C925   H926    1.108   .     S
C925   H928    1.111   .     S
C925   H927    1.110   .     S
O929   H930    0.990   .     S
O931   H932    0.990   .     S
O933   H934    0.992   .     S
O935   H936    0.992   .     S
C937   O987    1.291   .     A
C937   C948    1.446   .     S
C937   O1057   1.290   .     S
C938   O988    1.291   .     A
C938   C947    1.446   .     S
C939   C941    1.389   .     A
C939   C968    1.413   .     A
C939   H977    1.078   .     S
C940   C942    1.389   .     A
C940   H978    1.078   .     S
C940   C967    1.413   .     A
C941   H971    1.083   .     S
C942   H972    1.083   .     S
C942   C318    1.393   1_556 S
C943   H979    1.085   .     S
C943   C948    1.399   .     A
C944   C947    1.399   .     A
C944   H980    1.085   .     S
C944   C1162   1.386   .     S
C945   O1001   1.381   .     S
C945   C1159   1.386   .     S
C945   C1019   1.414   .     S
C946   O1003   1.381   .     S
C948   C1018   1.414   .     S
C949   N984    1.371   .     A
C949   O1005   1.378   .     S
C949   C951    1.426   .     A
C950   N983    1.371   .     A
C950   O1007   1.378   .     S
C950   C952    1.426   .     A
C951   N983    1.364   .     A
C951   H981    1.082   .     S
C952   N984    1.364   .     A
C952   H982    1.082   .     S
C953   O991    1.292   .     A
C953   C955    1.472   .     S
C953   O1061   1.302   .     S
C954   C956    1.472   .     S
C954   O992    1.292   .     A
C955   C959    1.402   .     A
C955   C961    1.417   .     A
C956   C960    1.402   .     A
C956   C962    1.417   .     A
C957   C959    1.391   .     A
C957   C965    1.400   .     A
C957   H1047   1.081   .     S
C958   C960    1.391   .     A
C958   C966    1.400   .     A
C959   H1046   1.083   .     S
C961   C997    1.522   .     S
C961   C963    1.411   .     A
C962   C993    1.522   .     S
C962   C964    1.411   .     A
C963   C965    1.415   .     A
C963   C967    1.423   .     A
C964   C966    1.415   .     A
C964   C968    1.423   .     A
C965   C293    1.393   1_556 S
C967   C320    1.418   1_556 S
Cu969  O992    1.964   .     S
Cu969  O988    1.959   .     S
Cu969  O989    1.969   .     S
Cu969  N983    2.014   .     S
Cu969  O985    1.957   .     S
Cu970  O991    1.964   .     S
Cu970  O987    1.959   .     S
Cu970  O990    1.969   .     S
Cu970  O986    1.957   .     S
Cu970  N984    2.014   .     S
Cu970  Cu1041  2.681   .     S
H973   C1032   1.083   .     S
H976   C1030   1.081   .     S
O986   C1010   1.290   .     S
O990   C1026   1.302   .     S
C993   H994    1.110   .     S
C993   H995    1.108   .     S
C993   H996    1.111   .     S
C997   H998    1.108   .     S
C997   H1000   1.111   .     S
C997   H999    1.110   .     S
O1001  H1002   0.990   .     S
O1003  H1004   0.990   .     S
O1005  H1006   0.992   .     S
O1007  H1008   0.992   .     S
C1009  O1059   1.291   .     A
C1009  C1020   1.446   .     S
C1009  O913    1.290   1_655 S
C1010  O1060   1.291   .     A
C1010  C1019   1.446   .     S
C1011  C1013   1.389   .     A
C1011  C1040   1.413   .     A
C1011  H1049   1.078   .     S
C1012  C1014   1.389   .     A
C1012  H1050   1.078   .     S
C1012  C1039   1.413   .     A
C1013  H1043   1.083   .     S
C1014  H1044   1.083   .     S
C1014  C390    1.393   1_556 S
C1015  H1051   1.085   .     S
C1015  C1020   1.399   .     A
C1016  C1019   1.399   .     A
C1016  H1052   1.085   .     S
C1016  C1234   1.386   .     S
C1017  O1073   1.381   .     S
C1017  C1231   1.386   .     S
C1017  C875    1.414   1_655 S
C1018  O1075   1.381   .     S
C1020  C874    1.414   1_655 S
C1021  N1056   1.371   .     A
C1021  O1077   1.378   .     S
C1021  C1023   1.426   .     A
C1022  N1055   1.371   .     A
C1022  O1079   1.378   .     S
C1022  C1024   1.426   .     A
C1023  N1055   1.364   .     A
C1023  H1053   1.082   .     S
C1024  N1056   1.364   .     A
C1024  H1054   1.082   .     S
C1025  O1063   1.292   .     A
C1025  C1027   1.472   .     S
C1025  O917    1.302   1_655 S
C1026  C1028   1.472   .     S
C1026  O1064   1.292   .     A
C1027  C1031   1.402   .     A
C1027  C1033   1.417   .     A
C1028  C1032   1.402   .     A
C1028  C1034   1.417   .     A
C1029  C1031   1.391   .     A
C1029  C1037   1.400   .     A
C1029  H903    1.081   1_655 S
C1030  C1032   1.391   .     A
C1030  C1038   1.400   .     A
C1031  H902    1.083   1_655 S
C1033  C1069   1.522   .     S
C1033  C1035   1.411   .     A
C1034  C1065   1.522   .     S
C1034  C1036   1.411   .     A
C1035  C1037   1.415   .     A
C1035  C1039   1.423   .     A
C1036  C1038   1.415   .     A
C1036  C1040   1.423   .     A
C1037  C365    1.393   1_556 S
C1039  C392    1.418   1_556 S
Cu1041 O1064   1.964   .     S
Cu1041 O1060   1.959   .     S
Cu1041 O1061   1.969   .     S
Cu1041 N1055   2.014   .     S
Cu1041 O1057   1.957   .     S
Cu1042 O1063   1.964   .     S
Cu1042 O1059   1.959   .     S
Cu1042 O1062   1.969   .     S
Cu1042 O1058   1.957   .     S
Cu1042 N1056   2.014   .     S
Cu1042 Cu897   2.681   1_655 S
H1045  C888    1.083   1_655 S
H1048  C886    1.081   1_655 S
O1058  C866    1.290   1_655 S
O1062  C882    1.302   1_655 S
C1065  H1066   1.110   .     S
C1065  H1067   1.108   .     S
C1065  H1068   1.111   .     S
C1069  H1070   1.108   .     S
C1069  H1072   1.111   .     S
C1069  H1071   1.110   .     S
O1073  H1074   0.990   .     S
O1075  H1076   0.990   .     S
O1077  H1078   0.992   .     S
O1079  H1080   0.992   .     S
C1081  O1131   1.291   .     A
C1081  C1092   1.446   .     S
C1081  O1201   1.290   .     S
C1082  O1132   1.291   .     A
C1082  C1091   1.446   .     S
C1082  O1274   1.290   1_455 S
C1083  C1085   1.389   .     A
C1083  C1112   1.413   .     A
C1083  H1121   1.078   .     S
C1084  C1086   1.389   .     A
C1084  H1122   1.078   .     S
C1084  C1111   1.413   .     A
C1085  H1115   1.083   .     S
C1086  H1116   1.083   .     S
C1086  C462    1.393   1_556 S
C1087  H1123   1.085   .     S
C1087  C1092   1.399   .     A
C1088  C1091   1.399   .     A
C1088  H1124   1.085   .     S
C1088  C658    1.386   1_565 S
C1089  O1145   1.381   .     S
C1089  C655    1.386   1_565 S
C1089  C1163   1.414   .     S
C1090  O1147   1.381   .     S
C1090  C1236   1.414   1_455 S
C1091  C1233   1.414   1_455 S
C1092  C1162   1.414   .     S
C1093  N1128   1.371   .     A
C1093  O1149   1.378   .     S
C1093  C1095   1.426   .     A
C1094  N1127   1.371   .     A
C1094  O1151   1.378   .     S
C1094  C1096   1.426   .     A
C1095  N1127   1.364   .     A
C1095  H1125   1.082   .     S
C1096  N1128   1.364   .     A
C1096  H1126   1.082   .     S
C1097  O1135   1.292   .     A
C1097  C1099   1.472   .     S
C1097  O1205   1.302   .     S
C1098  C1100   1.472   .     S
C1098  O1136   1.292   .     A
C1098  O1278   1.302   1_455 S
C1099  C1103   1.402   .     A
C1099  C1105   1.417   .     A
C1100  C1104   1.402   .     A
C1100  C1106   1.417   .     A
C1101  C1103   1.391   .     A
C1101  C1109   1.400   .     A
C1101  H1191   1.081   .     S
C1102  C1104   1.391   .     A
C1102  C1110   1.400   .     A
C1102  H1264   1.081   1_455 S
C1103  H1190   1.083   .     S
C1104  H1261   1.083   1_455 S
C1105  C1141   1.522   .     S
C1105  C1107   1.411   .     A
C1106  C1137   1.522   .     S
C1106  C1108   1.411   .     A
C1107  C1109   1.415   .     A
C1107  C1111   1.423   .     A
C1108  C1110   1.415   .     A
C1108  C1112   1.423   .     A
C1109  C437    1.393   1_556 S
C1111  C464    1.418   1_556 S
Cu1113 O1136   1.964   .     S
Cu1113 O1132   1.959   .     S
Cu1113 O1133   1.969   .     S
Cu1113 N1127   2.014   .     S
Cu1113 O1129   1.957   .     S
Cu1113 Cu1258  2.681   1_455 S
Cu1114 O1135   1.964   .     S
Cu1114 O1131   1.959   .     S
Cu1114 O1134   1.969   .     S
Cu1114 O1130   1.957   .     S
Cu1114 N1128   2.014   .     S
Cu1114 Cu1185  2.681   .     S
H1117  C1176   1.083   .     S
H1118  C1247   1.083   1_455 S
H1119  C1245   1.081   1_455 S
H1120  C1174   1.081   .     S
O1129  C1225   1.290   1_455 S
O1130  C1154   1.290   .     S
O1133  C1241   1.302   1_455 S
O1134  C1170   1.302   .     S
C1137  H1138   1.110   .     S
C1137  H1139   1.108   .     S
C1137  H1140   1.111   .     S
C1141  H1142   1.108   .     S
C1141  H1144   1.111   .     S
C1141  H1143   1.110   .     S
O1145  H1146   0.990   .     S
O1147  H1148   0.990   .     S
O1149  H1150   0.992   .     S
O1151  H1152   0.992   .     S
C1153  O1203   1.291   .     A
C1153  C1164   1.446   .     S
C1153  O1273   1.290   .     S
C1154  O1204   1.291   .     A
C1154  C1163   1.446   .     S
C1155  C1157   1.389   .     A
C1155  C1184   1.413   .     A
C1155  H1193   1.078   .     S
C1156  C1158   1.389   .     A
C1156  H1194   1.078   .     S
C1156  C1183   1.413   .     A
C1157  H1187   1.083   .     S
C1158  H1188   1.083   .     S
C1158  C534    1.393   1_556 S
C1159  H1195   1.085   .     S
C1159  C1164   1.399   .     A
C1160  C1163   1.399   .     A
C1160  H1196   1.085   .     S
C1160  C730    1.386   1_565 S
C1161  O1217   1.381   .     S
C1161  C727    1.386   1_565 S
C1161  C1235   1.414   .     S
C1162  O1219   1.381   .     S
C1164  C1234   1.414   .     S
C1165  N1200   1.371   .     A
C1165  O1221   1.378   .     S
C1165  C1167   1.426   .     A
C1166  N1199   1.371   .     A
C1166  O1223   1.378   .     S
C1166  C1168   1.426   .     A
C1167  N1199   1.364   .     A
C1167  H1197   1.082   .     S
C1168  N1200   1.364   .     A
C1168  H1198   1.082   .     S
C1169  O1207   1.292   .     A
C1169  C1171   1.472   .     S
C1169  O1277   1.302   .     S
C1170  C1172   1.472   .     S
C1170  O1208   1.292   .     A
C1171  C1175   1.402   .     A
C1171  C1177   1.417   .     A
C1172  C1176   1.402   .     A
C1172  C1178   1.417   .     A
C1173  C1175   1.391   .     A
C1173  C1181   1.400   .     A
C1173  H1263   1.081   .     S
C1174  C1176   1.391   .     A
C1174  C1182   1.400   .     A
C1175  H1262   1.083   .     S
C1177  C1213   1.522   .     S
C1177  C1179   1.411   .     A
C1178  C1209   1.522   .     S
C1178  C1180   1.411   .     A
C1179  C1181   1.415   .     A
C1179  C1183   1.423   .     A
C1180  C1182   1.415   .     A
C1180  C1184   1.423   .     A
C1181  C509    1.393   1_556 S
C1183  C536    1.418   1_556 S
Cu1185 O1208   1.964   .     S
Cu1185 O1204   1.959   .     S
Cu1185 O1205   1.969   .     S
Cu1185 N1199   2.014   .     S
Cu1185 O1201   1.957   .     S
Cu1186 O1207   1.964   .     S
Cu1186 O1203   1.959   .     S
Cu1186 O1206   1.969   .     S
Cu1186 O1202   1.957   .     S
Cu1186 N1200   2.014   .     S
Cu1186 Cu1257  2.681   .     S
H1189  C1248   1.083   .     S
H1192  C1246   1.081   .     S
O1202  C1226   1.290   .     S
O1206  C1242   1.302   .     S
C1209  H1210   1.110   .     S
C1209  H1211   1.108   .     S
C1209  H1212   1.111   .     S
C1213  H1214   1.108   .     S
C1213  H1216   1.111   .     S
C1213  H1215   1.110   .     S
O1217  H1218   0.990   .     S
O1219  H1220   0.990   .     S
O1221  H1222   0.992   .     S
O1223  H1224   0.992   .     S
C1225  O1275   1.291   .     A
C1225  C1236   1.446   .     S
C1225  O1129   1.290   1_655 S
C1226  O1276   1.291   .     A
C1226  C1235   1.446   .     S
C1227  C1229   1.389   .     A
C1227  C1256   1.413   .     A
C1227  H1265   1.078   .     S
C1228  C1230   1.389   .     A
C1228  H1266   1.078   .     S
C1228  C1255   1.413   .     A
C1229  H1259   1.083   .     S
C1230  H1260   1.083   .     S
C1230  C606    1.393   1_556 S
C1231  H1267   1.085   .     S
C1231  C1236   1.399   .     A
C1232  C1235   1.399   .     A
C1232  H1268   1.085   .     S
C1232  C802    1.386   1_565 S
C1233  O1289   1.381   .     S
C1233  C799    1.386   1_565 S
C1233  C1091   1.414   1_655 S
C1234  O1291   1.381   .     S
C1236  C1090   1.414   1_655 S
C1237  N1272   1.371   .     A
C1237  O1293   1.378   .     S
C1237  C1239   1.426   .     A
C1238  N1271   1.371   .     A
C1238  O1295   1.378   .     S
C1238  C1240   1.426   .     A
C1239  N1271   1.364   .     A
C1239  H1269   1.082   .     S
C1240  N1272   1.364   .     A
C1240  H1270   1.082   .     S
C1241  O1279   1.292   .     A
C1241  C1243   1.472   .     S
C1241  O1133   1.302   1_655 S
C1242  C1244   1.472   .     S
C1242  O1280   1.292   .     A
C1243  C1247   1.402   .     A
C1243  C1249   1.417   .     A
C1244  C1248   1.402   .     A
C1244  C1250   1.417   .     A
C1245  C1247   1.391   .     A
C1245  C1253   1.400   .     A
C1245  H1119   1.081   1_655 S
C1246  C1248   1.391   .     A
C1246  C1254   1.400   .     A
C1247  H1118   1.083   1_655 S
C1249  C1285   1.522   .     S
C1249  C1251   1.411   .     A
C1250  C1281   1.522   .     S
C1250  C1252   1.411   .     A
C1251  C1253   1.415   .     A
C1251  C1255   1.423   .     A
C1252  C1254   1.415   .     A
C1252  C1256   1.423   .     A
C1253  C581    1.393   1_556 S
C1255  C608    1.418   1_556 S
Cu1257 O1280   1.964   .     S
Cu1257 O1276   1.959   .     S
Cu1257 O1277   1.969   .     S
Cu1257 N1271   2.014   .     S
Cu1257 O1273   1.957   .     S
Cu1258 O1279   1.964   .     S
Cu1258 O1275   1.959   .     S
Cu1258 O1278   1.969   .     S
Cu1258 O1274   1.957   .     S
Cu1258 N1272   2.014   .     S
Cu1258 Cu1113  2.681   1_655 S
H1261  C1104   1.083   1_655 S
H1264  C1102   1.081   1_655 S
O1274  C1082   1.290   1_655 S
O1278  C1098   1.302   1_655 S
C1281  H1282   1.110   .     S
C1281  H1283   1.108   .     S
C1281  H1284   1.111   .     S
C1285  H1286   1.108   .     S
C1285  H1288   1.111   .     S
C1285  H1287   1.110   .     S
O1289  H1290   0.990   .     S
O1291  H1292   0.990   .     S
O1293  H1294   0.992   .     S
O1295  H1296   0.992   .     S
