data_str_m2_o10_o16_pcu_sym.186
_audit_creation_date              2020-01-03
_audit_creation_method            'Materials Studio'
_symmetry_space_group_name_H-M    'P1'
_symmetry_Int_Tables_number       1
_symmetry_cell_setting            triclinic
loop_
_symmetry_equiv_pos_as_xyz
  x,y,z
_cell_length_a                    22.4816
_cell_length_b                    26.0938
_cell_length_c                    26.6556
_cell_angle_alpha                 94.8211
_cell_angle_beta                  78.3576
_cell_angle_gamma                 102.6643
loop_
_atom_site_label
_atom_site_type_symbol
_atom_site_fract_x
_atom_site_fract_y
_atom_site_fract_z
_atom_site_U_iso_or_equiv
_atom_site_adp_type
_atom_site_occupancy
C1     C     0.18257   0.26623   0.24814   0.00000  Uiso   1.00
C2     C     0.14263   0.17353   0.48791   0.00000  Uiso   1.00
C3     C     0.15548   0.18917   0.43671   0.00000  Uiso   1.00
C4     C     0.18836   0.19042   0.01824   0.00000  Uiso   1.00
C5     C     0.24984   0.21217   0.49535   0.00000  Uiso   1.00
C6     C     0.25890   0.23535   0.44797   0.00000  Uiso   1.00
C7     C     0.20980   0.22792   0.42132   0.00000  Uiso   1.00
C8     C     0.17425   0.18979   0.07139   0.00000  Uiso   1.00
C9     C     0.28137   0.18914   0.07128   0.00000  Uiso   1.00
C10    C     0.11424   0.16523   0.40337   0.00000  Uiso   1.00
C11    C     0.19329   0.32088   0.23899   0.00000  Uiso   1.00
C12    C     0.13377   0.16611   0.34720   0.00000  Uiso   1.00
C13    C     0.14472   0.01108   0.24938   0.00000  Uiso   1.00
C14    C     0.15245   0.06672   0.24730   0.00000  Uiso   1.00
C15    C     0.20005   0.17161   0.15294   0.00000  Uiso   1.00
C16    C     0.29777   0.21220   0.02304   0.00000  Uiso   1.00
C17    C     0.21905   0.18143   0.09760   0.00000  Uiso   1.00
C18    C     0.05792   0.13164   0.42336   0.00000  Uiso   1.00
C19    C     0.04442   0.11838   0.47450   0.00000  Uiso   1.00
C20    C     0.08695   0.13812   0.00633   0.00000  Uiso   1.00
Cu21   Cu    0.10710   0.16105   0.24436   0.00000  Uiso   1.00
Cu22   Cu    0.22623   0.17228   0.25565   0.00000  Uiso   1.00
H23    H     0.09803   0.32258   0.26365   0.00000  Uiso   1.00
H24    H     0.33280   0.13265   0.20565   0.00000  Uiso   1.00
H25    H     0.30124   0.26287   0.43358   0.00000  Uiso   1.00
H26    H     0.02582   0.11305   0.39867   0.00000  Uiso   1.00
H27    H     0.07703   0.12436   0.04493   0.00000  Uiso   1.00
H28    H     0.00174   0.09120   0.48909   0.00000  Uiso   1.00
N29    N     0.31574   0.18074   0.26416   0.00000  Uiso   1.00
N30    N     0.01759   0.15259   0.23584   0.00000  Uiso   1.00
O31    O     0.12797   0.23807   0.24633   0.00000  Uiso   1.00
O32    O     0.22858   0.24755   0.25587   0.00000  Uiso   1.00
O33    O     0.09181   0.15960   0.31840   0.00000  Uiso   1.00
O34    O     0.19242   0.16908   0.32793   0.00000  Uiso   1.00
O35    O     0.10476   0.08578   0.24414   0.00000  Uiso   1.00
O36    O     0.20536   0.09526   0.25367   0.00000  Uiso   1.00
O37    O     0.14092   0.16425   0.17207   0.00000  Uiso   1.00
O38    O     0.24152   0.17373   0.18161   0.00000  Uiso   1.00
O39    O     0.32695   0.17613   0.09195   0.00000  Uiso   1.00
H40    H     0.30886   0.14322   0.11039   0.00000  Uiso   1.00
O41    O     0.00674   0.20982   0.30174   0.00000  Uiso   1.00
H42    H     0.30677   0.22722   0.32043   0.00000  Uiso   1.00
O43    O     0.02667   0.23105   0.00424   0.00000  Uiso   1.00
H44    H     0.03341   0.23615   0.46710   0.00000  Uiso   1.00
I45    I     0.11817   0.24440   0.10583   0.00000  Uiso   1.00
I46    I     0.21086   0.28982   0.37430   0.00000  Uiso   1.00
I47    I     0.28485   0.02040   0.20002   0.00000  Uiso   1.00
C48    C     0.51590   0.26623   0.24814   0.00000  Uiso   1.00
C49    C     0.47596   0.17353   0.48791   0.00000  Uiso   1.00
C50    C     0.48882   0.18917   0.43671   0.00000  Uiso   1.00
C51    C     0.52169   0.19042   0.01824   0.00000  Uiso   1.00
C52    C     0.58317   0.21217   0.49535   0.00000  Uiso   1.00
C53    C     0.59223   0.23535   0.44797   0.00000  Uiso   1.00
C54    C     0.54313   0.22792   0.42132   0.00000  Uiso   1.00
C55    C     0.50758   0.18979   0.07139   0.00000  Uiso   1.00
C56    C     0.61470   0.18914   0.07128   0.00000  Uiso   1.00
C57    C     0.44757   0.16523   0.40337   0.00000  Uiso   1.00
C58    C     0.52663   0.32088   0.23899   0.00000  Uiso   1.00
C59    C     0.46711   0.16611   0.34720   0.00000  Uiso   1.00
C60    C     0.47805   0.01108   0.24938   0.00000  Uiso   1.00
C61    C     0.48578   0.06672   0.24730   0.00000  Uiso   1.00
C62    C     0.53338   0.17161   0.15294   0.00000  Uiso   1.00
C63    C     0.63110   0.21220   0.02304   0.00000  Uiso   1.00
C64    C     0.55238   0.18143   0.09760   0.00000  Uiso   1.00
C65    C     0.39125   0.13164   0.42336   0.00000  Uiso   1.00
C66    C     0.37775   0.11838   0.47450   0.00000  Uiso   1.00
C67    C     0.42029   0.13812   0.00633   0.00000  Uiso   1.00
Cu68   Cu    0.44043   0.16105   0.24436   0.00000  Uiso   1.00
Cu69   Cu    0.55957   0.17228   0.25565   0.00000  Uiso   1.00
H70    H     0.43136   0.32258   0.26365   0.00000  Uiso   1.00
H71    H     0.66613   0.13265   0.20565   0.00000  Uiso   1.00
H72    H     0.63457   0.26287   0.43358   0.00000  Uiso   1.00
H73    H     0.35916   0.11305   0.39867   0.00000  Uiso   1.00
H74    H     0.41036   0.12436   0.04493   0.00000  Uiso   1.00
H75    H     0.33508   0.09120   0.48909   0.00000  Uiso   1.00
N76    N     0.64908   0.18074   0.26416   0.00000  Uiso   1.00
N77    N     0.35092   0.15259   0.23584   0.00000  Uiso   1.00
O78    O     0.46131   0.23807   0.24633   0.00000  Uiso   1.00
O79    O     0.56191   0.24755   0.25587   0.00000  Uiso   1.00
O80    O     0.42515   0.15960   0.31840   0.00000  Uiso   1.00
O81    O     0.52575   0.16908   0.32793   0.00000  Uiso   1.00
O82    O     0.43809   0.08578   0.24414   0.00000  Uiso   1.00
O83    O     0.53869   0.09526   0.25367   0.00000  Uiso   1.00
O84    O     0.47425   0.16425   0.17207   0.00000  Uiso   1.00
O85    O     0.57485   0.17373   0.18161   0.00000  Uiso   1.00
O86    O     0.66029   0.17613   0.09195   0.00000  Uiso   1.00
H87    H     0.64219   0.14322   0.11039   0.00000  Uiso   1.00
O88    O     0.34007   0.20982   0.30174   0.00000  Uiso   1.00
H89    H     0.64010   0.22722   0.32043   0.00000  Uiso   1.00
O90    O     0.36000   0.23105   0.00424   0.00000  Uiso   1.00
H91    H     0.36675   0.23615   0.46710   0.00000  Uiso   1.00
I92    I     0.45151   0.24440   0.10583   0.00000  Uiso   1.00
I93    I     0.54419   0.28982   0.37430   0.00000  Uiso   1.00
I94    I     0.61818   0.02040   0.20002   0.00000  Uiso   1.00
C95    C     0.84923   0.26623   0.24814   0.00000  Uiso   1.00
C96    C     0.80929   0.17353   0.48791   0.00000  Uiso   1.00
C97    C     0.82215   0.18917   0.43671   0.00000  Uiso   1.00
C98    C     0.85502   0.19042   0.01824   0.00000  Uiso   1.00
C99    C     0.91650   0.21217   0.49535   0.00000  Uiso   1.00
C100   C     0.92556   0.23535   0.44797   0.00000  Uiso   1.00
C101   C     0.87646   0.22792   0.42132   0.00000  Uiso   1.00
C102   C     0.84092   0.18979   0.07139   0.00000  Uiso   1.00
C103   C     0.94804   0.18914   0.07128   0.00000  Uiso   1.00
C104   C     0.78091   0.16523   0.40337   0.00000  Uiso   1.00
C105   C     0.85996   0.32088   0.23899   0.00000  Uiso   1.00
C106   C     0.80044   0.16611   0.34720   0.00000  Uiso   1.00
C107   C     0.81138   0.01108   0.24938   0.00000  Uiso   1.00
C108   C     0.81911   0.06672   0.24730   0.00000  Uiso   1.00
C109   C     0.86672   0.17161   0.15294   0.00000  Uiso   1.00
C110   C     0.96444   0.21220   0.02304   0.00000  Uiso   1.00
C111   C     0.88572   0.18143   0.09760   0.00000  Uiso   1.00
C112   C     0.72459   0.13164   0.42336   0.00000  Uiso   1.00
C113   C     0.71108   0.11838   0.47450   0.00000  Uiso   1.00
C114   C     0.75362   0.13812   0.00633   0.00000  Uiso   1.00
Cu115  Cu    0.77377   0.16105   0.24436   0.00000  Uiso   1.00
Cu116  Cu    0.89290   0.17228   0.25565   0.00000  Uiso   1.00
H117   H     0.76470   0.32258   0.26365   0.00000  Uiso   1.00
H118   H     0.99946   0.13265   0.20565   0.00000  Uiso   1.00
H119   H     0.96790   0.26287   0.43358   0.00000  Uiso   1.00
H120   H     0.69249   0.11305   0.39867   0.00000  Uiso   1.00
H121   H     0.74369   0.12436   0.04493   0.00000  Uiso   1.00
H122   H     0.66841   0.09120   0.48909   0.00000  Uiso   1.00
N123   N     0.98241   0.18074   0.26416   0.00000  Uiso   1.00
N124   N     0.68426   0.15259   0.23584   0.00000  Uiso   1.00
O125   O     0.79464   0.23807   0.24633   0.00000  Uiso   1.00
O126   O     0.89524   0.24755   0.25587   0.00000  Uiso   1.00
O127   O     0.75848   0.15960   0.31840   0.00000  Uiso   1.00
O128   O     0.85908   0.16908   0.32793   0.00000  Uiso   1.00
O129   O     0.77142   0.08578   0.24414   0.00000  Uiso   1.00
O130   O     0.87203   0.09526   0.25367   0.00000  Uiso   1.00
O131   O     0.80758   0.16425   0.17207   0.00000  Uiso   1.00
O132   O     0.90819   0.17373   0.18161   0.00000  Uiso   1.00
O133   O     0.99362   0.17613   0.09195   0.00000  Uiso   1.00
H134   H     0.97552   0.14322   0.11039   0.00000  Uiso   1.00
O135   O     0.67340   0.20982   0.30174   0.00000  Uiso   1.00
H136   H     0.97344   0.22722   0.32043   0.00000  Uiso   1.00
O137   O     0.69334   0.23105   0.00424   0.00000  Uiso   1.00
H138   H     0.70008   0.23615   0.46710   0.00000  Uiso   1.00
I139   I     0.78484   0.24440   0.10583   0.00000  Uiso   1.00
I140   I     0.87753   0.28982   0.37430   0.00000  Uiso   1.00
I141   I     0.95151   0.02040   0.20002   0.00000  Uiso   1.00
C142   C     0.18257   0.59957   0.24814   0.00000  Uiso   1.00
C143   C     0.14263   0.50686   0.48791   0.00000  Uiso   1.00
C144   C     0.15548   0.52251   0.43671   0.00000  Uiso   1.00
C145   C     0.18836   0.52375   0.01824   0.00000  Uiso   1.00
C146   C     0.24984   0.54551   0.49535   0.00000  Uiso   1.00
C147   C     0.25890   0.56868   0.44797   0.00000  Uiso   1.00
C148   C     0.20980   0.56126   0.42132   0.00000  Uiso   1.00
C149   C     0.17425   0.52312   0.07139   0.00000  Uiso   1.00
C150   C     0.28137   0.52247   0.07128   0.00000  Uiso   1.00
C151   C     0.11424   0.49857   0.40337   0.00000  Uiso   1.00
C152   C     0.19329   0.65422   0.23899   0.00000  Uiso   1.00
C153   C     0.13377   0.49944   0.34720   0.00000  Uiso   1.00
C154   C     0.14472   0.34441   0.24938   0.00000  Uiso   1.00
C155   C     0.15245   0.40006   0.24730   0.00000  Uiso   1.00
C156   C     0.20005   0.50495   0.15294   0.00000  Uiso   1.00
C157   C     0.29777   0.54553   0.02304   0.00000  Uiso   1.00
C158   C     0.21905   0.51477   0.09760   0.00000  Uiso   1.00
C159   C     0.05792   0.46498   0.42336   0.00000  Uiso   1.00
C160   C     0.04442   0.45171   0.47450   0.00000  Uiso   1.00
C161   C     0.08695   0.47145   0.00633   0.00000  Uiso   1.00
Cu162  Cu    0.10710   0.49439   0.24436   0.00000  Uiso   1.00
Cu163  Cu    0.22623   0.50561   0.25565   0.00000  Uiso   1.00
H164   H     0.09803   0.65592   0.26365   0.00000  Uiso   1.00
H165   H     0.33280   0.46598   0.20565   0.00000  Uiso   1.00
H166   H     0.30124   0.59620   0.43358   0.00000  Uiso   1.00
H167   H     0.02582   0.44638   0.39867   0.00000  Uiso   1.00
H168   H     0.07703   0.45770   0.04493   0.00000  Uiso   1.00
H169   H     0.00174   0.42453   0.48909   0.00000  Uiso   1.00
N170   N     0.31574   0.51407   0.26416   0.00000  Uiso   1.00
N171   N     0.01759   0.48593   0.23584   0.00000  Uiso   1.00
O172   O     0.12797   0.57141   0.24633   0.00000  Uiso   1.00
O173   O     0.22858   0.58089   0.25587   0.00000  Uiso   1.00
O174   O     0.09181   0.49293   0.31840   0.00000  Uiso   1.00
O175   O     0.19242   0.50241   0.32793   0.00000  Uiso   1.00
O176   O     0.10476   0.41911   0.24414   0.00000  Uiso   1.00
O177   O     0.20536   0.42859   0.25367   0.00000  Uiso   1.00
O178   O     0.14092   0.49759   0.17207   0.00000  Uiso   1.00
O179   O     0.24152   0.50707   0.18161   0.00000  Uiso   1.00
O180   O     0.32695   0.50947   0.09195   0.00000  Uiso   1.00
H181   H     0.30886   0.47656   0.11039   0.00000  Uiso   1.00
O182   O     0.00674   0.54315   0.30174   0.00000  Uiso   1.00
H183   H     0.30677   0.56055   0.32043   0.00000  Uiso   1.00
O184   O     0.02667   0.56438   0.00424   0.00000  Uiso   1.00
H185   H     0.03341   0.56948   0.46710   0.00000  Uiso   1.00
I186   I     0.11817   0.57773   0.10583   0.00000  Uiso   1.00
I187   I     0.21086   0.62315   0.37430   0.00000  Uiso   1.00
I188   I     0.28485   0.35374   0.20002   0.00000  Uiso   1.00
C189   C     0.51590   0.59957   0.24814   0.00000  Uiso   1.00
C190   C     0.47596   0.50686   0.48791   0.00000  Uiso   1.00
C191   C     0.48882   0.52251   0.43671   0.00000  Uiso   1.00
C192   C     0.52169   0.52375   0.01824   0.00000  Uiso   1.00
C193   C     0.58317   0.54551   0.49535   0.00000  Uiso   1.00
C194   C     0.59223   0.56868   0.44797   0.00000  Uiso   1.00
C195   C     0.54313   0.56126   0.42132   0.00000  Uiso   1.00
C196   C     0.50758   0.52312   0.07139   0.00000  Uiso   1.00
C197   C     0.61470   0.52247   0.07128   0.00000  Uiso   1.00
C198   C     0.44757   0.49857   0.40337   0.00000  Uiso   1.00
C199   C     0.52663   0.65422   0.23899   0.00000  Uiso   1.00
C200   C     0.46711   0.49944   0.34720   0.00000  Uiso   1.00
C201   C     0.47805   0.34441   0.24938   0.00000  Uiso   1.00
C202   C     0.48578   0.40006   0.24730   0.00000  Uiso   1.00
C203   C     0.53338   0.50495   0.15294   0.00000  Uiso   1.00
C204   C     0.63110   0.54553   0.02304   0.00000  Uiso   1.00
C205   C     0.55238   0.51477   0.09760   0.00000  Uiso   1.00
C206   C     0.39125   0.46498   0.42336   0.00000  Uiso   1.00
C207   C     0.37775   0.45171   0.47450   0.00000  Uiso   1.00
C208   C     0.42029   0.47145   0.00633   0.00000  Uiso   1.00
Cu209  Cu    0.44043   0.49439   0.24436   0.00000  Uiso   1.00
Cu210  Cu    0.55957   0.50561   0.25565   0.00000  Uiso   1.00
H211   H     0.43136   0.65592   0.26365   0.00000  Uiso   1.00
H212   H     0.66613   0.46598   0.20565   0.00000  Uiso   1.00
H213   H     0.63457   0.59620   0.43358   0.00000  Uiso   1.00
H214   H     0.35916   0.44638   0.39867   0.00000  Uiso   1.00
H215   H     0.41036   0.45770   0.04493   0.00000  Uiso   1.00
H216   H     0.33508   0.42453   0.48909   0.00000  Uiso   1.00
N217   N     0.64908   0.51407   0.26416   0.00000  Uiso   1.00
N218   N     0.35092   0.48593   0.23584   0.00000  Uiso   1.00
O219   O     0.46131   0.57141   0.24633   0.00000  Uiso   1.00
O220   O     0.56191   0.58089   0.25587   0.00000  Uiso   1.00
O221   O     0.42515   0.49293   0.31840   0.00000  Uiso   1.00
O222   O     0.52575   0.50241   0.32793   0.00000  Uiso   1.00
O223   O     0.43809   0.41911   0.24414   0.00000  Uiso   1.00
O224   O     0.53869   0.42859   0.25367   0.00000  Uiso   1.00
O225   O     0.47425   0.49759   0.17207   0.00000  Uiso   1.00
O226   O     0.57485   0.50707   0.18161   0.00000  Uiso   1.00
O227   O     0.66029   0.50947   0.09195   0.00000  Uiso   1.00
H228   H     0.64219   0.47656   0.11039   0.00000  Uiso   1.00
O229   O     0.34007   0.54315   0.30174   0.00000  Uiso   1.00
H230   H     0.64010   0.56055   0.32043   0.00000  Uiso   1.00
O231   O     0.36000   0.56438   0.00424   0.00000  Uiso   1.00
H232   H     0.36675   0.56948   0.46710   0.00000  Uiso   1.00
I233   I     0.45151   0.57773   0.10583   0.00000  Uiso   1.00
I234   I     0.54419   0.62315   0.37430   0.00000  Uiso   1.00
I235   I     0.61818   0.35374   0.20002   0.00000  Uiso   1.00
C236   C     0.84923   0.59957   0.24814   0.00000  Uiso   1.00
C237   C     0.80929   0.50686   0.48791   0.00000  Uiso   1.00
C238   C     0.82215   0.52251   0.43671   0.00000  Uiso   1.00
C239   C     0.85502   0.52375   0.01824   0.00000  Uiso   1.00
C240   C     0.91650   0.54551   0.49535   0.00000  Uiso   1.00
C241   C     0.92556   0.56868   0.44797   0.00000  Uiso   1.00
C242   C     0.87646   0.56126   0.42132   0.00000  Uiso   1.00
C243   C     0.84092   0.52312   0.07139   0.00000  Uiso   1.00
C244   C     0.94804   0.52247   0.07128   0.00000  Uiso   1.00
C245   C     0.78091   0.49857   0.40337   0.00000  Uiso   1.00
C246   C     0.85996   0.65422   0.23899   0.00000  Uiso   1.00
C247   C     0.80044   0.49944   0.34720   0.00000  Uiso   1.00
C248   C     0.81138   0.34441   0.24938   0.00000  Uiso   1.00
C249   C     0.81911   0.40006   0.24730   0.00000  Uiso   1.00
C250   C     0.86672   0.50495   0.15294   0.00000  Uiso   1.00
C251   C     0.96444   0.54553   0.02304   0.00000  Uiso   1.00
C252   C     0.88572   0.51477   0.09760   0.00000  Uiso   1.00
C253   C     0.72459   0.46498   0.42336   0.00000  Uiso   1.00
C254   C     0.71108   0.45171   0.47450   0.00000  Uiso   1.00
C255   C     0.75362   0.47145   0.00633   0.00000  Uiso   1.00
Cu256  Cu    0.77377   0.49439   0.24436   0.00000  Uiso   1.00
Cu257  Cu    0.89290   0.50561   0.25565   0.00000  Uiso   1.00
H258   H     0.76470   0.65592   0.26365   0.00000  Uiso   1.00
H259   H     0.99946   0.46598   0.20565   0.00000  Uiso   1.00
H260   H     0.96790   0.59620   0.43358   0.00000  Uiso   1.00
H261   H     0.69249   0.44638   0.39867   0.00000  Uiso   1.00
H262   H     0.74369   0.45770   0.04493   0.00000  Uiso   1.00
H263   H     0.66841   0.42453   0.48909   0.00000  Uiso   1.00
N264   N     0.98241   0.51407   0.26416   0.00000  Uiso   1.00
N265   N     0.68426   0.48593   0.23584   0.00000  Uiso   1.00
O266   O     0.79464   0.57141   0.24633   0.00000  Uiso   1.00
O267   O     0.89524   0.58089   0.25587   0.00000  Uiso   1.00
O268   O     0.75848   0.49293   0.31840   0.00000  Uiso   1.00
O269   O     0.85908   0.50241   0.32793   0.00000  Uiso   1.00
O270   O     0.77142   0.41911   0.24414   0.00000  Uiso   1.00
O271   O     0.87203   0.42859   0.25367   0.00000  Uiso   1.00
O272   O     0.80758   0.49759   0.17207   0.00000  Uiso   1.00
O273   O     0.90819   0.50707   0.18161   0.00000  Uiso   1.00
O274   O     0.99362   0.50947   0.09195   0.00000  Uiso   1.00
H275   H     0.97552   0.47656   0.11039   0.00000  Uiso   1.00
O276   O     0.67340   0.54315   0.30174   0.00000  Uiso   1.00
H277   H     0.97344   0.56055   0.32043   0.00000  Uiso   1.00
O278   O     0.69334   0.56438   0.00424   0.00000  Uiso   1.00
H279   H     0.70008   0.56948   0.46710   0.00000  Uiso   1.00
I280   I     0.78484   0.57773   0.10583   0.00000  Uiso   1.00
I281   I     0.87753   0.62315   0.37430   0.00000  Uiso   1.00
I282   I     0.95151   0.35374   0.20002   0.00000  Uiso   1.00
C283   C     0.18257   0.93290   0.24814   0.00000  Uiso   1.00
C284   C     0.14263   0.84019   0.48791   0.00000  Uiso   1.00
C285   C     0.15548   0.85584   0.43671   0.00000  Uiso   1.00
C286   C     0.18836   0.85709   0.01824   0.00000  Uiso   1.00
C287   C     0.24984   0.87884   0.49535   0.00000  Uiso   1.00
C288   C     0.25890   0.90201   0.44797   0.00000  Uiso   1.00
C289   C     0.20980   0.89459   0.42132   0.00000  Uiso   1.00
C290   C     0.17425   0.85645   0.07139   0.00000  Uiso   1.00
C291   C     0.28137   0.85580   0.07128   0.00000  Uiso   1.00
C292   C     0.11424   0.83190   0.40337   0.00000  Uiso   1.00
C293   C     0.19329   0.98755   0.23899   0.00000  Uiso   1.00
C294   C     0.13377   0.83277   0.34720   0.00000  Uiso   1.00
C295   C     0.14472   0.67775   0.24938   0.00000  Uiso   1.00
C296   C     0.15245   0.73339   0.24730   0.00000  Uiso   1.00
C297   C     0.20005   0.83828   0.15294   0.00000  Uiso   1.00
C298   C     0.29777   0.87887   0.02304   0.00000  Uiso   1.00
C299   C     0.21905   0.84810   0.09760   0.00000  Uiso   1.00
C300   C     0.05792   0.79831   0.42336   0.00000  Uiso   1.00
C301   C     0.04442   0.78505   0.47450   0.00000  Uiso   1.00
C302   C     0.08695   0.80479   0.00633   0.00000  Uiso   1.00
Cu303  Cu    0.10710   0.82772   0.24436   0.00000  Uiso   1.00
Cu304  Cu    0.22623   0.83895   0.25565   0.00000  Uiso   1.00
H305   H     0.09803   0.98925   0.26365   0.00000  Uiso   1.00
H306   H     0.33280   0.79932   0.20565   0.00000  Uiso   1.00
H307   H     0.30124   0.92953   0.43358   0.00000  Uiso   1.00
H308   H     0.02582   0.77972   0.39867   0.00000  Uiso   1.00
H309   H     0.07703   0.79103   0.04493   0.00000  Uiso   1.00
H310   H     0.00174   0.75787   0.48909   0.00000  Uiso   1.00
N311   N     0.31574   0.84741   0.26416   0.00000  Uiso   1.00
N312   N     0.01759   0.81926   0.23584   0.00000  Uiso   1.00
O313   O     0.12797   0.90474   0.24633   0.00000  Uiso   1.00
O314   O     0.22858   0.91422   0.25587   0.00000  Uiso   1.00
O315   O     0.09181   0.82627   0.31840   0.00000  Uiso   1.00
O316   O     0.19242   0.83575   0.32793   0.00000  Uiso   1.00
O317   O     0.10476   0.75245   0.24414   0.00000  Uiso   1.00
O318   O     0.20536   0.76193   0.25367   0.00000  Uiso   1.00
O319   O     0.14092   0.83092   0.17207   0.00000  Uiso   1.00
O320   O     0.24152   0.84040   0.18161   0.00000  Uiso   1.00
O321   O     0.32695   0.84280   0.09195   0.00000  Uiso   1.00
H322   H     0.30886   0.80989   0.11039   0.00000  Uiso   1.00
O323   O     0.00674   0.87648   0.30174   0.00000  Uiso   1.00
H324   H     0.30677   0.89388   0.32043   0.00000  Uiso   1.00
O325   O     0.02667   0.89772   0.00424   0.00000  Uiso   1.00
H326   H     0.03341   0.90282   0.46710   0.00000  Uiso   1.00
I327   I     0.11817   0.91106   0.10583   0.00000  Uiso   1.00
I328   I     0.21086   0.95649   0.37430   0.00000  Uiso   1.00
I329   I     0.28485   0.68707   0.20002   0.00000  Uiso   1.00
C330   C     0.51590   0.93290   0.24814   0.00000  Uiso   1.00
C331   C     0.47596   0.84019   0.48791   0.00000  Uiso   1.00
C332   C     0.48882   0.85584   0.43671   0.00000  Uiso   1.00
C333   C     0.52169   0.85709   0.01824   0.00000  Uiso   1.00
C334   C     0.58317   0.87884   0.49535   0.00000  Uiso   1.00
C335   C     0.59223   0.90201   0.44797   0.00000  Uiso   1.00
C336   C     0.54313   0.89459   0.42132   0.00000  Uiso   1.00
C337   C     0.50758   0.85645   0.07139   0.00000  Uiso   1.00
C338   C     0.61470   0.85580   0.07128   0.00000  Uiso   1.00
C339   C     0.44757   0.83190   0.40337   0.00000  Uiso   1.00
C340   C     0.52663   0.98755   0.23899   0.00000  Uiso   1.00
C341   C     0.46711   0.83277   0.34720   0.00000  Uiso   1.00
C342   C     0.47805   0.67775   0.24938   0.00000  Uiso   1.00
C343   C     0.48578   0.73339   0.24730   0.00000  Uiso   1.00
C344   C     0.53338   0.83828   0.15294   0.00000  Uiso   1.00
C345   C     0.63110   0.87887   0.02304   0.00000  Uiso   1.00
C346   C     0.55238   0.84810   0.09760   0.00000  Uiso   1.00
C347   C     0.39125   0.79831   0.42336   0.00000  Uiso   1.00
C348   C     0.37775   0.78505   0.47450   0.00000  Uiso   1.00
C349   C     0.42029   0.80479   0.00633   0.00000  Uiso   1.00
Cu350  Cu    0.44043   0.82772   0.24436   0.00000  Uiso   1.00
Cu351  Cu    0.55957   0.83895   0.25565   0.00000  Uiso   1.00
H352   H     0.43136   0.98925   0.26365   0.00000  Uiso   1.00
H353   H     0.66613   0.79932   0.20565   0.00000  Uiso   1.00
H354   H     0.63457   0.92953   0.43358   0.00000  Uiso   1.00
H355   H     0.35916   0.77972   0.39867   0.00000  Uiso   1.00
H356   H     0.41036   0.79103   0.04493   0.00000  Uiso   1.00
H357   H     0.33508   0.75787   0.48909   0.00000  Uiso   1.00
N358   N     0.64908   0.84741   0.26416   0.00000  Uiso   1.00
N359   N     0.35092   0.81926   0.23584   0.00000  Uiso   1.00
O360   O     0.46131   0.90474   0.24633   0.00000  Uiso   1.00
O361   O     0.56191   0.91422   0.25587   0.00000  Uiso   1.00
O362   O     0.42515   0.82627   0.31840   0.00000  Uiso   1.00
O363   O     0.52575   0.83575   0.32793   0.00000  Uiso   1.00
O364   O     0.43809   0.75245   0.24414   0.00000  Uiso   1.00
O365   O     0.53869   0.76193   0.25367   0.00000  Uiso   1.00
O366   O     0.47425   0.83092   0.17207   0.00000  Uiso   1.00
O367   O     0.57485   0.84040   0.18161   0.00000  Uiso   1.00
O368   O     0.66029   0.84280   0.09195   0.00000  Uiso   1.00
H369   H     0.64219   0.80989   0.11039   0.00000  Uiso   1.00
O370   O     0.34007   0.87648   0.30174   0.00000  Uiso   1.00
H371   H     0.64010   0.89388   0.32043   0.00000  Uiso   1.00
O372   O     0.36000   0.89772   0.00424   0.00000  Uiso   1.00
H373   H     0.36675   0.90282   0.46710   0.00000  Uiso   1.00
I374   I     0.45151   0.91106   0.10583   0.00000  Uiso   1.00
I375   I     0.54419   0.95649   0.37430   0.00000  Uiso   1.00
I376   I     0.61818   0.68707   0.20002   0.00000  Uiso   1.00
C377   C     0.84923   0.93290   0.24814   0.00000  Uiso   1.00
C378   C     0.80929   0.84019   0.48791   0.00000  Uiso   1.00
C379   C     0.82215   0.85584   0.43671   0.00000  Uiso   1.00
C380   C     0.85502   0.85709   0.01824   0.00000  Uiso   1.00
C381   C     0.91650   0.87884   0.49535   0.00000  Uiso   1.00
C382   C     0.92556   0.90201   0.44797   0.00000  Uiso   1.00
C383   C     0.87646   0.89459   0.42132   0.00000  Uiso   1.00
C384   C     0.84092   0.85645   0.07139   0.00000  Uiso   1.00
C385   C     0.94804   0.85580   0.07128   0.00000  Uiso   1.00
C386   C     0.78091   0.83190   0.40337   0.00000  Uiso   1.00
C387   C     0.85996   0.98755   0.23899   0.00000  Uiso   1.00
C388   C     0.80044   0.83277   0.34720   0.00000  Uiso   1.00
C389   C     0.81138   0.67775   0.24938   0.00000  Uiso   1.00
C390   C     0.81911   0.73339   0.24730   0.00000  Uiso   1.00
C391   C     0.86672   0.83828   0.15294   0.00000  Uiso   1.00
C392   C     0.96444   0.87887   0.02304   0.00000  Uiso   1.00
C393   C     0.88572   0.84810   0.09760   0.00000  Uiso   1.00
C394   C     0.72459   0.79831   0.42336   0.00000  Uiso   1.00
C395   C     0.71108   0.78505   0.47450   0.00000  Uiso   1.00
C396   C     0.75362   0.80479   0.00633   0.00000  Uiso   1.00
Cu397  Cu    0.77377   0.82772   0.24436   0.00000  Uiso   1.00
Cu398  Cu    0.89290   0.83895   0.25565   0.00000  Uiso   1.00
H399   H     0.76470   0.98925   0.26365   0.00000  Uiso   1.00
H400   H     0.99946   0.79932   0.20565   0.00000  Uiso   1.00
H401   H     0.96790   0.92953   0.43358   0.00000  Uiso   1.00
H402   H     0.69249   0.77972   0.39867   0.00000  Uiso   1.00
H403   H     0.74369   0.79103   0.04493   0.00000  Uiso   1.00
H404   H     0.66841   0.75787   0.48909   0.00000  Uiso   1.00
N405   N     0.98241   0.84741   0.26416   0.00000  Uiso   1.00
N406   N     0.68426   0.81926   0.23584   0.00000  Uiso   1.00
O407   O     0.79464   0.90474   0.24633   0.00000  Uiso   1.00
O408   O     0.89524   0.91422   0.25587   0.00000  Uiso   1.00
O409   O     0.75848   0.82627   0.31840   0.00000  Uiso   1.00
O410   O     0.85908   0.83575   0.32793   0.00000  Uiso   1.00
O411   O     0.77142   0.75245   0.24414   0.00000  Uiso   1.00
O412   O     0.87203   0.76193   0.25367   0.00000  Uiso   1.00
O413   O     0.80758   0.83092   0.17207   0.00000  Uiso   1.00
O414   O     0.90819   0.84040   0.18161   0.00000  Uiso   1.00
O415   O     0.99362   0.84280   0.09195   0.00000  Uiso   1.00
H416   H     0.97552   0.80989   0.11039   0.00000  Uiso   1.00
O417   O     0.67340   0.87648   0.30174   0.00000  Uiso   1.00
H418   H     0.97344   0.89388   0.32043   0.00000  Uiso   1.00
O419   O     0.69334   0.89772   0.00424   0.00000  Uiso   1.00
H420   H     0.70008   0.90282   0.46710   0.00000  Uiso   1.00
I421   I     0.78484   0.91106   0.10583   0.00000  Uiso   1.00
I422   I     0.87753   0.95649   0.37430   0.00000  Uiso   1.00
I423   I     0.95151   0.68707   0.20002   0.00000  Uiso   1.00
C424   C     0.18257   0.26623   0.74814   0.00000  Uiso   1.00
C425   C     0.14263   0.17353   0.98791   0.00000  Uiso   1.00
C426   C     0.15548   0.18917   0.93671   0.00000  Uiso   1.00
C427   C     0.18836   0.19042   0.51824   0.00000  Uiso   1.00
C428   C     0.24984   0.21217   0.99535   0.00000  Uiso   1.00
C429   C     0.25890   0.23535   0.94797   0.00000  Uiso   1.00
C430   C     0.20980   0.22792   0.92132   0.00000  Uiso   1.00
C431   C     0.17425   0.18979   0.57139   0.00000  Uiso   1.00
C432   C     0.28137   0.18914   0.57128   0.00000  Uiso   1.00
C433   C     0.11424   0.16523   0.90337   0.00000  Uiso   1.00
C434   C     0.19329   0.32088   0.73899   0.00000  Uiso   1.00
C435   C     0.13377   0.16611   0.84720   0.00000  Uiso   1.00
C436   C     0.14472   0.01108   0.74938   0.00000  Uiso   1.00
C437   C     0.15245   0.06672   0.74730   0.00000  Uiso   1.00
C438   C     0.20005   0.17161   0.65294   0.00000  Uiso   1.00
C439   C     0.29777   0.21220   0.52304   0.00000  Uiso   1.00
C440   C     0.21905   0.18143   0.59760   0.00000  Uiso   1.00
C441   C     0.05792   0.13164   0.92336   0.00000  Uiso   1.00
C442   C     0.04442   0.11838   0.97450   0.00000  Uiso   1.00
C443   C     0.08695   0.13812   0.50633   0.00000  Uiso   1.00
Cu444  Cu    0.10710   0.16105   0.74436   0.00000  Uiso   1.00
Cu445  Cu    0.22623   0.17228   0.75565   0.00000  Uiso   1.00
H446   H     0.09803   0.32258   0.76365   0.00000  Uiso   1.00
H447   H     0.33280   0.13265   0.70565   0.00000  Uiso   1.00
H448   H     0.30124   0.26287   0.93358   0.00000  Uiso   1.00
H449   H     0.02582   0.11305   0.89867   0.00000  Uiso   1.00
H450   H     0.07703   0.12436   0.54493   0.00000  Uiso   1.00
H451   H     0.00174   0.09120   0.98909   0.00000  Uiso   1.00
N452   N     0.31574   0.18074   0.76416   0.00000  Uiso   1.00
N453   N     0.01759   0.15259   0.73584   0.00000  Uiso   1.00
O454   O     0.12797   0.23807   0.74633   0.00000  Uiso   1.00
O455   O     0.22858   0.24755   0.75587   0.00000  Uiso   1.00
O456   O     0.09181   0.15960   0.81840   0.00000  Uiso   1.00
O457   O     0.19242   0.16908   0.82793   0.00000  Uiso   1.00
O458   O     0.10476   0.08578   0.74414   0.00000  Uiso   1.00
O459   O     0.20536   0.09526   0.75367   0.00000  Uiso   1.00
O460   O     0.14092   0.16425   0.67207   0.00000  Uiso   1.00
O461   O     0.24152   0.17373   0.68161   0.00000  Uiso   1.00
O462   O     0.32695   0.17613   0.59195   0.00000  Uiso   1.00
H463   H     0.30886   0.14322   0.61039   0.00000  Uiso   1.00
O464   O     0.00674   0.20982   0.80174   0.00000  Uiso   1.00
H465   H     0.30677   0.22722   0.82043   0.00000  Uiso   1.00
O466   O     0.02667   0.23105   0.50424   0.00000  Uiso   1.00
H467   H     0.03341   0.23615   0.96710   0.00000  Uiso   1.00
I468   I     0.11817   0.24440   0.60583   0.00000  Uiso   1.00
I469   I     0.21086   0.28982   0.87430   0.00000  Uiso   1.00
I470   I     0.28485   0.02040   0.70002   0.00000  Uiso   1.00
C471   C     0.51590   0.26623   0.74814   0.00000  Uiso   1.00
C472   C     0.47596   0.17353   0.98791   0.00000  Uiso   1.00
C473   C     0.48882   0.18917   0.93671   0.00000  Uiso   1.00
C474   C     0.52169   0.19042   0.51824   0.00000  Uiso   1.00
C475   C     0.58317   0.21217   0.99535   0.00000  Uiso   1.00
C476   C     0.59223   0.23535   0.94797   0.00000  Uiso   1.00
C477   C     0.54313   0.22792   0.92132   0.00000  Uiso   1.00
C478   C     0.50758   0.18979   0.57139   0.00000  Uiso   1.00
C479   C     0.61470   0.18914   0.57128   0.00000  Uiso   1.00
C480   C     0.44757   0.16523   0.90337   0.00000  Uiso   1.00
C481   C     0.52663   0.32088   0.73899   0.00000  Uiso   1.00
C482   C     0.46711   0.16611   0.84720   0.00000  Uiso   1.00
C483   C     0.47805   0.01108   0.74938   0.00000  Uiso   1.00
C484   C     0.48578   0.06672   0.74730   0.00000  Uiso   1.00
C485   C     0.53338   0.17161   0.65294   0.00000  Uiso   1.00
C486   C     0.63110   0.21220   0.52304   0.00000  Uiso   1.00
C487   C     0.55238   0.18143   0.59760   0.00000  Uiso   1.00
C488   C     0.39125   0.13164   0.92336   0.00000  Uiso   1.00
C489   C     0.37775   0.11838   0.97450   0.00000  Uiso   1.00
C490   C     0.42029   0.13812   0.50633   0.00000  Uiso   1.00
Cu491  Cu    0.44043   0.16105   0.74436   0.00000  Uiso   1.00
Cu492  Cu    0.55957   0.17228   0.75565   0.00000  Uiso   1.00
H493   H     0.43136   0.32258   0.76365   0.00000  Uiso   1.00
H494   H     0.66613   0.13265   0.70565   0.00000  Uiso   1.00
H495   H     0.63457   0.26287   0.93358   0.00000  Uiso   1.00
H496   H     0.35916   0.11305   0.89867   0.00000  Uiso   1.00
H497   H     0.41036   0.12436   0.54493   0.00000  Uiso   1.00
H498   H     0.33508   0.09120   0.98909   0.00000  Uiso   1.00
N499   N     0.64908   0.18074   0.76416   0.00000  Uiso   1.00
N500   N     0.35092   0.15259   0.73584   0.00000  Uiso   1.00
O501   O     0.46131   0.23807   0.74633   0.00000  Uiso   1.00
O502   O     0.56191   0.24755   0.75587   0.00000  Uiso   1.00
O503   O     0.42515   0.15960   0.81840   0.00000  Uiso   1.00
O504   O     0.52575   0.16908   0.82793   0.00000  Uiso   1.00
O505   O     0.43809   0.08578   0.74414   0.00000  Uiso   1.00
O506   O     0.53869   0.09526   0.75367   0.00000  Uiso   1.00
O507   O     0.47425   0.16425   0.67207   0.00000  Uiso   1.00
O508   O     0.57485   0.17373   0.68161   0.00000  Uiso   1.00
O509   O     0.66029   0.17613   0.59195   0.00000  Uiso   1.00
H510   H     0.64219   0.14322   0.61039   0.00000  Uiso   1.00
O511   O     0.34007   0.20982   0.80174   0.00000  Uiso   1.00
H512   H     0.64010   0.22722   0.82043   0.00000  Uiso   1.00
O513   O     0.36000   0.23105   0.50424   0.00000  Uiso   1.00
H514   H     0.36675   0.23615   0.96710   0.00000  Uiso   1.00
I515   I     0.45151   0.24440   0.60583   0.00000  Uiso   1.00
I516   I     0.54419   0.28982   0.87430   0.00000  Uiso   1.00
I517   I     0.61818   0.02040   0.70002   0.00000  Uiso   1.00
C518   C     0.84923   0.26623   0.74814   0.00000  Uiso   1.00
C519   C     0.80929   0.17353   0.98791   0.00000  Uiso   1.00
C520   C     0.82215   0.18917   0.93671   0.00000  Uiso   1.00
C521   C     0.85502   0.19042   0.51824   0.00000  Uiso   1.00
C522   C     0.91650   0.21217   0.99535   0.00000  Uiso   1.00
C523   C     0.92556   0.23535   0.94797   0.00000  Uiso   1.00
C524   C     0.87646   0.22792   0.92132   0.00000  Uiso   1.00
C525   C     0.84092   0.18979   0.57139   0.00000  Uiso   1.00
C526   C     0.94804   0.18914   0.57128   0.00000  Uiso   1.00
C527   C     0.78091   0.16523   0.90337   0.00000  Uiso   1.00
C528   C     0.85996   0.32088   0.73899   0.00000  Uiso   1.00
C529   C     0.80044   0.16611   0.84720   0.00000  Uiso   1.00
C530   C     0.81138   0.01108   0.74938   0.00000  Uiso   1.00
C531   C     0.81911   0.06672   0.74730   0.00000  Uiso   1.00
C532   C     0.86672   0.17161   0.65294   0.00000  Uiso   1.00
C533   C     0.96444   0.21220   0.52304   0.00000  Uiso   1.00
C534   C     0.88572   0.18143   0.59760   0.00000  Uiso   1.00
C535   C     0.72459   0.13164   0.92336   0.00000  Uiso   1.00
C536   C     0.71108   0.11838   0.97450   0.00000  Uiso   1.00
C537   C     0.75362   0.13812   0.50633   0.00000  Uiso   1.00
Cu538  Cu    0.77377   0.16105   0.74436   0.00000  Uiso   1.00
Cu539  Cu    0.89290   0.17228   0.75565   0.00000  Uiso   1.00
H540   H     0.76470   0.32258   0.76365   0.00000  Uiso   1.00
H541   H     0.99946   0.13265   0.70565   0.00000  Uiso   1.00
H542   H     0.96790   0.26287   0.93358   0.00000  Uiso   1.00
H543   H     0.69249   0.11305   0.89867   0.00000  Uiso   1.00
H544   H     0.74369   0.12436   0.54493   0.00000  Uiso   1.00
H545   H     0.66841   0.09120   0.98909   0.00000  Uiso   1.00
N546   N     0.98241   0.18074   0.76416   0.00000  Uiso   1.00
N547   N     0.68426   0.15259   0.73584   0.00000  Uiso   1.00
O548   O     0.79464   0.23807   0.74633   0.00000  Uiso   1.00
O549   O     0.89524   0.24755   0.75587   0.00000  Uiso   1.00
O550   O     0.75848   0.15960   0.81840   0.00000  Uiso   1.00
O551   O     0.85908   0.16908   0.82793   0.00000  Uiso   1.00
O552   O     0.77142   0.08578   0.74414   0.00000  Uiso   1.00
O553   O     0.87203   0.09526   0.75367   0.00000  Uiso   1.00
O554   O     0.80758   0.16425   0.67207   0.00000  Uiso   1.00
O555   O     0.90819   0.17373   0.68161   0.00000  Uiso   1.00
O556   O     0.99362   0.17613   0.59195   0.00000  Uiso   1.00
H557   H     0.97552   0.14322   0.61039   0.00000  Uiso   1.00
O558   O     0.67340   0.20982   0.80174   0.00000  Uiso   1.00
H559   H     0.97344   0.22722   0.82043   0.00000  Uiso   1.00
O560   O     0.69334   0.23105   0.50424   0.00000  Uiso   1.00
H561   H     0.70008   0.23615   0.96710   0.00000  Uiso   1.00
I562   I     0.78484   0.24440   0.60583   0.00000  Uiso   1.00
I563   I     0.87753   0.28982   0.87430   0.00000  Uiso   1.00
I564   I     0.95151   0.02040   0.70002   0.00000  Uiso   1.00
C565   C     0.18257   0.59957   0.74814   0.00000  Uiso   1.00
C566   C     0.14263   0.50686   0.98791   0.00000  Uiso   1.00
C567   C     0.15548   0.52251   0.93671   0.00000  Uiso   1.00
C568   C     0.18836   0.52375   0.51824   0.00000  Uiso   1.00
C569   C     0.24984   0.54551   0.99535   0.00000  Uiso   1.00
C570   C     0.25890   0.56868   0.94797   0.00000  Uiso   1.00
C571   C     0.20980   0.56126   0.92132   0.00000  Uiso   1.00
C572   C     0.17425   0.52312   0.57139   0.00000  Uiso   1.00
C573   C     0.28137   0.52247   0.57128   0.00000  Uiso   1.00
C574   C     0.11424   0.49857   0.90337   0.00000  Uiso   1.00
C575   C     0.19329   0.65422   0.73899   0.00000  Uiso   1.00
C576   C     0.13377   0.49944   0.84720   0.00000  Uiso   1.00
C577   C     0.14472   0.34441   0.74938   0.00000  Uiso   1.00
C578   C     0.15245   0.40006   0.74730   0.00000  Uiso   1.00
C579   C     0.20005   0.50495   0.65294   0.00000  Uiso   1.00
C580   C     0.29777   0.54553   0.52304   0.00000  Uiso   1.00
C581   C     0.21905   0.51477   0.59760   0.00000  Uiso   1.00
C582   C     0.05792   0.46498   0.92336   0.00000  Uiso   1.00
C583   C     0.04442   0.45171   0.97450   0.00000  Uiso   1.00
C584   C     0.08695   0.47145   0.50633   0.00000  Uiso   1.00
Cu585  Cu    0.10710   0.49439   0.74436   0.00000  Uiso   1.00
Cu586  Cu    0.22623   0.50561   0.75565   0.00000  Uiso   1.00
H587   H     0.09803   0.65592   0.76365   0.00000  Uiso   1.00
H588   H     0.33280   0.46598   0.70565   0.00000  Uiso   1.00
H589   H     0.30124   0.59620   0.93358   0.00000  Uiso   1.00
H590   H     0.02582   0.44638   0.89867   0.00000  Uiso   1.00
H591   H     0.07703   0.45770   0.54493   0.00000  Uiso   1.00
H592   H     0.00174   0.42453   0.98909   0.00000  Uiso   1.00
N593   N     0.31574   0.51407   0.76416   0.00000  Uiso   1.00
N594   N     0.01759   0.48593   0.73584   0.00000  Uiso   1.00
O595   O     0.12797   0.57141   0.74633   0.00000  Uiso   1.00
O596   O     0.22858   0.58089   0.75587   0.00000  Uiso   1.00
O597   O     0.09181   0.49293   0.81840   0.00000  Uiso   1.00
O598   O     0.19242   0.50241   0.82793   0.00000  Uiso   1.00
O599   O     0.10476   0.41911   0.74414   0.00000  Uiso   1.00
O600   O     0.20536   0.42859   0.75367   0.00000  Uiso   1.00
O601   O     0.14092   0.49759   0.67207   0.00000  Uiso   1.00
O602   O     0.24152   0.50707   0.68161   0.00000  Uiso   1.00
O603   O     0.32695   0.50947   0.59195   0.00000  Uiso   1.00
H604   H     0.30886   0.47656   0.61039   0.00000  Uiso   1.00
O605   O     0.00674   0.54315   0.80174   0.00000  Uiso   1.00
H606   H     0.30677   0.56055   0.82043   0.00000  Uiso   1.00
O607   O     0.02667   0.56438   0.50424   0.00000  Uiso   1.00
H608   H     0.03341   0.56948   0.96710   0.00000  Uiso   1.00
I609   I     0.11817   0.57773   0.60583   0.00000  Uiso   1.00
I610   I     0.21086   0.62315   0.87430   0.00000  Uiso   1.00
I611   I     0.28485   0.35374   0.70002   0.00000  Uiso   1.00
C612   C     0.51590   0.59957   0.74814   0.00000  Uiso   1.00
C613   C     0.47596   0.50686   0.98791   0.00000  Uiso   1.00
C614   C     0.48882   0.52251   0.93671   0.00000  Uiso   1.00
C615   C     0.52169   0.52375   0.51824   0.00000  Uiso   1.00
C616   C     0.58317   0.54551   0.99535   0.00000  Uiso   1.00
C617   C     0.59223   0.56868   0.94797   0.00000  Uiso   1.00
C618   C     0.54313   0.56126   0.92132   0.00000  Uiso   1.00
C619   C     0.50758   0.52312   0.57139   0.00000  Uiso   1.00
C620   C     0.61470   0.52247   0.57128   0.00000  Uiso   1.00
C621   C     0.44757   0.49857   0.90337   0.00000  Uiso   1.00
C622   C     0.52663   0.65422   0.73899   0.00000  Uiso   1.00
C623   C     0.46711   0.49944   0.84720   0.00000  Uiso   1.00
C624   C     0.47805   0.34441   0.74938   0.00000  Uiso   1.00
C625   C     0.48578   0.40006   0.74730   0.00000  Uiso   1.00
C626   C     0.53338   0.50495   0.65294   0.00000  Uiso   1.00
C627   C     0.63110   0.54553   0.52304   0.00000  Uiso   1.00
C628   C     0.55238   0.51477   0.59760   0.00000  Uiso   1.00
C629   C     0.39125   0.46498   0.92336   0.00000  Uiso   1.00
C630   C     0.37775   0.45171   0.97450   0.00000  Uiso   1.00
C631   C     0.42029   0.47145   0.50633   0.00000  Uiso   1.00
Cu632  Cu    0.44043   0.49439   0.74436   0.00000  Uiso   1.00
Cu633  Cu    0.55957   0.50561   0.75565   0.00000  Uiso   1.00
H634   H     0.43136   0.65592   0.76365   0.00000  Uiso   1.00
H635   H     0.66613   0.46598   0.70565   0.00000  Uiso   1.00
H636   H     0.63457   0.59620   0.93358   0.00000  Uiso   1.00
H637   H     0.35916   0.44638   0.89867   0.00000  Uiso   1.00
H638   H     0.41036   0.45770   0.54493   0.00000  Uiso   1.00
H639   H     0.33508   0.42453   0.98909   0.00000  Uiso   1.00
N640   N     0.64908   0.51407   0.76416   0.00000  Uiso   1.00
N641   N     0.35092   0.48593   0.73584   0.00000  Uiso   1.00
O642   O     0.46131   0.57141   0.74633   0.00000  Uiso   1.00
O643   O     0.56191   0.58089   0.75587   0.00000  Uiso   1.00
O644   O     0.42515   0.49293   0.81840   0.00000  Uiso   1.00
O645   O     0.52575   0.50241   0.82793   0.00000  Uiso   1.00
O646   O     0.43809   0.41911   0.74414   0.00000  Uiso   1.00
O647   O     0.53869   0.42859   0.75367   0.00000  Uiso   1.00
O648   O     0.47425   0.49759   0.67207   0.00000  Uiso   1.00
O649   O     0.57485   0.50707   0.68161   0.00000  Uiso   1.00
O650   O     0.66029   0.50947   0.59195   0.00000  Uiso   1.00
H651   H     0.64219   0.47656   0.61039   0.00000  Uiso   1.00
O652   O     0.34007   0.54315   0.80174   0.00000  Uiso   1.00
H653   H     0.64010   0.56055   0.82043   0.00000  Uiso   1.00
O654   O     0.36000   0.56438   0.50424   0.00000  Uiso   1.00
H655   H     0.36675   0.56948   0.96710   0.00000  Uiso   1.00
I656   I     0.45151   0.57773   0.60583   0.00000  Uiso   1.00
I657   I     0.54419   0.62315   0.87430   0.00000  Uiso   1.00
I658   I     0.61818   0.35374   0.70002   0.00000  Uiso   1.00
C659   C     0.84923   0.59957   0.74814   0.00000  Uiso   1.00
C660   C     0.80929   0.50686   0.98791   0.00000  Uiso   1.00
C661   C     0.82215   0.52251   0.93671   0.00000  Uiso   1.00
C662   C     0.85502   0.52375   0.51824   0.00000  Uiso   1.00
C663   C     0.91650   0.54551   0.99535   0.00000  Uiso   1.00
C664   C     0.92556   0.56868   0.94797   0.00000  Uiso   1.00
C665   C     0.87646   0.56126   0.92132   0.00000  Uiso   1.00
C666   C     0.84092   0.52312   0.57139   0.00000  Uiso   1.00
C667   C     0.94804   0.52247   0.57128   0.00000  Uiso   1.00
C668   C     0.78091   0.49857   0.90337   0.00000  Uiso   1.00
C669   C     0.85996   0.65422   0.73899   0.00000  Uiso   1.00
C670   C     0.80044   0.49944   0.84720   0.00000  Uiso   1.00
C671   C     0.81138   0.34441   0.74938   0.00000  Uiso   1.00
C672   C     0.81911   0.40006   0.74730   0.00000  Uiso   1.00
C673   C     0.86672   0.50495   0.65294   0.00000  Uiso   1.00
C674   C     0.96444   0.54553   0.52304   0.00000  Uiso   1.00
C675   C     0.88572   0.51477   0.59760   0.00000  Uiso   1.00
C676   C     0.72459   0.46498   0.92336   0.00000  Uiso   1.00
C677   C     0.71108   0.45171   0.97450   0.00000  Uiso   1.00
C678   C     0.75362   0.47145   0.50633   0.00000  Uiso   1.00
Cu679  Cu    0.77377   0.49439   0.74436   0.00000  Uiso   1.00
Cu680  Cu    0.89290   0.50561   0.75565   0.00000  Uiso   1.00
H681   H     0.76470   0.65592   0.76365   0.00000  Uiso   1.00
H682   H     0.99946   0.46598   0.70565   0.00000  Uiso   1.00
H683   H     0.96790   0.59620   0.93358   0.00000  Uiso   1.00
H684   H     0.69249   0.44638   0.89867   0.00000  Uiso   1.00
H685   H     0.74369   0.45770   0.54493   0.00000  Uiso   1.00
H686   H     0.66841   0.42453   0.98909   0.00000  Uiso   1.00
N687   N     0.98241   0.51407   0.76416   0.00000  Uiso   1.00
N688   N     0.68426   0.48593   0.73584   0.00000  Uiso   1.00
O689   O     0.79464   0.57141   0.74633   0.00000  Uiso   1.00
O690   O     0.89524   0.58089   0.75587   0.00000  Uiso   1.00
O691   O     0.75848   0.49293   0.81840   0.00000  Uiso   1.00
O692   O     0.85908   0.50241   0.82793   0.00000  Uiso   1.00
O693   O     0.77142   0.41911   0.74414   0.00000  Uiso   1.00
O694   O     0.87203   0.42859   0.75367   0.00000  Uiso   1.00
O695   O     0.80758   0.49759   0.67207   0.00000  Uiso   1.00
O696   O     0.90819   0.50707   0.68161   0.00000  Uiso   1.00
O697   O     0.99362   0.50947   0.59195   0.00000  Uiso   1.00
H698   H     0.97552   0.47656   0.61039   0.00000  Uiso   1.00
O699   O     0.67340   0.54315   0.80174   0.00000  Uiso   1.00
H700   H     0.97344   0.56055   0.82043   0.00000  Uiso   1.00
O701   O     0.69334   0.56438   0.50424   0.00000  Uiso   1.00
H702   H     0.70008   0.56948   0.96710   0.00000  Uiso   1.00
I703   I     0.78484   0.57773   0.60583   0.00000  Uiso   1.00
I704   I     0.87753   0.62315   0.87430   0.00000  Uiso   1.00
I705   I     0.95151   0.35374   0.70002   0.00000  Uiso   1.00
C706   C     0.18257   0.93290   0.74814   0.00000  Uiso   1.00
C707   C     0.14263   0.84019   0.98791   0.00000  Uiso   1.00
C708   C     0.15548   0.85584   0.93671   0.00000  Uiso   1.00
C709   C     0.18836   0.85709   0.51824   0.00000  Uiso   1.00
C710   C     0.24984   0.87884   0.99535   0.00000  Uiso   1.00
C711   C     0.25890   0.90201   0.94797   0.00000  Uiso   1.00
C712   C     0.20980   0.89459   0.92132   0.00000  Uiso   1.00
C713   C     0.17425   0.85645   0.57139   0.00000  Uiso   1.00
C714   C     0.28137   0.85580   0.57128   0.00000  Uiso   1.00
C715   C     0.11424   0.83190   0.90337   0.00000  Uiso   1.00
C716   C     0.19329   0.98755   0.73899   0.00000  Uiso   1.00
C717   C     0.13377   0.83277   0.84720   0.00000  Uiso   1.00
C718   C     0.14472   0.67775   0.74938   0.00000  Uiso   1.00
C719   C     0.15245   0.73339   0.74730   0.00000  Uiso   1.00
C720   C     0.20005   0.83828   0.65294   0.00000  Uiso   1.00
C721   C     0.29777   0.87887   0.52304   0.00000  Uiso   1.00
C722   C     0.21905   0.84810   0.59760   0.00000  Uiso   1.00
C723   C     0.05792   0.79831   0.92336   0.00000  Uiso   1.00
C724   C     0.04442   0.78505   0.97450   0.00000  Uiso   1.00
C725   C     0.08695   0.80479   0.50633   0.00000  Uiso   1.00
Cu726  Cu    0.10710   0.82772   0.74436   0.00000  Uiso   1.00
Cu727  Cu    0.22623   0.83895   0.75565   0.00000  Uiso   1.00
H728   H     0.09803   0.98925   0.76365   0.00000  Uiso   1.00
H729   H     0.33280   0.79932   0.70565   0.00000  Uiso   1.00
H730   H     0.30124   0.92953   0.93358   0.00000  Uiso   1.00
H731   H     0.02582   0.77972   0.89867   0.00000  Uiso   1.00
H732   H     0.07703   0.79103   0.54493   0.00000  Uiso   1.00
H733   H     0.00174   0.75787   0.98909   0.00000  Uiso   1.00
N734   N     0.31574   0.84741   0.76416   0.00000  Uiso   1.00
N735   N     0.01759   0.81926   0.73584   0.00000  Uiso   1.00
O736   O     0.12797   0.90474   0.74633   0.00000  Uiso   1.00
O737   O     0.22858   0.91422   0.75587   0.00000  Uiso   1.00
O738   O     0.09181   0.82627   0.81840   0.00000  Uiso   1.00
O739   O     0.19242   0.83575   0.82793   0.00000  Uiso   1.00
O740   O     0.10476   0.75245   0.74414   0.00000  Uiso   1.00
O741   O     0.20536   0.76193   0.75367   0.00000  Uiso   1.00
O742   O     0.14092   0.83092   0.67207   0.00000  Uiso   1.00
O743   O     0.24152   0.84040   0.68161   0.00000  Uiso   1.00
O744   O     0.32695   0.84280   0.59195   0.00000  Uiso   1.00
H745   H     0.30886   0.80989   0.61039   0.00000  Uiso   1.00
O746   O     0.00674   0.87648   0.80174   0.00000  Uiso   1.00
H747   H     0.30677   0.89388   0.82043   0.00000  Uiso   1.00
O748   O     0.02667   0.89772   0.50424   0.00000  Uiso   1.00
H749   H     0.03341   0.90282   0.96710   0.00000  Uiso   1.00
I750   I     0.11817   0.91106   0.60583   0.00000  Uiso   1.00
I751   I     0.21086   0.95649   0.87430   0.00000  Uiso   1.00
I752   I     0.28485   0.68707   0.70002   0.00000  Uiso   1.00
C753   C     0.51590   0.93290   0.74814   0.00000  Uiso   1.00
C754   C     0.47596   0.84019   0.98791   0.00000  Uiso   1.00
C755   C     0.48882   0.85584   0.93671   0.00000  Uiso   1.00
C756   C     0.52169   0.85709   0.51824   0.00000  Uiso   1.00
C757   C     0.58317   0.87884   0.99535   0.00000  Uiso   1.00
C758   C     0.59223   0.90201   0.94797   0.00000  Uiso   1.00
C759   C     0.54313   0.89459   0.92132   0.00000  Uiso   1.00
C760   C     0.50758   0.85645   0.57139   0.00000  Uiso   1.00
C761   C     0.61470   0.85580   0.57128   0.00000  Uiso   1.00
C762   C     0.44757   0.83190   0.90337   0.00000  Uiso   1.00
C763   C     0.52663   0.98755   0.73899   0.00000  Uiso   1.00
C764   C     0.46711   0.83277   0.84720   0.00000  Uiso   1.00
C765   C     0.47805   0.67775   0.74938   0.00000  Uiso   1.00
C766   C     0.48578   0.73339   0.74730   0.00000  Uiso   1.00
C767   C     0.53338   0.83828   0.65294   0.00000  Uiso   1.00
C768   C     0.63110   0.87887   0.52304   0.00000  Uiso   1.00
C769   C     0.55238   0.84810   0.59760   0.00000  Uiso   1.00
C770   C     0.39125   0.79831   0.92336   0.00000  Uiso   1.00
C771   C     0.37775   0.78505   0.97450   0.00000  Uiso   1.00
C772   C     0.42029   0.80479   0.50633   0.00000  Uiso   1.00
Cu773  Cu    0.44043   0.82772   0.74436   0.00000  Uiso   1.00
Cu774  Cu    0.55957   0.83895   0.75565   0.00000  Uiso   1.00
H775   H     0.43136   0.98925   0.76365   0.00000  Uiso   1.00
H776   H     0.66613   0.79932   0.70565   0.00000  Uiso   1.00
H777   H     0.63457   0.92953   0.93358   0.00000  Uiso   1.00
H778   H     0.35916   0.77972   0.89867   0.00000  Uiso   1.00
H779   H     0.41036   0.79103   0.54493   0.00000  Uiso   1.00
H780   H     0.33508   0.75787   0.98909   0.00000  Uiso   1.00
N781   N     0.64908   0.84741   0.76416   0.00000  Uiso   1.00
N782   N     0.35092   0.81926   0.73584   0.00000  Uiso   1.00
O783   O     0.46131   0.90474   0.74633   0.00000  Uiso   1.00
O784   O     0.56191   0.91422   0.75587   0.00000  Uiso   1.00
O785   O     0.42515   0.82627   0.81840   0.00000  Uiso   1.00
O786   O     0.52575   0.83575   0.82793   0.00000  Uiso   1.00
O787   O     0.43809   0.75245   0.74414   0.00000  Uiso   1.00
O788   O     0.53869   0.76193   0.75367   0.00000  Uiso   1.00
O789   O     0.47425   0.83092   0.67207   0.00000  Uiso   1.00
O790   O     0.57485   0.84040   0.68161   0.00000  Uiso   1.00
O791   O     0.66029   0.84280   0.59195   0.00000  Uiso   1.00
H792   H     0.64219   0.80989   0.61039   0.00000  Uiso   1.00
O793   O     0.34007   0.87648   0.80174   0.00000  Uiso   1.00
H794   H     0.64010   0.89388   0.82043   0.00000  Uiso   1.00
O795   O     0.36000   0.89772   0.50424   0.00000  Uiso   1.00
H796   H     0.36675   0.90282   0.96710   0.00000  Uiso   1.00
I797   I     0.45151   0.91106   0.60583   0.00000  Uiso   1.00
I798   I     0.54419   0.95649   0.87430   0.00000  Uiso   1.00
I799   I     0.61818   0.68707   0.70002   0.00000  Uiso   1.00
C800   C     0.84923   0.93290   0.74814   0.00000  Uiso   1.00
C801   C     0.80929   0.84019   0.98791   0.00000  Uiso   1.00
C802   C     0.82215   0.85584   0.93671   0.00000  Uiso   1.00
C803   C     0.85502   0.85709   0.51824   0.00000  Uiso   1.00
C804   C     0.91650   0.87884   0.99535   0.00000  Uiso   1.00
C805   C     0.92556   0.90201   0.94797   0.00000  Uiso   1.00
C806   C     0.87646   0.89459   0.92132   0.00000  Uiso   1.00
C807   C     0.84092   0.85645   0.57139   0.00000  Uiso   1.00
C808   C     0.94804   0.85580   0.57128   0.00000  Uiso   1.00
C809   C     0.78091   0.83190   0.90337   0.00000  Uiso   1.00
C810   C     0.85996   0.98755   0.73899   0.00000  Uiso   1.00
C811   C     0.80044   0.83277   0.84720   0.00000  Uiso   1.00
C812   C     0.81138   0.67775   0.74938   0.00000  Uiso   1.00
C813   C     0.81911   0.73339   0.74730   0.00000  Uiso   1.00
C814   C     0.86672   0.83828   0.65294   0.00000  Uiso   1.00
C815   C     0.96444   0.87887   0.52304   0.00000  Uiso   1.00
C816   C     0.88572   0.84810   0.59760   0.00000  Uiso   1.00
C817   C     0.72459   0.79831   0.92336   0.00000  Uiso   1.00
C818   C     0.71108   0.78505   0.97450   0.00000  Uiso   1.00
C819   C     0.75362   0.80479   0.50633   0.00000  Uiso   1.00
Cu820  Cu    0.77377   0.82772   0.74436   0.00000  Uiso   1.00
Cu821  Cu    0.89290   0.83895   0.75565   0.00000  Uiso   1.00
H822   H     0.76470   0.98925   0.76365   0.00000  Uiso   1.00
H823   H     0.99946   0.79932   0.70565   0.00000  Uiso   1.00
H824   H     0.96790   0.92953   0.93358   0.00000  Uiso   1.00
H825   H     0.69249   0.77972   0.89867   0.00000  Uiso   1.00
H826   H     0.74369   0.79103   0.54493   0.00000  Uiso   1.00
H827   H     0.66841   0.75787   0.98909   0.00000  Uiso   1.00
N828   N     0.98241   0.84741   0.76416   0.00000  Uiso   1.00
N829   N     0.68426   0.81926   0.73584   0.00000  Uiso   1.00
O830   O     0.79464   0.90474   0.74633   0.00000  Uiso   1.00
O831   O     0.89524   0.91422   0.75587   0.00000  Uiso   1.00
O832   O     0.75848   0.82627   0.81840   0.00000  Uiso   1.00
O833   O     0.85908   0.83575   0.82793   0.00000  Uiso   1.00
O834   O     0.77142   0.75245   0.74414   0.00000  Uiso   1.00
O835   O     0.87203   0.76193   0.75367   0.00000  Uiso   1.00
O836   O     0.80758   0.83092   0.67207   0.00000  Uiso   1.00
O837   O     0.90819   0.84040   0.68161   0.00000  Uiso   1.00
O838   O     0.99362   0.84280   0.59195   0.00000  Uiso   1.00
H839   H     0.97552   0.80989   0.61039   0.00000  Uiso   1.00
O840   O     0.67340   0.87648   0.80174   0.00000  Uiso   1.00
H841   H     0.97344   0.89388   0.82043   0.00000  Uiso   1.00
O842   O     0.69334   0.89772   0.50424   0.00000  Uiso   1.00
H843   H     0.70008   0.90282   0.96710   0.00000  Uiso   1.00
I844   I     0.78484   0.91106   0.60583   0.00000  Uiso   1.00
I845   I     0.87753   0.95649   0.87430   0.00000  Uiso   1.00
I846   I     0.95151   0.68707   0.70002   0.00000  Uiso   1.00
loop_
_geom_bond_atom_site_label_1
_geom_bond_atom_site_label_2
_geom_bond_distance
_geom_bond_site_symmetry_2
_ccdc_geom_bond_type
C1     O31     1.293   .     A
C1     O32     1.294   .     A
C1     C11     1.427   .     S
C2     C3      1.413   .     A
C2     C427    1.408   .     S
C2     C443    1.408   .     S
C3     C10     1.423   .     A
C3     C7      1.417   .     A
C4     C8      1.389   .     A
C4     C425    1.408   1_554 S
C4     C428    1.407   1_554 S
C5     C6      1.405   .     A
C5     C427    1.407   .     S
C5     C439    1.424   .     S
C6     C7      1.400   .     A
C6     H25     1.081   .     S
C7     I46     2.119   .     S
C8     I45     2.136   .     S
C8     C17     1.399   .     A
C9     O39     1.371   .     S
C9     C17     1.414   .     A
C9     C16     1.412   .     A
C10    C18     1.405   .     A
C10    C12     1.474   .     S
C11    C154    1.338   .     S
C11    I188    2.136   .     S
C12    O34     1.302   .     A
C12    O33     1.307   .     A
C13    C14     1.428   .     S
C13    C293    1.338   1_545 S
C13    H305    1.088   1_545 S
C14    O36     1.292   .     A
C14    O35     1.297   .     A
C15    O38     1.309   .     A
C15    C17     1.478   .     S
C15    O37     1.302   .     A
C16    C428    1.424   1_554 S
C16    O90     1.381   .     S
C18    H26     1.083   .     S
C18    C19     1.392   .     A
C19    H28     1.083   .     S
C19    C443    1.392   .     S
C20    H27     1.082   .     S
C20    C425    1.408   1_554 S
C20    C442    1.392   1_554 S
Cu21   O35     1.953   .     S
Cu21   O31     1.960   .     S
Cu21   O33     1.936   .     S
Cu21   O37     1.925   .     S
Cu21   N30     2.032   .     S
Cu21   Cu22    2.705   .     S
Cu22   O32     1.953   .     S
Cu22   N29     2.032   .     S
Cu22   O34     1.925   .     S
Cu22   O38     1.936   .     S
Cu22   O36     1.960   .     S
H23    C154    1.088   .     S
H24    N77     1.026   .     S
N29    N77     1.287   .     S
N29    O88     1.338   .     S
N30    H118    1.026   1_455 S
N30    N123    1.287   1_455 S
O39    H40     0.991   .     S
O41    N123    1.338   1_455 S
O41    H136    0.988   1_455 S
H42    O88     0.988   .     S
O43    C110    1.381   1_455 S
O43    H467    0.987   1_554 S
H44    O466    0.987   .     S
I47    C293    2.136   1_545 S
C48    O78     1.293   .     A
C48    O79     1.294   .     A
C48    C58     1.427   .     S
C49    C50     1.413   .     A
C49    C474    1.408   .     S
C49    C490    1.408   .     S
C50    C57     1.423   .     A
C50    C54     1.417   .     A
C51    C55     1.389   .     A
C51    C472    1.408   1_554 S
C51    C475    1.407   1_554 S
C52    C53     1.405   .     A
C52    C474    1.407   .     S
C52    C486    1.424   .     S
C53    C54     1.400   .     A
C53    H72     1.081   .     S
C54    I93     2.119   .     S
C55    I92     2.136   .     S
C55    C64     1.399   .     A
C56    O86     1.371   .     S
C56    C64     1.414   .     A
C56    C63     1.412   .     A
C57    C65     1.405   .     A
C57    C59     1.474   .     S
C58    C201    1.338   .     S
C58    I235    2.136   .     S
C59    O81     1.302   .     A
C59    O80     1.307   .     A
C60    C61     1.428   .     S
C60    C340    1.338   1_545 S
C60    H352    1.088   1_545 S
C61    O83     1.292   .     A
C61    O82     1.297   .     A
C62    O85     1.309   .     A
C62    C64     1.478   .     S
C62    O84     1.302   .     A
C63    C475    1.424   1_554 S
C63    O137    1.381   .     S
C65    H73     1.083   .     S
C65    C66     1.392   .     A
C66    H75     1.083   .     S
C66    C490    1.392   .     S
C67    H74     1.082   .     S
C67    C472    1.408   1_554 S
C67    C489    1.392   1_554 S
Cu68   O82     1.953   .     S
Cu68   O78     1.960   .     S
Cu68   O80     1.936   .     S
Cu68   O84     1.925   .     S
Cu68   N77     2.032   .     S
Cu68   Cu69    2.705   .     S
Cu69   O79     1.953   .     S
Cu69   N76     2.032   .     S
Cu69   O81     1.925   .     S
Cu69   O85     1.936   .     S
Cu69   O83     1.960   .     S
H70    C201    1.088   .     S
H71    N124    1.026   .     S
N76    N124    1.287   .     S
N76    O135    1.338   .     S
O86    H87     0.991   .     S
H89    O135    0.988   .     S
O90    H514    0.987   1_554 S
H91    O513    0.987   .     S
I94    C340    2.136   1_545 S
C95    O125    1.293   .     A
C95    O126    1.294   .     A
C95    C105    1.427   .     S
C96    C97     1.413   .     A
C96    C521    1.408   .     S
C96    C537    1.408   .     S
C97    C104    1.423   .     A
C97    C101    1.417   .     A
C98    C102    1.389   .     A
C98    C519    1.408   1_554 S
C98    C522    1.407   1_554 S
C99    C100    1.405   .     A
C99    C521    1.407   .     S
C99    C533    1.424   .     S
C100   C101    1.400   .     A
C100   H119    1.081   .     S
C101   I140    2.119   .     S
C102   I139    2.136   .     S
C102   C111    1.399   .     A
C103   O133    1.371   .     S
C103   C111    1.414   .     A
C103   C110    1.412   .     A
C104   C112    1.405   .     A
C104   C106    1.474   .     S
C105   C248    1.338   .     S
C105   I282    2.136   .     S
C106   O128    1.302   .     A
C106   O127    1.307   .     A
C107   C108    1.428   .     S
C107   C387    1.338   1_545 S
C107   H399    1.088   1_545 S
C108   O130    1.292   .     A
C108   O129    1.297   .     A
C109   O132    1.309   .     A
C109   C111    1.478   .     S
C109   O131    1.302   .     A
C110   C522    1.424   1_554 S
C110   O43     1.381   1_655 S
C112   H120    1.083   .     S
C112   C113    1.392   .     A
C113   H122    1.083   .     S
C113   C537    1.392   .     S
C114   H121    1.082   .     S
C114   C519    1.408   1_554 S
C114   C536    1.392   1_554 S
Cu115  O129    1.953   .     S
Cu115  O125    1.960   .     S
Cu115  O127    1.936   .     S
Cu115  O131    1.925   .     S
Cu115  N124    2.032   .     S
Cu115  Cu116   2.705   .     S
Cu116  O126    1.953   .     S
Cu116  N123    2.032   .     S
Cu116  O128    1.925   .     S
Cu116  O132    1.936   .     S
Cu116  O130    1.960   .     S
H117   C248    1.088   .     S
H118   N30     1.026   1_655 S
N123   N30     1.287   1_655 S
N123   O41     1.338   1_655 S
O133   H134    0.991   .     S
H136   O41     0.988   1_655 S
O137   H561    0.987   1_554 S
H138   O560    0.987   .     S
I141   C387    2.136   1_545 S
C142   O172    1.293   .     A
C142   O173    1.294   .     A
C142   C152    1.427   .     S
C143   C144    1.413   .     A
C143   C568    1.408   .     S
C143   C584    1.408   .     S
C144   C151    1.423   .     A
C144   C148    1.417   .     A
C145   C149    1.389   .     A
C145   C566    1.408   1_554 S
C145   C569    1.407   1_554 S
C146   C147    1.405   .     A
C146   C568    1.407   .     S
C146   C580    1.424   .     S
C147   C148    1.400   .     A
C147   H166    1.081   .     S
C148   I187    2.119   .     S
C149   I186    2.136   .     S
C149   C158    1.399   .     A
C150   O180    1.371   .     S
C150   C158    1.414   .     A
C150   C157    1.412   .     A
C151   C159    1.405   .     A
C151   C153    1.474   .     S
C152   C295    1.338   .     S
C152   I329    2.136   .     S
C153   O175    1.302   .     A
C153   O174    1.307   .     A
C154   C155    1.428   .     S
C155   O177    1.292   .     A
C155   O176    1.297   .     A
C156   O179    1.309   .     A
C156   C158    1.478   .     S
C156   O178    1.302   .     A
C157   C569    1.424   1_554 S
C157   O231    1.381   .     S
C159   H167    1.083   .     S
C159   C160    1.392   .     A
C160   H169    1.083   .     S
C160   C584    1.392   .     S
C161   H168    1.082   .     S
C161   C566    1.408   1_554 S
C161   C583    1.392   1_554 S
Cu162  O176    1.953   .     S
Cu162  O172    1.960   .     S
Cu162  O174    1.936   .     S
Cu162  O178    1.925   .     S
Cu162  N171    2.032   .     S
Cu162  Cu163   2.705   .     S
Cu163  O173    1.953   .     S
Cu163  N170    2.032   .     S
Cu163  O175    1.925   .     S
Cu163  O179    1.936   .     S
Cu163  O177    1.960   .     S
H164   C295    1.088   .     S
H165   N218    1.026   .     S
N170   N218    1.287   .     S
N170   O229    1.338   .     S
N171   H259    1.026   1_455 S
N171   N264    1.287   1_455 S
O180   H181    0.991   .     S
O182   N264    1.338   1_455 S
O182   H277    0.988   1_455 S
H183   O229    0.988   .     S
O184   C251    1.381   1_455 S
O184   H608    0.987   1_554 S
H185   O607    0.987   .     S
C189   O219    1.293   .     A
C189   O220    1.294   .     A
C189   C199    1.427   .     S
C190   C191    1.413   .     A
C190   C615    1.408   .     S
C190   C631    1.408   .     S
C191   C198    1.423   .     A
C191   C195    1.417   .     A
C192   C196    1.389   .     A
C192   C613    1.408   1_554 S
C192   C616    1.407   1_554 S
C193   C194    1.405   .     A
C193   C615    1.407   .     S
C193   C627    1.424   .     S
C194   C195    1.400   .     A
C194   H213    1.081   .     S
C195   I234    2.119   .     S
C196   I233    2.136   .     S
C196   C205    1.399   .     A
C197   O227    1.371   .     S
C197   C205    1.414   .     A
C197   C204    1.412   .     A
C198   C206    1.405   .     A
C198   C200    1.474   .     S
C199   C342    1.338   .     S
C199   I376    2.136   .     S
C200   O222    1.302   .     A
C200   O221    1.307   .     A
C201   C202    1.428   .     S
C202   O224    1.292   .     A
C202   O223    1.297   .     A
C203   O226    1.309   .     A
C203   C205    1.478   .     S
C203   O225    1.302   .     A
C204   C616    1.424   1_554 S
C204   O278    1.381   .     S
C206   H214    1.083   .     S
C206   C207    1.392   .     A
C207   H216    1.083   .     S
C207   C631    1.392   .     S
C208   H215    1.082   .     S
C208   C613    1.408   1_554 S
C208   C630    1.392   1_554 S
Cu209  O223    1.953   .     S
Cu209  O219    1.960   .     S
Cu209  O221    1.936   .     S
Cu209  O225    1.925   .     S
Cu209  N218    2.032   .     S
Cu209  Cu210   2.705   .     S
Cu210  O220    1.953   .     S
Cu210  N217    2.032   .     S
Cu210  O222    1.925   .     S
Cu210  O226    1.936   .     S
Cu210  O224    1.960   .     S
H211   C342    1.088   .     S
H212   N265    1.026   .     S
N217   N265    1.287   .     S
N217   O276    1.338   .     S
O227   H228    0.991   .     S
H230   O276    0.988   .     S
O231   H655    0.987   1_554 S
H232   O654    0.987   .     S
C236   O266    1.293   .     A
C236   O267    1.294   .     A
C236   C246    1.427   .     S
C237   C238    1.413   .     A
C237   C662    1.408   .     S
C237   C678    1.408   .     S
C238   C245    1.423   .     A
C238   C242    1.417   .     A
C239   C243    1.389   .     A
C239   C660    1.408   1_554 S
C239   C663    1.407   1_554 S
C240   C241    1.405   .     A
C240   C662    1.407   .     S
C240   C674    1.424   .     S
C241   C242    1.400   .     A
C241   H260    1.081   .     S
C242   I281    2.119   .     S
C243   I280    2.136   .     S
C243   C252    1.399   .     A
C244   O274    1.371   .     S
C244   C252    1.414   .     A
C244   C251    1.412   .     A
C245   C253    1.405   .     A
C245   C247    1.474   .     S
C246   C389    1.338   .     S
C246   I423    2.136   .     S
C247   O269    1.302   .     A
C247   O268    1.307   .     A
C248   C249    1.428   .     S
C249   O271    1.292   .     A
C249   O270    1.297   .     A
C250   O273    1.309   .     A
C250   C252    1.478   .     S
C250   O272    1.302   .     A
C251   C663    1.424   1_554 S
C251   O184    1.381   1_655 S
C253   H261    1.083   .     S
C253   C254    1.392   .     A
C254   H263    1.083   .     S
C254   C678    1.392   .     S
C255   H262    1.082   .     S
C255   C660    1.408   1_554 S
C255   C677    1.392   1_554 S
Cu256  O270    1.953   .     S
Cu256  O266    1.960   .     S
Cu256  O268    1.936   .     S
Cu256  O272    1.925   .     S
Cu256  N265    2.032   .     S
Cu256  Cu257   2.705   .     S
Cu257  O267    1.953   .     S
Cu257  N264    2.032   .     S
Cu257  O269    1.925   .     S
Cu257  O273    1.936   .     S
Cu257  O271    1.960   .     S
H258   C389    1.088   .     S
H259   N171    1.026   1_655 S
N264   N171    1.287   1_655 S
N264   O182    1.338   1_655 S
O274   H275    0.991   .     S
H277   O182    0.988   1_655 S
O278   H702    0.987   1_554 S
H279   O701    0.987   .     S
C283   O313    1.293   .     A
C283   O314    1.294   .     A
C283   C293    1.427   .     S
C284   C285    1.413   .     A
C284   C709    1.408   .     S
C284   C725    1.408   .     S
C285   C292    1.423   .     A
C285   C289    1.417   .     A
C286   C290    1.389   .     A
C286   C707    1.408   1_554 S
C286   C710    1.407   1_554 S
C287   C288    1.405   .     A
C287   C709    1.407   .     S
C287   C721    1.424   .     S
C288   C289    1.400   .     A
C288   H307    1.081   .     S
C289   I328    2.119   .     S
C290   I327    2.136   .     S
C290   C299    1.399   .     A
C291   O321    1.371   .     S
C291   C299    1.414   .     A
C291   C298    1.412   .     A
C292   C300    1.405   .     A
C292   C294    1.474   .     S
C293   C13     1.338   1_565 S
C293   I47     2.136   1_565 S
C294   O316    1.302   .     A
C294   O315    1.307   .     A
C295   C296    1.428   .     S
C296   O318    1.292   .     A
C296   O317    1.297   .     A
C297   O320    1.309   .     A
C297   C299    1.478   .     S
C297   O319    1.302   .     A
C298   C710    1.424   1_554 S
C298   O372    1.381   .     S
C300   H308    1.083   .     S
C300   C301    1.392   .     A
C301   H310    1.083   .     S
C301   C725    1.392   .     S
C302   H309    1.082   .     S
C302   C707    1.408   1_554 S
C302   C724    1.392   1_554 S
Cu303  O317    1.953   .     S
Cu303  O313    1.960   .     S
Cu303  O315    1.936   .     S
Cu303  O319    1.925   .     S
Cu303  N312    2.032   .     S
Cu303  Cu304   2.705   .     S
Cu304  O314    1.953   .     S
Cu304  N311    2.032   .     S
Cu304  O316    1.925   .     S
Cu304  O320    1.936   .     S
Cu304  O318    1.960   .     S
H305   C13     1.088   1_565 S
H306   N359    1.026   .     S
N311   N359    1.287   .     S
N311   O370    1.338   .     S
N312   H400    1.026   1_455 S
N312   N405    1.287   1_455 S
O321   H322    0.991   .     S
O323   N405    1.338   1_455 S
O323   H418    0.988   1_455 S
H324   O370    0.988   .     S
O325   C392    1.381   1_455 S
O325   H749    0.987   1_554 S
H326   O748    0.987   .     S
C330   O360    1.293   .     A
C330   O361    1.294   .     A
C330   C340    1.427   .     S
C331   C332    1.413   .     A
C331   C756    1.408   .     S
C331   C772    1.408   .     S
C332   C339    1.423   .     A
C332   C336    1.417   .     A
C333   C337    1.389   .     A
C333   C754    1.408   1_554 S
C333   C757    1.407   1_554 S
C334   C335    1.405   .     A
C334   C756    1.407   .     S
C334   C768    1.424   .     S
C335   C336    1.400   .     A
C335   H354    1.081   .     S
C336   I375    2.119   .     S
C337   I374    2.136   .     S
C337   C346    1.399   .     A
C338   O368    1.371   .     S
C338   C346    1.414   .     A
C338   C345    1.412   .     A
C339   C347    1.405   .     A
C339   C341    1.474   .     S
C340   C60     1.338   1_565 S
C340   I94     2.136   1_565 S
C341   O363    1.302   .     A
C341   O362    1.307   .     A
C342   C343    1.428   .     S
C343   O365    1.292   .     A
C343   O364    1.297   .     A
C344   O367    1.309   .     A
C344   C346    1.478   .     S
C344   O366    1.302   .     A
C345   C757    1.424   1_554 S
C345   O419    1.381   .     S
C347   H355    1.083   .     S
C347   C348    1.392   .     A
C348   H357    1.083   .     S
C348   C772    1.392   .     S
C349   H356    1.082   .     S
C349   C754    1.408   1_554 S
C349   C771    1.392   1_554 S
Cu350  O364    1.953   .     S
Cu350  O360    1.960   .     S
Cu350  O362    1.936   .     S
Cu350  O366    1.925   .     S
Cu350  N359    2.032   .     S
Cu350  Cu351   2.705   .     S
Cu351  O361    1.953   .     S
Cu351  N358    2.032   .     S
Cu351  O363    1.925   .     S
Cu351  O367    1.936   .     S
Cu351  O365    1.960   .     S
H352   C60     1.088   1_565 S
H353   N406    1.026   .     S
N358   N406    1.287   .     S
N358   O417    1.338   .     S
O368   H369    0.991   .     S
H371   O417    0.988   .     S
O372   H796    0.987   1_554 S
H373   O795    0.987   .     S
C377   O407    1.293   .     A
C377   O408    1.294   .     A
C377   C387    1.427   .     S
C378   C379    1.413   .     A
C378   C803    1.408   .     S
C378   C819    1.408   .     S
C379   C386    1.423   .     A
C379   C383    1.417   .     A
C380   C384    1.389   .     A
C380   C801    1.408   1_554 S
C380   C804    1.407   1_554 S
C381   C382    1.405   .     A
C381   C803    1.407   .     S
C381   C815    1.424   .     S
C382   C383    1.400   .     A
C382   H401    1.081   .     S
C383   I422    2.119   .     S
C384   I421    2.136   .     S
C384   C393    1.399   .     A
C385   O415    1.371   .     S
C385   C393    1.414   .     A
C385   C392    1.412   .     A
C386   C394    1.405   .     A
C386   C388    1.474   .     S
C387   C107    1.338   1_565 S
C387   I141    2.136   1_565 S
C388   O410    1.302   .     A
C388   O409    1.307   .     A
C389   C390    1.428   .     S
C390   O412    1.292   .     A
C390   O411    1.297   .     A
C391   O414    1.309   .     A
C391   C393    1.478   .     S
C391   O413    1.302   .     A
C392   C804    1.424   1_554 S
C392   O325    1.381   1_655 S
C394   H402    1.083   .     S
C394   C395    1.392   .     A
C395   H404    1.083   .     S
C395   C819    1.392   .     S
C396   H403    1.082   .     S
C396   C801    1.408   1_554 S
C396   C818    1.392   1_554 S
Cu397  O411    1.953   .     S
Cu397  O407    1.960   .     S
Cu397  O409    1.936   .     S
Cu397  O413    1.925   .     S
Cu397  N406    2.032   .     S
Cu397  Cu398   2.705   .     S
Cu398  O408    1.953   .     S
Cu398  N405    2.032   .     S
Cu398  O410    1.925   .     S
Cu398  O414    1.936   .     S
Cu398  O412    1.960   .     S
H399   C107    1.088   1_565 S
H400   N312    1.026   1_655 S
N405   N312    1.287   1_655 S
N405   O323    1.338   1_655 S
O415   H416    0.991   .     S
H418   O323    0.988   1_655 S
O419   H843    0.987   1_554 S
H420   O842    0.987   .     S
C424   O454    1.293   .     A
C424   O455    1.294   .     A
C424   C434    1.427   .     S
C425   C426    1.413   .     A
C425   C4      1.408   1_556 S
C425   C20     1.408   1_556 S
C426   C433    1.423   .     A
C426   C430    1.417   .     A
C427   C431    1.389   .     A
C428   C429    1.405   .     A
C428   C4      1.407   1_556 S
C428   C16     1.424   1_556 S
C429   C430    1.400   .     A
C429   H448    1.081   .     S
C430   I469    2.119   .     S
C431   I468    2.136   .     S
C431   C440    1.399   .     A
C432   O462    1.371   .     S
C432   C440    1.414   .     A
C432   C439    1.412   .     A
C433   C441    1.405   .     A
C433   C435    1.474   .     S
C434   C577    1.338   .     S
C434   I611    2.136   .     S
C435   O457    1.302   .     A
C435   O456    1.307   .     A
C436   C437    1.428   .     S
C436   C716    1.338   1_545 S
C436   H728    1.088   1_545 S
C437   O459    1.292   .     A
C437   O458    1.297   .     A
C438   O461    1.309   .     A
C438   C440    1.478   .     S
C438   O460    1.302   .     A
C439   O513    1.381   .     S
C441   H449    1.083   .     S
C441   C442    1.392   .     A
C442   H451    1.083   .     S
C442   C20     1.392   1_556 S
C443   H450    1.082   .     S
Cu444  O458    1.953   .     S
Cu444  O454    1.960   .     S
Cu444  O456    1.936   .     S
Cu444  O460    1.925   .     S
Cu444  N453    2.032   .     S
Cu444  Cu445   2.705   .     S
Cu445  O455    1.953   .     S
Cu445  N452    2.032   .     S
Cu445  O457    1.925   .     S
Cu445  O461    1.936   .     S
Cu445  O459    1.960   .     S
H446   C577    1.088   .     S
H447   N500    1.026   .     S
N452   N500    1.287   .     S
N452   O511    1.338   .     S
N453   H541    1.026   1_455 S
N453   N546    1.287   1_455 S
O462   H463    0.991   .     S
O464   N546    1.338   1_455 S
O464   H559    0.988   1_455 S
H465   O511    0.988   .     S
O466   C533    1.381   1_455 S
H467   O43     0.987   1_556 S
I470   C716    2.136   1_545 S
C471   O501    1.293   .     A
C471   O502    1.294   .     A
C471   C481    1.427   .     S
C472   C473    1.413   .     A
C472   C51     1.408   1_556 S
C472   C67     1.408   1_556 S
C473   C480    1.423   .     A
C473   C477    1.417   .     A
C474   C478    1.389   .     A
C475   C476    1.405   .     A
C475   C51     1.407   1_556 S
C475   C63     1.424   1_556 S
C476   C477    1.400   .     A
C476   H495    1.081   .     S
C477   I516    2.119   .     S
C478   I515    2.136   .     S
C478   C487    1.399   .     A
C479   O509    1.371   .     S
C479   C487    1.414   .     A
C479   C486    1.412   .     A
C480   C488    1.405   .     A
C480   C482    1.474   .     S
C481   C624    1.338   .     S
C481   I658    2.136   .     S
C482   O504    1.302   .     A
C482   O503    1.307   .     A
C483   C484    1.428   .     S
C483   C763    1.338   1_545 S
C483   H775    1.088   1_545 S
C484   O506    1.292   .     A
C484   O505    1.297   .     A
C485   O508    1.309   .     A
C485   C487    1.478   .     S
C485   O507    1.302   .     A
C486   O560    1.381   .     S
C488   H496    1.083   .     S
C488   C489    1.392   .     A
C489   H498    1.083   .     S
C489   C67     1.392   1_556 S
C490   H497    1.082   .     S
Cu491  O505    1.953   .     S
Cu491  O501    1.960   .     S
Cu491  O503    1.936   .     S
Cu491  O507    1.925   .     S
Cu491  N500    2.032   .     S
Cu491  Cu492   2.705   .     S
Cu492  O502    1.953   .     S
Cu492  N499    2.032   .     S
Cu492  O504    1.925   .     S
Cu492  O508    1.936   .     S
Cu492  O506    1.960   .     S
H493   C624    1.088   .     S
H494   N547    1.026   .     S
N499   N547    1.287   .     S
N499   O558    1.338   .     S
O509   H510    0.991   .     S
H512   O558    0.988   .     S
H514   O90     0.987   1_556 S
I517   C763    2.136   1_545 S
C518   O548    1.293   .     A
C518   O549    1.294   .     A
C518   C528    1.427   .     S
C519   C520    1.413   .     A
C519   C98     1.408   1_556 S
C519   C114    1.408   1_556 S
C520   C527    1.423   .     A
C520   C524    1.417   .     A
C521   C525    1.389   .     A
C522   C523    1.405   .     A
C522   C98     1.407   1_556 S
C522   C110    1.424   1_556 S
C523   C524    1.400   .     A
C523   H542    1.081   .     S
C524   I563    2.119   .     S
C525   I562    2.136   .     S
C525   C534    1.399   .     A
C526   O556    1.371   .     S
C526   C534    1.414   .     A
C526   C533    1.412   .     A
C527   C535    1.405   .     A
C527   C529    1.474   .     S
C528   C671    1.338   .     S
C528   I705    2.136   .     S
C529   O551    1.302   .     A
C529   O550    1.307   .     A
C530   C531    1.428   .     S
C530   C810    1.338   1_545 S
C530   H822    1.088   1_545 S
C531   O553    1.292   .     A
C531   O552    1.297   .     A
C532   O555    1.309   .     A
C532   C534    1.478   .     S
C532   O554    1.302   .     A
C533   O466    1.381   1_655 S
C535   H543    1.083   .     S
C535   C536    1.392   .     A
C536   H545    1.083   .     S
C536   C114    1.392   1_556 S
C537   H544    1.082   .     S
Cu538  O552    1.953   .     S
Cu538  O548    1.960   .     S
Cu538  O550    1.936   .     S
Cu538  O554    1.925   .     S
Cu538  N547    2.032   .     S
Cu538  Cu539   2.705   .     S
Cu539  O549    1.953   .     S
Cu539  N546    2.032   .     S
Cu539  O551    1.925   .     S
Cu539  O555    1.936   .     S
Cu539  O553    1.960   .     S
H540   C671    1.088   .     S
H541   N453    1.026   1_655 S
N546   N453    1.287   1_655 S
N546   O464    1.338   1_655 S
O556   H557    0.991   .     S
H559   O464    0.988   1_655 S
H561   O137    0.987   1_556 S
I564   C810    2.136   1_545 S
C565   O595    1.293   .     A
C565   O596    1.294   .     A
C565   C575    1.427   .     S
C566   C567    1.413   .     A
C566   C145    1.408   1_556 S
C566   C161    1.408   1_556 S
C567   C574    1.423   .     A
C567   C571    1.417   .     A
C568   C572    1.389   .     A
C569   C570    1.405   .     A
C569   C145    1.407   1_556 S
C569   C157    1.424   1_556 S
C570   C571    1.400   .     A
C570   H589    1.081   .     S
C571   I610    2.119   .     S
C572   I609    2.136   .     S
C572   C581    1.399   .     A
C573   O603    1.371   .     S
C573   C581    1.414   .     A
C573   C580    1.412   .     A
C574   C582    1.405   .     A
C574   C576    1.474   .     S
C575   C718    1.338   .     S
C575   I752    2.136   .     S
C576   O598    1.302   .     A
C576   O597    1.307   .     A
C577   C578    1.428   .     S
C578   O600    1.292   .     A
C578   O599    1.297   .     A
C579   O602    1.309   .     A
C579   C581    1.478   .     S
C579   O601    1.302   .     A
C580   O654    1.381   .     S
C582   H590    1.083   .     S
C582   C583    1.392   .     A
C583   H592    1.083   .     S
C583   C161    1.392   1_556 S
C584   H591    1.082   .     S
Cu585  O599    1.953   .     S
Cu585  O595    1.960   .     S
Cu585  O597    1.936   .     S
Cu585  O601    1.925   .     S
Cu585  N594    2.032   .     S
Cu585  Cu586   2.705   .     S
Cu586  O596    1.953   .     S
Cu586  N593    2.032   .     S
Cu586  O598    1.925   .     S
Cu586  O602    1.936   .     S
Cu586  O600    1.960   .     S
H587   C718    1.088   .     S
H588   N641    1.026   .     S
N593   N641    1.287   .     S
N593   O652    1.338   .     S
N594   H682    1.026   1_455 S
N594   N687    1.287   1_455 S
O603   H604    0.991   .     S
O605   N687    1.338   1_455 S
O605   H700    0.988   1_455 S
H606   O652    0.988   .     S
O607   C674    1.381   1_455 S
H608   O184    0.987   1_556 S
C612   O642    1.293   .     A
C612   O643    1.294   .     A
C612   C622    1.427   .     S
C613   C614    1.413   .     A
C613   C192    1.408   1_556 S
C613   C208    1.408   1_556 S
C614   C621    1.423   .     A
C614   C618    1.417   .     A
C615   C619    1.389   .     A
C616   C617    1.405   .     A
C616   C192    1.407   1_556 S
C616   C204    1.424   1_556 S
C617   C618    1.400   .     A
C617   H636    1.081   .     S
C618   I657    2.119   .     S
C619   I656    2.136   .     S
C619   C628    1.399   .     A
C620   O650    1.371   .     S
C620   C628    1.414   .     A
C620   C627    1.412   .     A
C621   C629    1.405   .     A
C621   C623    1.474   .     S
C622   C765    1.338   .     S
C622   I799    2.136   .     S
C623   O645    1.302   .     A
C623   O644    1.307   .     A
C624   C625    1.428   .     S
C625   O647    1.292   .     A
C625   O646    1.297   .     A
C626   O649    1.309   .     A
C626   C628    1.478   .     S
C626   O648    1.302   .     A
C627   O701    1.381   .     S
C629   H637    1.083   .     S
C629   C630    1.392   .     A
C630   H639    1.083   .     S
C630   C208    1.392   1_556 S
C631   H638    1.082   .     S
Cu632  O646    1.953   .     S
Cu632  O642    1.960   .     S
Cu632  O644    1.936   .     S
Cu632  O648    1.925   .     S
Cu632  N641    2.032   .     S
Cu632  Cu633   2.705   .     S
Cu633  O643    1.953   .     S
Cu633  N640    2.032   .     S
Cu633  O645    1.925   .     S
Cu633  O649    1.936   .     S
Cu633  O647    1.960   .     S
H634   C765    1.088   .     S
H635   N688    1.026   .     S
N640   N688    1.287   .     S
N640   O699    1.338   .     S
O650   H651    0.991   .     S
H653   O699    0.988   .     S
H655   O231    0.987   1_556 S
C659   O689    1.293   .     A
C659   O690    1.294   .     A
C659   C669    1.427   .     S
C660   C661    1.413   .     A
C660   C239    1.408   1_556 S
C660   C255    1.408   1_556 S
C661   C668    1.423   .     A
C661   C665    1.417   .     A
C662   C666    1.389   .     A
C663   C664    1.405   .     A
C663   C239    1.407   1_556 S
C663   C251    1.424   1_556 S
C664   C665    1.400   .     A
C664   H683    1.081   .     S
C665   I704    2.119   .     S
C666   I703    2.136   .     S
C666   C675    1.399   .     A
C667   O697    1.371   .     S
C667   C675    1.414   .     A
C667   C674    1.412   .     A
C668   C676    1.405   .     A
C668   C670    1.474   .     S
C669   C812    1.338   .     S
C669   I846    2.136   .     S
C670   O692    1.302   .     A
C670   O691    1.307   .     A
C671   C672    1.428   .     S
C672   O694    1.292   .     A
C672   O693    1.297   .     A
C673   O696    1.309   .     A
C673   C675    1.478   .     S
C673   O695    1.302   .     A
C674   O607    1.381   1_655 S
C676   H684    1.083   .     S
C676   C677    1.392   .     A
C677   H686    1.083   .     S
C677   C255    1.392   1_556 S
C678   H685    1.082   .     S
Cu679  O693    1.953   .     S
Cu679  O689    1.960   .     S
Cu679  O691    1.936   .     S
Cu679  O695    1.925   .     S
Cu679  N688    2.032   .     S
Cu679  Cu680   2.705   .     S
Cu680  O690    1.953   .     S
Cu680  N687    2.032   .     S
Cu680  O692    1.925   .     S
Cu680  O696    1.936   .     S
Cu680  O694    1.960   .     S
H681   C812    1.088   .     S
H682   N594    1.026   1_655 S
N687   N594    1.287   1_655 S
N687   O605    1.338   1_655 S
O697   H698    0.991   .     S
H700   O605    0.988   1_655 S
H702   O278    0.987   1_556 S
C706   O736    1.293   .     A
C706   O737    1.294   .     A
C706   C716    1.427   .     S
C707   C708    1.413   .     A
C707   C286    1.408   1_556 S
C707   C302    1.408   1_556 S
C708   C715    1.423   .     A
C708   C712    1.417   .     A
C709   C713    1.389   .     A
C710   C711    1.405   .     A
C710   C286    1.407   1_556 S
C710   C298    1.424   1_556 S
C711   C712    1.400   .     A
C711   H730    1.081   .     S
C712   I751    2.119   .     S
C713   I750    2.136   .     S
C713   C722    1.399   .     A
C714   O744    1.371   .     S
C714   C722    1.414   .     A
C714   C721    1.412   .     A
C715   C723    1.405   .     A
C715   C717    1.474   .     S
C716   C436    1.338   1_565 S
C716   I470    2.136   1_565 S
C717   O739    1.302   .     A
C717   O738    1.307   .     A
C718   C719    1.428   .     S
C719   O741    1.292   .     A
C719   O740    1.297   .     A
C720   O743    1.309   .     A
C720   C722    1.478   .     S
C720   O742    1.302   .     A
C721   O795    1.381   .     S
C723   H731    1.083   .     S
C723   C724    1.392   .     A
C724   H733    1.083   .     S
C724   C302    1.392   1_556 S
C725   H732    1.082   .     S
Cu726  O740    1.953   .     S
Cu726  O736    1.960   .     S
Cu726  O738    1.936   .     S
Cu726  O742    1.925   .     S
Cu726  N735    2.032   .     S
Cu726  Cu727   2.705   .     S
Cu727  O737    1.953   .     S
Cu727  N734    2.032   .     S
Cu727  O739    1.925   .     S
Cu727  O743    1.936   .     S
Cu727  O741    1.960   .     S
H728   C436    1.088   1_565 S
H729   N782    1.026   .     S
N734   N782    1.287   .     S
N734   O793    1.338   .     S
N735   H823    1.026   1_455 S
N735   N828    1.287   1_455 S
O744   H745    0.991   .     S
O746   N828    1.338   1_455 S
O746   H841    0.988   1_455 S
H747   O793    0.988   .     S
O748   C815    1.381   1_455 S
H749   O325    0.987   1_556 S
C753   O783    1.293   .     A
C753   O784    1.294   .     A
C753   C763    1.427   .     S
C754   C755    1.413   .     A
C754   C333    1.408   1_556 S
C754   C349    1.408   1_556 S
C755   C762    1.423   .     A
C755   C759    1.417   .     A
C756   C760    1.389   .     A
C757   C758    1.405   .     A
C757   C333    1.407   1_556 S
C757   C345    1.424   1_556 S
C758   C759    1.400   .     A
C758   H777    1.081   .     S
C759   I798    2.119   .     S
C760   I797    2.136   .     S
C760   C769    1.399   .     A
C761   O791    1.371   .     S
C761   C769    1.414   .     A
C761   C768    1.412   .     A
C762   C770    1.405   .     A
C762   C764    1.474   .     S
C763   C483    1.338   1_565 S
C763   I517    2.136   1_565 S
C764   O786    1.302   .     A
C764   O785    1.307   .     A
C765   C766    1.428   .     S
C766   O788    1.292   .     A
C766   O787    1.297   .     A
C767   O790    1.309   .     A
C767   C769    1.478   .     S
C767   O789    1.302   .     A
C768   O842    1.381   .     S
C770   H778    1.083   .     S
C770   C771    1.392   .     A
C771   H780    1.083   .     S
C771   C349    1.392   1_556 S
C772   H779    1.082   .     S
Cu773  O787    1.953   .     S
Cu773  O783    1.960   .     S
Cu773  O785    1.936   .     S
Cu773  O789    1.925   .     S
Cu773  N782    2.032   .     S
Cu773  Cu774   2.705   .     S
Cu774  O784    1.953   .     S
Cu774  N781    2.032   .     S
Cu774  O786    1.925   .     S
Cu774  O790    1.936   .     S
Cu774  O788    1.960   .     S
H775   C483    1.088   1_565 S
H776   N829    1.026   .     S
N781   N829    1.287   .     S
N781   O840    1.338   .     S
O791   H792    0.991   .     S
H794   O840    0.988   .     S
H796   O372    0.987   1_556 S
C800   O830    1.293   .     A
C800   O831    1.294   .     A
C800   C810    1.427   .     S
C801   C802    1.413   .     A
C801   C380    1.408   1_556 S
C801   C396    1.408   1_556 S
C802   C809    1.423   .     A
C802   C806    1.417   .     A
C803   C807    1.389   .     A
C804   C805    1.405   .     A
C804   C380    1.407   1_556 S
C804   C392    1.424   1_556 S
C805   C806    1.400   .     A
C805   H824    1.081   .     S
C806   I845    2.119   .     S
C807   I844    2.136   .     S
C807   C816    1.399   .     A
C808   O838    1.371   .     S
C808   C816    1.414   .     A
C808   C815    1.412   .     A
C809   C817    1.405   .     A
C809   C811    1.474   .     S
C810   C530    1.338   1_565 S
C810   I564    2.136   1_565 S
C811   O833    1.302   .     A
C811   O832    1.307   .     A
C812   C813    1.428   .     S
C813   O835    1.292   .     A
C813   O834    1.297   .     A
C814   O837    1.309   .     A
C814   C816    1.478   .     S
C814   O836    1.302   .     A
C815   O748    1.381   1_655 S
C817   H825    1.083   .     S
C817   C818    1.392   .     A
C818   H827    1.083   .     S
C818   C396    1.392   1_556 S
C819   H826    1.082   .     S
Cu820  O834    1.953   .     S
Cu820  O830    1.960   .     S
Cu820  O832    1.936   .     S
Cu820  O836    1.925   .     S
Cu820  N829    2.032   .     S
Cu820  Cu821   2.705   .     S
Cu821  O831    1.953   .     S
Cu821  N828    2.032   .     S
Cu821  O833    1.925   .     S
Cu821  O837    1.936   .     S
Cu821  O835    1.960   .     S
H822   C530    1.088   1_565 S
H823   N735    1.026   1_655 S
N828   N735    1.287   1_655 S
N828   O746    1.338   1_655 S
O838   H839    0.991   .     S
H841   O746    0.988   1_655 S
H843   O419    0.987   1_556 S
