data_str_m2_o1_o18_pcu_sym.203
_audit_creation_date              2020-01-03
_audit_creation_method            'Materials Studio'
_symmetry_space_group_name_H-M    'P1'
_symmetry_Int_Tables_number       1
_symmetry_cell_setting            triclinic
loop_
_symmetry_equiv_pos_as_xyz
  x,y,z
_cell_length_a                    28.5373
_cell_length_b                    32.4039
_cell_length_c                    30.7847
_cell_angle_alpha                 89.9835
_cell_angle_beta                  75.2271
_cell_angle_gamma                 89.9912
loop_
_atom_site_label
_atom_site_type_symbol
_atom_site_fract_x
_atom_site_fract_y
_atom_site_fract_z
_atom_site_U_iso_or_equiv
_atom_site_adp_type
_atom_site_occupancy
C1     C     0.00040   0.08744   0.24857   0.00000  Uiso   1.00
C2     C     0.33294   0.24589   0.25143   0.00000  Uiso   1.00
C3     C     0.19131   0.18878   0.04556   0.00000  Uiso   1.00
C4     C     0.14205   0.14450   0.45446   0.00000  Uiso   1.00
C5     C     0.23967   0.19434   0.02367   0.00000  Uiso   1.00
C6     C     0.09369   0.13894   0.47635   0.00000  Uiso   1.00
C7     C     0.30950   0.02028   0.22089   0.00000  Uiso   1.00
C8     C     0.02384   0.31305   0.27910   0.00000  Uiso   1.00
C9     C     0.30831   0.31083   0.22444   0.00000  Uiso   1.00
C10    C     0.02503   0.02250   0.27555   0.00000  Uiso   1.00
C11    C     0.33239   0.29054   0.25257   0.00000  Uiso   1.00
C12    C     0.00095   0.04280   0.24742   0.00000  Uiso   1.00
C13    C     0.18479   0.13806   0.27424   0.00000  Uiso   1.00
C14    C     0.14854   0.19528   0.22576   0.00000  Uiso   1.00
C15    C     0.13520   0.13803   0.27416   0.00000  Uiso   1.00
C16    C     0.19813   0.19531   0.22583   0.00000  Uiso   1.00
C17    C     0.30652   0.16670   0.33640   0.00000  Uiso   1.00
C18    C     0.02682   0.16664   0.16360   0.00000  Uiso   1.00
C19    C     0.29251   0.16881   0.38619   0.00000  Uiso   1.00
C20    C     0.04082   0.16453   0.11381   0.00000  Uiso   1.00
C21    C     0.30613   0.18950   0.45777   0.00000  Uiso   1.00
C22    C     0.02722   0.14380   0.04224   0.00000  Uiso   1.00
C23    C     0.32484   0.18056   0.41226   0.00000  Uiso   1.00
C24    C     0.00851   0.15274   0.08775   0.00000  Uiso   1.00
C25    C     0.24349   0.16224   0.40777   0.00000  Uiso   1.00
C26    C     0.08984   0.17112   0.09223   0.00000  Uiso   1.00
C27    C     0.22485   0.16875   0.45418   0.00000  Uiso   1.00
C28    C     0.10849   0.16458   0.04583   0.00000  Uiso   1.00
C29    C     0.25689   0.18411   0.47859   0.00000  Uiso   1.00
C30    C     0.07646   0.14919   0.02142   0.00000  Uiso   1.00
C31    C     0.17518   0.16165   0.47673   0.00000  Uiso   1.00
C32    C     0.15817   0.17166   0.02329   0.00000  Uiso   1.00
Cu33   Cu    0.04689   0.16667   0.25000   0.00000  Uiso   1.00
Cu34   Cu    0.28645   0.16666   0.25000   0.00000  Uiso   1.00
H35    H     0.26380   0.20735   0.04213   0.00000  Uiso   1.00
H36    H     0.06957   0.12591   0.45789   0.00000  Uiso   1.00
H37    H     0.11314   0.18027   0.11294   0.00000  Uiso   1.00
H38    H     0.22016   0.15314   0.38705   0.00000  Uiso   1.00
H39    H     0.33041   0.20017   0.47738   0.00000  Uiso   1.00
H40    H     0.00295   0.13311   0.02262   0.00000  Uiso   1.00
H41    H     0.18130   0.19874   0.08002   0.00000  Uiso   1.00
H42    H     0.15208   0.13451   0.42001   0.00000  Uiso   1.00
H43    H     0.29036   0.29296   0.20360   0.00000  Uiso   1.00
H44    H     0.04299   0.04037   0.29639   0.00000  Uiso   1.00
H45    H     0.19809   0.11519   0.29375   0.00000  Uiso   1.00
H46    H     0.13524   0.21815   0.20625   0.00000  Uiso   1.00
H47    H     0.11120   0.11505   0.29349   0.00000  Uiso   1.00
H48    H     0.22214   0.21828   0.20651   0.00000  Uiso   1.00
N49    N     0.11736   0.16668   0.24999   0.00000  Uiso   1.00
N50    N     0.21597   0.16666   0.25001   0.00000  Uiso   1.00
O51    O     0.03958   0.10655   0.25000   0.00000  Uiso   1.00
O52    O     0.29375   0.22678   0.25000   0.00000  Uiso   1.00
O53    O     0.29372   0.10654   0.25000   0.00000  Uiso   1.00
O54    O     0.03961   0.22679   0.24999   0.00000  Uiso   1.00
O55    O     0.01852   0.16668   0.31491   0.00000  Uiso   1.00
O56    O     0.31481   0.16666   0.18508   0.00000  Uiso   1.00
O57    O     0.27267   0.16667   0.31492   0.00000  Uiso   1.00
O58    O     0.06067   0.16667   0.18508   0.00000  Uiso   1.00
C59    C     0.28868   0.14931   0.10566   0.00000  Uiso   1.00
O60    O     0.26554   0.17813   0.12615   0.00000  Uiso   1.00
O61    O     0.26458   0.11430   0.09598   0.00000  Uiso   1.00
H62    H     0.22820   0.11598   0.10891   0.00000  Uiso   1.00
C63    C     0.04466   0.18397   0.39434   0.00000  Uiso   1.00
O64    O     0.06779   0.15514   0.37386   0.00000  Uiso   1.00
O65    O     0.06879   0.21899   0.40400   0.00000  Uiso   1.00
H66    H     0.10516   0.21729   0.39105   0.00000  Uiso   1.00
C67    C     0.28699   0.03977   0.18744   0.00000  Uiso   1.00
O68    O     0.30468   0.07085   0.16727   0.00000  Uiso   1.00
O69    O     0.24641   0.02154   0.17773   0.00000  Uiso   1.00
H70    H     0.23461   0.03737   0.15414   0.00000  Uiso   1.00
C71    C     0.04637   0.29356   0.31253   0.00000  Uiso   1.00
O72    O     0.02866   0.26251   0.33273   0.00000  Uiso   1.00
O73    O     0.08700   0.31176   0.32217   0.00000  Uiso   1.00
H74    H     0.09882   0.29593   0.34575   0.00000  Uiso   1.00
C75    C     0.33373   0.08744   0.24857   0.00000  Uiso   1.00
C76    C     0.66627   0.24589   0.25143   0.00000  Uiso   1.00
C77    C     0.52465   0.18878   0.04556   0.00000  Uiso   1.00
C78    C     0.47538   0.14450   0.45446   0.00000  Uiso   1.00
C79    C     0.57301   0.19434   0.02367   0.00000  Uiso   1.00
C80    C     0.42702   0.13894   0.47635   0.00000  Uiso   1.00
C81    C     0.64283   0.02028   0.22089   0.00000  Uiso   1.00
C82    C     0.35717   0.31305   0.27910   0.00000  Uiso   1.00
C83    C     0.64165   0.31083   0.22444   0.00000  Uiso   1.00
C84    C     0.35836   0.02250   0.27555   0.00000  Uiso   1.00
C85    C     0.66572   0.29054   0.25257   0.00000  Uiso   1.00
C86    C     0.33428   0.04280   0.24742   0.00000  Uiso   1.00
C87    C     0.51812   0.13806   0.27424   0.00000  Uiso   1.00
C88    C     0.48188   0.19528   0.22576   0.00000  Uiso   1.00
C89    C     0.46854   0.13803   0.27416   0.00000  Uiso   1.00
C90    C     0.53146   0.19531   0.22583   0.00000  Uiso   1.00
C91    C     0.63985   0.16670   0.33640   0.00000  Uiso   1.00
C92    C     0.36015   0.16664   0.16360   0.00000  Uiso   1.00
C93    C     0.62584   0.16881   0.38619   0.00000  Uiso   1.00
C94    C     0.37416   0.16453   0.11381   0.00000  Uiso   1.00
C95    C     0.63947   0.18950   0.45777   0.00000  Uiso   1.00
C96    C     0.36055   0.14380   0.04224   0.00000  Uiso   1.00
C97    C     0.65817   0.18056   0.41226   0.00000  Uiso   1.00
C98    C     0.34184   0.15274   0.08775   0.00000  Uiso   1.00
C99    C     0.57682   0.16224   0.40777   0.00000  Uiso   1.00
C100   C     0.42317   0.17112   0.09223   0.00000  Uiso   1.00
C101   C     0.55819   0.16875   0.45418   0.00000  Uiso   1.00
C102   C     0.44182   0.16458   0.04583   0.00000  Uiso   1.00
C103   C     0.59022   0.18411   0.47859   0.00000  Uiso   1.00
C104   C     0.40980   0.14919   0.02142   0.00000  Uiso   1.00
C105   C     0.50851   0.16165   0.47673   0.00000  Uiso   1.00
C106   C     0.49151   0.17166   0.02329   0.00000  Uiso   1.00
Cu107  Cu    0.38022   0.16667   0.25000   0.00000  Uiso   1.00
Cu108  Cu    0.61978   0.16666   0.25000   0.00000  Uiso   1.00
H109   H     0.59714   0.20735   0.04213   0.00000  Uiso   1.00
H110   H     0.40290   0.12591   0.45789   0.00000  Uiso   1.00
H111   H     0.44648   0.18027   0.11294   0.00000  Uiso   1.00
H112   H     0.55350   0.15314   0.38705   0.00000  Uiso   1.00
H113   H     0.66375   0.20017   0.47738   0.00000  Uiso   1.00
H114   H     0.33628   0.13311   0.02262   0.00000  Uiso   1.00
H115   H     0.51463   0.19874   0.08002   0.00000  Uiso   1.00
H116   H     0.48541   0.13451   0.42001   0.00000  Uiso   1.00
H117   H     0.62369   0.29296   0.20360   0.00000  Uiso   1.00
H118   H     0.37632   0.04037   0.29639   0.00000  Uiso   1.00
H119   H     0.53142   0.11519   0.29375   0.00000  Uiso   1.00
H120   H     0.46858   0.21815   0.20625   0.00000  Uiso   1.00
H121   H     0.44453   0.11505   0.29349   0.00000  Uiso   1.00
H122   H     0.55547   0.21828   0.20651   0.00000  Uiso   1.00
N123   N     0.45069   0.16668   0.24999   0.00000  Uiso   1.00
N124   N     0.54931   0.16666   0.25001   0.00000  Uiso   1.00
O125   O     0.37291   0.10655   0.25000   0.00000  Uiso   1.00
O126   O     0.62709   0.22678   0.25000   0.00000  Uiso   1.00
O127   O     0.62706   0.10654   0.25000   0.00000  Uiso   1.00
O128   O     0.37294   0.22679   0.24999   0.00000  Uiso   1.00
O129   O     0.35186   0.16668   0.31491   0.00000  Uiso   1.00
O130   O     0.64814   0.16666   0.18508   0.00000  Uiso   1.00
O131   O     0.60600   0.16667   0.31492   0.00000  Uiso   1.00
O132   O     0.39400   0.16667   0.18508   0.00000  Uiso   1.00
C133   C     0.62201   0.14931   0.10566   0.00000  Uiso   1.00
O134   O     0.59887   0.17813   0.12615   0.00000  Uiso   1.00
O135   O     0.59791   0.11430   0.09598   0.00000  Uiso   1.00
H136   H     0.56154   0.11598   0.10891   0.00000  Uiso   1.00
C137   C     0.37800   0.18397   0.39434   0.00000  Uiso   1.00
O138   O     0.40112   0.15514   0.37386   0.00000  Uiso   1.00
O139   O     0.40212   0.21899   0.40400   0.00000  Uiso   1.00
H140   H     0.43849   0.21729   0.39105   0.00000  Uiso   1.00
C141   C     0.62033   0.03977   0.18744   0.00000  Uiso   1.00
O142   O     0.63802   0.07085   0.16727   0.00000  Uiso   1.00
O143   O     0.57975   0.02154   0.17773   0.00000  Uiso   1.00
H144   H     0.56795   0.03737   0.15414   0.00000  Uiso   1.00
C145   C     0.37970   0.29356   0.31253   0.00000  Uiso   1.00
O146   O     0.36199   0.26251   0.33273   0.00000  Uiso   1.00
O147   O     0.42033   0.31176   0.32217   0.00000  Uiso   1.00
H148   H     0.43215   0.29593   0.34575   0.00000  Uiso   1.00
C149   C     0.66706   0.08744   0.24857   0.00000  Uiso   1.00
C150   C     0.99960   0.24589   0.25143   0.00000  Uiso   1.00
C151   C     0.85798   0.18878   0.04556   0.00000  Uiso   1.00
C152   C     0.80871   0.14450   0.45446   0.00000  Uiso   1.00
C153   C     0.90634   0.19434   0.02367   0.00000  Uiso   1.00
C154   C     0.76036   0.13894   0.47635   0.00000  Uiso   1.00
C155   C     0.97617   0.02028   0.22089   0.00000  Uiso   1.00
C156   C     0.69051   0.31305   0.27910   0.00000  Uiso   1.00
C157   C     0.97498   0.31083   0.22444   0.00000  Uiso   1.00
C158   C     0.69169   0.02250   0.27555   0.00000  Uiso   1.00
C159   C     0.99905   0.29054   0.25257   0.00000  Uiso   1.00
C160   C     0.66762   0.04280   0.24742   0.00000  Uiso   1.00
C161   C     0.85146   0.13806   0.27424   0.00000  Uiso   1.00
C162   C     0.81521   0.19528   0.22576   0.00000  Uiso   1.00
C163   C     0.80187   0.13803   0.27416   0.00000  Uiso   1.00
C164   C     0.86480   0.19531   0.22583   0.00000  Uiso   1.00
C165   C     0.97318   0.16670   0.33640   0.00000  Uiso   1.00
C166   C     0.69348   0.16664   0.16360   0.00000  Uiso   1.00
C167   C     0.95918   0.16881   0.38619   0.00000  Uiso   1.00
C168   C     0.70749   0.16453   0.11381   0.00000  Uiso   1.00
C169   C     0.97280   0.18950   0.45777   0.00000  Uiso   1.00
C170   C     0.69389   0.14380   0.04224   0.00000  Uiso   1.00
C171   C     0.99150   0.18056   0.41226   0.00000  Uiso   1.00
C172   C     0.67517   0.15274   0.08775   0.00000  Uiso   1.00
C173   C     0.91015   0.16224   0.40777   0.00000  Uiso   1.00
C174   C     0.75651   0.17112   0.09223   0.00000  Uiso   1.00
C175   C     0.89152   0.16875   0.45418   0.00000  Uiso   1.00
C176   C     0.77516   0.16458   0.04583   0.00000  Uiso   1.00
C177   C     0.92356   0.18411   0.47859   0.00000  Uiso   1.00
C178   C     0.74313   0.14919   0.02142   0.00000  Uiso   1.00
C179   C     0.84184   0.16165   0.47673   0.00000  Uiso   1.00
C180   C     0.82484   0.17166   0.02329   0.00000  Uiso   1.00
Cu181  Cu    0.71355   0.16667   0.25000   0.00000  Uiso   1.00
Cu182  Cu    0.95311   0.16666   0.25000   0.00000  Uiso   1.00
H183   H     0.93047   0.20735   0.04213   0.00000  Uiso   1.00
H184   H     0.73623   0.12591   0.45789   0.00000  Uiso   1.00
H185   H     0.77981   0.18027   0.11294   0.00000  Uiso   1.00
H186   H     0.88683   0.15314   0.38705   0.00000  Uiso   1.00
H187   H     0.99708   0.20017   0.47738   0.00000  Uiso   1.00
H188   H     0.66962   0.13311   0.02262   0.00000  Uiso   1.00
H189   H     0.84797   0.19874   0.08002   0.00000  Uiso   1.00
H190   H     0.81874   0.13451   0.42001   0.00000  Uiso   1.00
H191   H     0.95702   0.29296   0.20360   0.00000  Uiso   1.00
H192   H     0.70965   0.04037   0.29639   0.00000  Uiso   1.00
H193   H     0.86476   0.11519   0.29375   0.00000  Uiso   1.00
H194   H     0.80191   0.21815   0.20625   0.00000  Uiso   1.00
H195   H     0.77786   0.11505   0.29349   0.00000  Uiso   1.00
H196   H     0.88881   0.21828   0.20651   0.00000  Uiso   1.00
N197   N     0.78403   0.16668   0.24999   0.00000  Uiso   1.00
N198   N     0.88264   0.16666   0.25001   0.00000  Uiso   1.00
O199   O     0.70625   0.10655   0.25000   0.00000  Uiso   1.00
O200   O     0.96042   0.22678   0.25000   0.00000  Uiso   1.00
O201   O     0.96039   0.10654   0.25000   0.00000  Uiso   1.00
O202   O     0.70628   0.22679   0.24999   0.00000  Uiso   1.00
O203   O     0.68519   0.16668   0.31491   0.00000  Uiso   1.00
O204   O     0.98148   0.16666   0.18508   0.00000  Uiso   1.00
O205   O     0.93933   0.16667   0.31492   0.00000  Uiso   1.00
O206   O     0.72733   0.16667   0.18508   0.00000  Uiso   1.00
C207   C     0.95535   0.14931   0.10566   0.00000  Uiso   1.00
O208   O     0.93220   0.17813   0.12615   0.00000  Uiso   1.00
O209   O     0.93124   0.11430   0.09598   0.00000  Uiso   1.00
H210   H     0.89487   0.11598   0.10891   0.00000  Uiso   1.00
C211   C     0.71133   0.18397   0.39434   0.00000  Uiso   1.00
O212   O     0.73446   0.15514   0.37386   0.00000  Uiso   1.00
O213   O     0.73545   0.21899   0.40400   0.00000  Uiso   1.00
H214   H     0.77182   0.21729   0.39105   0.00000  Uiso   1.00
C215   C     0.95366   0.03977   0.18744   0.00000  Uiso   1.00
O216   O     0.97135   0.07085   0.16727   0.00000  Uiso   1.00
O217   O     0.91308   0.02154   0.17773   0.00000  Uiso   1.00
H218   H     0.90128   0.03737   0.15414   0.00000  Uiso   1.00
C219   C     0.71304   0.29356   0.31253   0.00000  Uiso   1.00
O220   O     0.69532   0.26251   0.33273   0.00000  Uiso   1.00
O221   O     0.75367   0.31176   0.32217   0.00000  Uiso   1.00
H222   H     0.76548   0.29593   0.34575   0.00000  Uiso   1.00
C223   C     0.00040   0.42078   0.24857   0.00000  Uiso   1.00
C224   C     0.33294   0.57922   0.25143   0.00000  Uiso   1.00
C225   C     0.19131   0.52211   0.04556   0.00000  Uiso   1.00
C226   C     0.14205   0.47784   0.45446   0.00000  Uiso   1.00
C227   C     0.23967   0.52768   0.02367   0.00000  Uiso   1.00
C228   C     0.09369   0.47227   0.47635   0.00000  Uiso   1.00
C229   C     0.30950   0.35361   0.22089   0.00000  Uiso   1.00
C230   C     0.02384   0.64639   0.27910   0.00000  Uiso   1.00
C231   C     0.30831   0.64417   0.22444   0.00000  Uiso   1.00
C232   C     0.02503   0.35583   0.27555   0.00000  Uiso   1.00
C233   C     0.33239   0.62387   0.25257   0.00000  Uiso   1.00
C234   C     0.00095   0.37613   0.24742   0.00000  Uiso   1.00
C235   C     0.18479   0.47139   0.27424   0.00000  Uiso   1.00
C236   C     0.14854   0.52861   0.22576   0.00000  Uiso   1.00
C237   C     0.13520   0.47136   0.27416   0.00000  Uiso   1.00
C238   C     0.19813   0.52864   0.22583   0.00000  Uiso   1.00
C239   C     0.30652   0.50003   0.33640   0.00000  Uiso   1.00
C240   C     0.02682   0.49997   0.16360   0.00000  Uiso   1.00
C241   C     0.29251   0.50214   0.38619   0.00000  Uiso   1.00
C242   C     0.04082   0.49786   0.11381   0.00000  Uiso   1.00
C243   C     0.30613   0.52283   0.45777   0.00000  Uiso   1.00
C244   C     0.02722   0.47713   0.04224   0.00000  Uiso   1.00
C245   C     0.32484   0.51390   0.41226   0.00000  Uiso   1.00
C246   C     0.00851   0.48607   0.08775   0.00000  Uiso   1.00
C247   C     0.24349   0.49557   0.40777   0.00000  Uiso   1.00
C248   C     0.08984   0.50445   0.09223   0.00000  Uiso   1.00
C249   C     0.22485   0.50208   0.45418   0.00000  Uiso   1.00
C250   C     0.10849   0.49791   0.04583   0.00000  Uiso   1.00
C251   C     0.25689   0.51745   0.47859   0.00000  Uiso   1.00
C252   C     0.07646   0.48252   0.02142   0.00000  Uiso   1.00
C253   C     0.17518   0.49498   0.47673   0.00000  Uiso   1.00
C254   C     0.15817   0.50500   0.02329   0.00000  Uiso   1.00
Cu255  Cu    0.04689   0.50001   0.25000   0.00000  Uiso   1.00
Cu256  Cu    0.28645   0.49999   0.25000   0.00000  Uiso   1.00
H257   H     0.26380   0.54069   0.04213   0.00000  Uiso   1.00
H258   H     0.06957   0.45924   0.45789   0.00000  Uiso   1.00
H259   H     0.11314   0.51361   0.11294   0.00000  Uiso   1.00
H260   H     0.22016   0.48648   0.38705   0.00000  Uiso   1.00
H261   H     0.33041   0.53350   0.47738   0.00000  Uiso   1.00
H262   H     0.00295   0.46644   0.02262   0.00000  Uiso   1.00
H263   H     0.18130   0.53207   0.08002   0.00000  Uiso   1.00
H264   H     0.15208   0.46784   0.42001   0.00000  Uiso   1.00
H265   H     0.29036   0.62629   0.20360   0.00000  Uiso   1.00
H266   H     0.04299   0.37370   0.29639   0.00000  Uiso   1.00
H267   H     0.19809   0.44852   0.29375   0.00000  Uiso   1.00
H268   H     0.13524   0.55148   0.20625   0.00000  Uiso   1.00
H269   H     0.11120   0.44838   0.29349   0.00000  Uiso   1.00
H270   H     0.22214   0.55161   0.20651   0.00000  Uiso   1.00
N271   N     0.11736   0.50001   0.24999   0.00000  Uiso   1.00
N272   N     0.21597   0.49999   0.25001   0.00000  Uiso   1.00
O273   O     0.03958   0.43989   0.25000   0.00000  Uiso   1.00
O274   O     0.29375   0.56011   0.25000   0.00000  Uiso   1.00
O275   O     0.29372   0.43988   0.25000   0.00000  Uiso   1.00
O276   O     0.03961   0.56012   0.24999   0.00000  Uiso   1.00
O277   O     0.01852   0.50001   0.31491   0.00000  Uiso   1.00
O278   O     0.31481   0.49999   0.18508   0.00000  Uiso   1.00
O279   O     0.27267   0.50000   0.31492   0.00000  Uiso   1.00
O280   O     0.06067   0.50000   0.18508   0.00000  Uiso   1.00
C281   C     0.28868   0.48265   0.10566   0.00000  Uiso   1.00
O282   O     0.26554   0.51146   0.12615   0.00000  Uiso   1.00
O283   O     0.26458   0.44763   0.09598   0.00000  Uiso   1.00
H284   H     0.22820   0.44931   0.10891   0.00000  Uiso   1.00
C285   C     0.04466   0.51731   0.39434   0.00000  Uiso   1.00
O286   O     0.06779   0.48848   0.37386   0.00000  Uiso   1.00
O287   O     0.06879   0.55232   0.40400   0.00000  Uiso   1.00
H288   H     0.10516   0.55063   0.39105   0.00000  Uiso   1.00
C289   C     0.28699   0.37310   0.18744   0.00000  Uiso   1.00
O290   O     0.30468   0.40418   0.16727   0.00000  Uiso   1.00
O291   O     0.24641   0.35487   0.17773   0.00000  Uiso   1.00
H292   H     0.23461   0.37070   0.15414   0.00000  Uiso   1.00
C293   C     0.04637   0.62690   0.31253   0.00000  Uiso   1.00
O294   O     0.02866   0.59584   0.33273   0.00000  Uiso   1.00
O295   O     0.08700   0.64509   0.32217   0.00000  Uiso   1.00
H296   H     0.09882   0.62927   0.34575   0.00000  Uiso   1.00
C297   C     0.33373   0.42078   0.24857   0.00000  Uiso   1.00
C298   C     0.66627   0.57922   0.25143   0.00000  Uiso   1.00
C299   C     0.52465   0.52211   0.04556   0.00000  Uiso   1.00
C300   C     0.47538   0.47784   0.45446   0.00000  Uiso   1.00
C301   C     0.57301   0.52768   0.02367   0.00000  Uiso   1.00
C302   C     0.42702   0.47227   0.47635   0.00000  Uiso   1.00
C303   C     0.64283   0.35361   0.22089   0.00000  Uiso   1.00
C304   C     0.35717   0.64639   0.27910   0.00000  Uiso   1.00
C305   C     0.64165   0.64417   0.22444   0.00000  Uiso   1.00
C306   C     0.35836   0.35583   0.27555   0.00000  Uiso   1.00
C307   C     0.66572   0.62387   0.25257   0.00000  Uiso   1.00
C308   C     0.33428   0.37613   0.24742   0.00000  Uiso   1.00
C309   C     0.51812   0.47139   0.27424   0.00000  Uiso   1.00
C310   C     0.48188   0.52861   0.22576   0.00000  Uiso   1.00
C311   C     0.46854   0.47136   0.27416   0.00000  Uiso   1.00
C312   C     0.53146   0.52864   0.22583   0.00000  Uiso   1.00
C313   C     0.63985   0.50003   0.33640   0.00000  Uiso   1.00
C314   C     0.36015   0.49997   0.16360   0.00000  Uiso   1.00
C315   C     0.62584   0.50214   0.38619   0.00000  Uiso   1.00
C316   C     0.37416   0.49786   0.11381   0.00000  Uiso   1.00
C317   C     0.63947   0.52283   0.45777   0.00000  Uiso   1.00
C318   C     0.36055   0.47713   0.04224   0.00000  Uiso   1.00
C319   C     0.65817   0.51390   0.41226   0.00000  Uiso   1.00
C320   C     0.34184   0.48607   0.08775   0.00000  Uiso   1.00
C321   C     0.57682   0.49557   0.40777   0.00000  Uiso   1.00
C322   C     0.42317   0.50445   0.09223   0.00000  Uiso   1.00
C323   C     0.55819   0.50208   0.45418   0.00000  Uiso   1.00
C324   C     0.44182   0.49791   0.04583   0.00000  Uiso   1.00
C325   C     0.59022   0.51745   0.47859   0.00000  Uiso   1.00
C326   C     0.40980   0.48252   0.02142   0.00000  Uiso   1.00
C327   C     0.50851   0.49498   0.47673   0.00000  Uiso   1.00
C328   C     0.49151   0.50500   0.02329   0.00000  Uiso   1.00
Cu329  Cu    0.38022   0.50001   0.25000   0.00000  Uiso   1.00
Cu330  Cu    0.61978   0.49999   0.25000   0.00000  Uiso   1.00
H331   H     0.59714   0.54069   0.04213   0.00000  Uiso   1.00
H332   H     0.40290   0.45924   0.45789   0.00000  Uiso   1.00
H333   H     0.44648   0.51361   0.11294   0.00000  Uiso   1.00
H334   H     0.55350   0.48648   0.38705   0.00000  Uiso   1.00
H335   H     0.66375   0.53350   0.47738   0.00000  Uiso   1.00
H336   H     0.33628   0.46644   0.02262   0.00000  Uiso   1.00
H337   H     0.51463   0.53207   0.08002   0.00000  Uiso   1.00
H338   H     0.48541   0.46784   0.42001   0.00000  Uiso   1.00
H339   H     0.62369   0.62629   0.20360   0.00000  Uiso   1.00
H340   H     0.37632   0.37370   0.29639   0.00000  Uiso   1.00
H341   H     0.53142   0.44852   0.29375   0.00000  Uiso   1.00
H342   H     0.46858   0.55148   0.20625   0.00000  Uiso   1.00
H343   H     0.44453   0.44838   0.29349   0.00000  Uiso   1.00
H344   H     0.55547   0.55161   0.20651   0.00000  Uiso   1.00
N345   N     0.45069   0.50001   0.24999   0.00000  Uiso   1.00
N346   N     0.54931   0.49999   0.25001   0.00000  Uiso   1.00
O347   O     0.37291   0.43989   0.25000   0.00000  Uiso   1.00
O348   O     0.62709   0.56011   0.25000   0.00000  Uiso   1.00
O349   O     0.62706   0.43988   0.25000   0.00000  Uiso   1.00
O350   O     0.37294   0.56012   0.24999   0.00000  Uiso   1.00
O351   O     0.35186   0.50001   0.31491   0.00000  Uiso   1.00
O352   O     0.64814   0.49999   0.18508   0.00000  Uiso   1.00
O353   O     0.60600   0.50000   0.31492   0.00000  Uiso   1.00
O354   O     0.39400   0.50000   0.18508   0.00000  Uiso   1.00
C355   C     0.62201   0.48265   0.10566   0.00000  Uiso   1.00
O356   O     0.59887   0.51146   0.12615   0.00000  Uiso   1.00
O357   O     0.59791   0.44763   0.09598   0.00000  Uiso   1.00
H358   H     0.56154   0.44931   0.10891   0.00000  Uiso   1.00
C359   C     0.37800   0.51731   0.39434   0.00000  Uiso   1.00
O360   O     0.40112   0.48848   0.37386   0.00000  Uiso   1.00
O361   O     0.40212   0.55232   0.40400   0.00000  Uiso   1.00
H362   H     0.43849   0.55063   0.39105   0.00000  Uiso   1.00
C363   C     0.62033   0.37310   0.18744   0.00000  Uiso   1.00
O364   O     0.63802   0.40418   0.16727   0.00000  Uiso   1.00
O365   O     0.57975   0.35487   0.17773   0.00000  Uiso   1.00
H366   H     0.56795   0.37070   0.15414   0.00000  Uiso   1.00
C367   C     0.37970   0.62690   0.31253   0.00000  Uiso   1.00
O368   O     0.36199   0.59584   0.33273   0.00000  Uiso   1.00
O369   O     0.42033   0.64509   0.32217   0.00000  Uiso   1.00
H370   H     0.43215   0.62927   0.34575   0.00000  Uiso   1.00
C371   C     0.66706   0.42078   0.24857   0.00000  Uiso   1.00
C372   C     0.99960   0.57922   0.25143   0.00000  Uiso   1.00
C373   C     0.85798   0.52211   0.04556   0.00000  Uiso   1.00
C374   C     0.80871   0.47784   0.45446   0.00000  Uiso   1.00
C375   C     0.90634   0.52768   0.02367   0.00000  Uiso   1.00
C376   C     0.76036   0.47227   0.47635   0.00000  Uiso   1.00
C377   C     0.97617   0.35361   0.22089   0.00000  Uiso   1.00
C378   C     0.69051   0.64639   0.27910   0.00000  Uiso   1.00
C379   C     0.97498   0.64417   0.22444   0.00000  Uiso   1.00
C380   C     0.69169   0.35583   0.27555   0.00000  Uiso   1.00
C381   C     0.99905   0.62387   0.25257   0.00000  Uiso   1.00
C382   C     0.66762   0.37613   0.24742   0.00000  Uiso   1.00
C383   C     0.85146   0.47139   0.27424   0.00000  Uiso   1.00
C384   C     0.81521   0.52861   0.22576   0.00000  Uiso   1.00
C385   C     0.80187   0.47136   0.27416   0.00000  Uiso   1.00
C386   C     0.86480   0.52864   0.22583   0.00000  Uiso   1.00
C387   C     0.97318   0.50003   0.33640   0.00000  Uiso   1.00
C388   C     0.69348   0.49997   0.16360   0.00000  Uiso   1.00
C389   C     0.95918   0.50214   0.38619   0.00000  Uiso   1.00
C390   C     0.70749   0.49786   0.11381   0.00000  Uiso   1.00
C391   C     0.97280   0.52283   0.45777   0.00000  Uiso   1.00
C392   C     0.69389   0.47713   0.04224   0.00000  Uiso   1.00
C393   C     0.99150   0.51390   0.41226   0.00000  Uiso   1.00
C394   C     0.67517   0.48607   0.08775   0.00000  Uiso   1.00
C395   C     0.91015   0.49557   0.40777   0.00000  Uiso   1.00
C396   C     0.75651   0.50445   0.09223   0.00000  Uiso   1.00
C397   C     0.89152   0.50208   0.45418   0.00000  Uiso   1.00
C398   C     0.77516   0.49791   0.04583   0.00000  Uiso   1.00
C399   C     0.92356   0.51745   0.47859   0.00000  Uiso   1.00
C400   C     0.74313   0.48252   0.02142   0.00000  Uiso   1.00
C401   C     0.84184   0.49498   0.47673   0.00000  Uiso   1.00
C402   C     0.82484   0.50500   0.02329   0.00000  Uiso   1.00
Cu403  Cu    0.71355   0.50001   0.25000   0.00000  Uiso   1.00
Cu404  Cu    0.95311   0.49999   0.25000   0.00000  Uiso   1.00
H405   H     0.93047   0.54069   0.04213   0.00000  Uiso   1.00
H406   H     0.73623   0.45924   0.45789   0.00000  Uiso   1.00
H407   H     0.77981   0.51361   0.11294   0.00000  Uiso   1.00
H408   H     0.88683   0.48648   0.38705   0.00000  Uiso   1.00
H409   H     0.99708   0.53350   0.47738   0.00000  Uiso   1.00
H410   H     0.66962   0.46644   0.02262   0.00000  Uiso   1.00
H411   H     0.84797   0.53207   0.08002   0.00000  Uiso   1.00
H412   H     0.81874   0.46784   0.42001   0.00000  Uiso   1.00
H413   H     0.95702   0.62629   0.20360   0.00000  Uiso   1.00
H414   H     0.70965   0.37370   0.29639   0.00000  Uiso   1.00
H415   H     0.86476   0.44852   0.29375   0.00000  Uiso   1.00
H416   H     0.80191   0.55148   0.20625   0.00000  Uiso   1.00
H417   H     0.77786   0.44838   0.29349   0.00000  Uiso   1.00
H418   H     0.88881   0.55161   0.20651   0.00000  Uiso   1.00
N419   N     0.78403   0.50001   0.24999   0.00000  Uiso   1.00
N420   N     0.88264   0.49999   0.25001   0.00000  Uiso   1.00
O421   O     0.70625   0.43989   0.25000   0.00000  Uiso   1.00
O422   O     0.96042   0.56011   0.25000   0.00000  Uiso   1.00
O423   O     0.96039   0.43988   0.25000   0.00000  Uiso   1.00
O424   O     0.70628   0.56012   0.24999   0.00000  Uiso   1.00
O425   O     0.68519   0.50001   0.31491   0.00000  Uiso   1.00
O426   O     0.98148   0.49999   0.18508   0.00000  Uiso   1.00
O427   O     0.93933   0.50000   0.31492   0.00000  Uiso   1.00
O428   O     0.72733   0.50000   0.18508   0.00000  Uiso   1.00
C429   C     0.95535   0.48265   0.10566   0.00000  Uiso   1.00
O430   O     0.93220   0.51146   0.12615   0.00000  Uiso   1.00
O431   O     0.93124   0.44763   0.09598   0.00000  Uiso   1.00
H432   H     0.89487   0.44931   0.10891   0.00000  Uiso   1.00
C433   C     0.71133   0.51731   0.39434   0.00000  Uiso   1.00
O434   O     0.73446   0.48848   0.37386   0.00000  Uiso   1.00
O435   O     0.73545   0.55232   0.40400   0.00000  Uiso   1.00
H436   H     0.77182   0.55063   0.39105   0.00000  Uiso   1.00
C437   C     0.95366   0.37310   0.18744   0.00000  Uiso   1.00
O438   O     0.97135   0.40418   0.16727   0.00000  Uiso   1.00
O439   O     0.91308   0.35487   0.17773   0.00000  Uiso   1.00
H440   H     0.90128   0.37070   0.15414   0.00000  Uiso   1.00
C441   C     0.71304   0.62690   0.31253   0.00000  Uiso   1.00
O442   O     0.69532   0.59584   0.33273   0.00000  Uiso   1.00
O443   O     0.75367   0.64509   0.32217   0.00000  Uiso   1.00
H444   H     0.76548   0.62927   0.34575   0.00000  Uiso   1.00
C445   C     0.00040   0.75411   0.24857   0.00000  Uiso   1.00
C446   C     0.33294   0.91256   0.25143   0.00000  Uiso   1.00
C447   C     0.19131   0.85545   0.04556   0.00000  Uiso   1.00
C448   C     0.14205   0.81117   0.45446   0.00000  Uiso   1.00
C449   C     0.23967   0.86101   0.02367   0.00000  Uiso   1.00
C450   C     0.09369   0.80560   0.47635   0.00000  Uiso   1.00
C451   C     0.30950   0.68695   0.22089   0.00000  Uiso   1.00
C452   C     0.02384   0.97972   0.27910   0.00000  Uiso   1.00
C453   C     0.30831   0.97750   0.22444   0.00000  Uiso   1.00
C454   C     0.02503   0.68917   0.27555   0.00000  Uiso   1.00
C455   C     0.33239   0.95720   0.25257   0.00000  Uiso   1.00
C456   C     0.00095   0.70946   0.24742   0.00000  Uiso   1.00
C457   C     0.18479   0.80472   0.27424   0.00000  Uiso   1.00
C458   C     0.14854   0.86194   0.22576   0.00000  Uiso   1.00
C459   C     0.13520   0.80469   0.27416   0.00000  Uiso   1.00
C460   C     0.19813   0.86197   0.22583   0.00000  Uiso   1.00
C461   C     0.30652   0.83336   0.33640   0.00000  Uiso   1.00
C462   C     0.02682   0.83331   0.16360   0.00000  Uiso   1.00
C463   C     0.29251   0.83547   0.38619   0.00000  Uiso   1.00
C464   C     0.04082   0.83120   0.11381   0.00000  Uiso   1.00
C465   C     0.30613   0.85617   0.45777   0.00000  Uiso   1.00
C466   C     0.02722   0.81046   0.04224   0.00000  Uiso   1.00
C467   C     0.32484   0.84723   0.41226   0.00000  Uiso   1.00
C468   C     0.00851   0.81941   0.08775   0.00000  Uiso   1.00
C469   C     0.24349   0.82891   0.40777   0.00000  Uiso   1.00
C470   C     0.08984   0.83779   0.09223   0.00000  Uiso   1.00
C471   C     0.22485   0.83541   0.45418   0.00000  Uiso   1.00
C472   C     0.10849   0.83124   0.04583   0.00000  Uiso   1.00
C473   C     0.25689   0.85078   0.47859   0.00000  Uiso   1.00
C474   C     0.07646   0.81585   0.02142   0.00000  Uiso   1.00
C475   C     0.17518   0.82832   0.47673   0.00000  Uiso   1.00
C476   C     0.15817   0.83833   0.02329   0.00000  Uiso   1.00
Cu477  Cu    0.04689   0.83334   0.25000   0.00000  Uiso   1.00
Cu478  Cu    0.28645   0.83333   0.25000   0.00000  Uiso   1.00
H479   H     0.26380   0.87402   0.04213   0.00000  Uiso   1.00
H480   H     0.06957   0.79257   0.45789   0.00000  Uiso   1.00
H481   H     0.11314   0.84694   0.11294   0.00000  Uiso   1.00
H482   H     0.22016   0.81981   0.38705   0.00000  Uiso   1.00
H483   H     0.33041   0.86683   0.47738   0.00000  Uiso   1.00
H484   H     0.00295   0.79978   0.02262   0.00000  Uiso   1.00
H485   H     0.18130   0.86540   0.08002   0.00000  Uiso   1.00
H486   H     0.15208   0.80117   0.42001   0.00000  Uiso   1.00
H487   H     0.29036   0.95963   0.20360   0.00000  Uiso   1.00
H488   H     0.04299   0.70704   0.29639   0.00000  Uiso   1.00
H489   H     0.19809   0.78185   0.29375   0.00000  Uiso   1.00
H490   H     0.13524   0.88481   0.20625   0.00000  Uiso   1.00
H491   H     0.11120   0.78172   0.29349   0.00000  Uiso   1.00
H492   H     0.22214   0.88495   0.20651   0.00000  Uiso   1.00
N493   N     0.11736   0.83334   0.24999   0.00000  Uiso   1.00
N494   N     0.21597   0.83332   0.25001   0.00000  Uiso   1.00
O495   O     0.03958   0.77322   0.25000   0.00000  Uiso   1.00
O496   O     0.29375   0.89345   0.25000   0.00000  Uiso   1.00
O497   O     0.29372   0.77321   0.25000   0.00000  Uiso   1.00
O498   O     0.03961   0.89346   0.24999   0.00000  Uiso   1.00
O499   O     0.01852   0.83334   0.31491   0.00000  Uiso   1.00
O500   O     0.31481   0.83332   0.18508   0.00000  Uiso   1.00
O501   O     0.27267   0.83333   0.31492   0.00000  Uiso   1.00
O502   O     0.06067   0.83333   0.18508   0.00000  Uiso   1.00
C503   C     0.28868   0.81598   0.10566   0.00000  Uiso   1.00
O504   O     0.26554   0.84480   0.12615   0.00000  Uiso   1.00
O505   O     0.26458   0.78096   0.09598   0.00000  Uiso   1.00
H506   H     0.22820   0.78265   0.10891   0.00000  Uiso   1.00
C507   C     0.04466   0.85064   0.39434   0.00000  Uiso   1.00
O508   O     0.06779   0.82181   0.37386   0.00000  Uiso   1.00
O509   O     0.06879   0.88565   0.40400   0.00000  Uiso   1.00
H510   H     0.10516   0.88396   0.39105   0.00000  Uiso   1.00
C511   C     0.28699   0.70644   0.18744   0.00000  Uiso   1.00
O512   O     0.30468   0.73751   0.16727   0.00000  Uiso   1.00
O513   O     0.24641   0.68821   0.17773   0.00000  Uiso   1.00
H514   H     0.23461   0.70403   0.15414   0.00000  Uiso   1.00
C515   C     0.04637   0.96023   0.31253   0.00000  Uiso   1.00
O516   O     0.02866   0.92918   0.33273   0.00000  Uiso   1.00
O517   O     0.08700   0.97843   0.32217   0.00000  Uiso   1.00
H518   H     0.09882   0.96260   0.34575   0.00000  Uiso   1.00
C519   C     0.33373   0.75411   0.24857   0.00000  Uiso   1.00
C520   C     0.66627   0.91256   0.25143   0.00000  Uiso   1.00
C521   C     0.52465   0.85545   0.04556   0.00000  Uiso   1.00
C522   C     0.47538   0.81117   0.45446   0.00000  Uiso   1.00
C523   C     0.57301   0.86101   0.02367   0.00000  Uiso   1.00
C524   C     0.42702   0.80560   0.47635   0.00000  Uiso   1.00
C525   C     0.64283   0.68695   0.22089   0.00000  Uiso   1.00
C526   C     0.35717   0.97972   0.27910   0.00000  Uiso   1.00
C527   C     0.64165   0.97750   0.22444   0.00000  Uiso   1.00
C528   C     0.35836   0.68917   0.27555   0.00000  Uiso   1.00
C529   C     0.66572   0.95720   0.25257   0.00000  Uiso   1.00
C530   C     0.33428   0.70946   0.24742   0.00000  Uiso   1.00
C531   C     0.51812   0.80472   0.27424   0.00000  Uiso   1.00
C532   C     0.48188   0.86194   0.22576   0.00000  Uiso   1.00
C533   C     0.46854   0.80469   0.27416   0.00000  Uiso   1.00
C534   C     0.53146   0.86197   0.22583   0.00000  Uiso   1.00
C535   C     0.63985   0.83336   0.33640   0.00000  Uiso   1.00
C536   C     0.36015   0.83331   0.16360   0.00000  Uiso   1.00
C537   C     0.62584   0.83547   0.38619   0.00000  Uiso   1.00
C538   C     0.37416   0.83120   0.11381   0.00000  Uiso   1.00
C539   C     0.63947   0.85617   0.45777   0.00000  Uiso   1.00
C540   C     0.36055   0.81046   0.04224   0.00000  Uiso   1.00
C541   C     0.65817   0.84723   0.41226   0.00000  Uiso   1.00
C542   C     0.34184   0.81941   0.08775   0.00000  Uiso   1.00
C543   C     0.57682   0.82891   0.40777   0.00000  Uiso   1.00
C544   C     0.42317   0.83779   0.09223   0.00000  Uiso   1.00
C545   C     0.55819   0.83541   0.45418   0.00000  Uiso   1.00
C546   C     0.44182   0.83124   0.04583   0.00000  Uiso   1.00
C547   C     0.59022   0.85078   0.47859   0.00000  Uiso   1.00
C548   C     0.40980   0.81585   0.02142   0.00000  Uiso   1.00
C549   C     0.50851   0.82832   0.47673   0.00000  Uiso   1.00
C550   C     0.49151   0.83833   0.02329   0.00000  Uiso   1.00
Cu551  Cu    0.38022   0.83334   0.25000   0.00000  Uiso   1.00
Cu552  Cu    0.61978   0.83333   0.25000   0.00000  Uiso   1.00
H553   H     0.59714   0.87402   0.04213   0.00000  Uiso   1.00
H554   H     0.40290   0.79257   0.45789   0.00000  Uiso   1.00
H555   H     0.44648   0.84694   0.11294   0.00000  Uiso   1.00
H556   H     0.55350   0.81981   0.38705   0.00000  Uiso   1.00
H557   H     0.66375   0.86683   0.47738   0.00000  Uiso   1.00
H558   H     0.33628   0.79978   0.02262   0.00000  Uiso   1.00
H559   H     0.51463   0.86540   0.08002   0.00000  Uiso   1.00
H560   H     0.48541   0.80117   0.42001   0.00000  Uiso   1.00
H561   H     0.62369   0.95963   0.20360   0.00000  Uiso   1.00
H562   H     0.37632   0.70704   0.29639   0.00000  Uiso   1.00
H563   H     0.53142   0.78185   0.29375   0.00000  Uiso   1.00
H564   H     0.46858   0.88481   0.20625   0.00000  Uiso   1.00
H565   H     0.44453   0.78172   0.29349   0.00000  Uiso   1.00
H566   H     0.55547   0.88495   0.20651   0.00000  Uiso   1.00
N567   N     0.45069   0.83334   0.24999   0.00000  Uiso   1.00
N568   N     0.54931   0.83332   0.25001   0.00000  Uiso   1.00
O569   O     0.37291   0.77322   0.25000   0.00000  Uiso   1.00
O570   O     0.62709   0.89345   0.25000   0.00000  Uiso   1.00
O571   O     0.62706   0.77321   0.25000   0.00000  Uiso   1.00
O572   O     0.37294   0.89346   0.24999   0.00000  Uiso   1.00
O573   O     0.35186   0.83334   0.31491   0.00000  Uiso   1.00
O574   O     0.64814   0.83332   0.18508   0.00000  Uiso   1.00
O575   O     0.60600   0.83333   0.31492   0.00000  Uiso   1.00
O576   O     0.39400   0.83333   0.18508   0.00000  Uiso   1.00
C577   C     0.62201   0.81598   0.10566   0.00000  Uiso   1.00
O578   O     0.59887   0.84480   0.12615   0.00000  Uiso   1.00
O579   O     0.59791   0.78096   0.09598   0.00000  Uiso   1.00
H580   H     0.56154   0.78265   0.10891   0.00000  Uiso   1.00
C581   C     0.37800   0.85064   0.39434   0.00000  Uiso   1.00
O582   O     0.40112   0.82181   0.37386   0.00000  Uiso   1.00
O583   O     0.40212   0.88565   0.40400   0.00000  Uiso   1.00
H584   H     0.43849   0.88396   0.39105   0.00000  Uiso   1.00
C585   C     0.62033   0.70644   0.18744   0.00000  Uiso   1.00
O586   O     0.63802   0.73751   0.16727   0.00000  Uiso   1.00
O587   O     0.57975   0.68821   0.17773   0.00000  Uiso   1.00
H588   H     0.56795   0.70403   0.15414   0.00000  Uiso   1.00
C589   C     0.37970   0.96023   0.31253   0.00000  Uiso   1.00
O590   O     0.36199   0.92918   0.33273   0.00000  Uiso   1.00
O591   O     0.42033   0.97843   0.32217   0.00000  Uiso   1.00
H592   H     0.43215   0.96260   0.34575   0.00000  Uiso   1.00
C593   C     0.66706   0.75411   0.24857   0.00000  Uiso   1.00
C594   C     0.99960   0.91256   0.25143   0.00000  Uiso   1.00
C595   C     0.85798   0.85545   0.04556   0.00000  Uiso   1.00
C596   C     0.80871   0.81117   0.45446   0.00000  Uiso   1.00
C597   C     0.90634   0.86101   0.02367   0.00000  Uiso   1.00
C598   C     0.76036   0.80560   0.47635   0.00000  Uiso   1.00
C599   C     0.97617   0.68695   0.22089   0.00000  Uiso   1.00
C600   C     0.69051   0.97972   0.27910   0.00000  Uiso   1.00
C601   C     0.97498   0.97750   0.22444   0.00000  Uiso   1.00
C602   C     0.69169   0.68917   0.27555   0.00000  Uiso   1.00
C603   C     0.99905   0.95720   0.25257   0.00000  Uiso   1.00
C604   C     0.66762   0.70946   0.24742   0.00000  Uiso   1.00
C605   C     0.85146   0.80472   0.27424   0.00000  Uiso   1.00
C606   C     0.81521   0.86194   0.22576   0.00000  Uiso   1.00
C607   C     0.80187   0.80469   0.27416   0.00000  Uiso   1.00
C608   C     0.86480   0.86197   0.22583   0.00000  Uiso   1.00
C609   C     0.97318   0.83336   0.33640   0.00000  Uiso   1.00
C610   C     0.69348   0.83331   0.16360   0.00000  Uiso   1.00
C611   C     0.95918   0.83547   0.38619   0.00000  Uiso   1.00
C612   C     0.70749   0.83120   0.11381   0.00000  Uiso   1.00
C613   C     0.97280   0.85617   0.45777   0.00000  Uiso   1.00
C614   C     0.69389   0.81046   0.04224   0.00000  Uiso   1.00
C615   C     0.99150   0.84723   0.41226   0.00000  Uiso   1.00
C616   C     0.67517   0.81941   0.08775   0.00000  Uiso   1.00
C617   C     0.91015   0.82891   0.40777   0.00000  Uiso   1.00
C618   C     0.75651   0.83779   0.09223   0.00000  Uiso   1.00
C619   C     0.89152   0.83541   0.45418   0.00000  Uiso   1.00
C620   C     0.77516   0.83124   0.04583   0.00000  Uiso   1.00
C621   C     0.92356   0.85078   0.47859   0.00000  Uiso   1.00
C622   C     0.74313   0.81585   0.02142   0.00000  Uiso   1.00
C623   C     0.84184   0.82832   0.47673   0.00000  Uiso   1.00
C624   C     0.82484   0.83833   0.02329   0.00000  Uiso   1.00
Cu625  Cu    0.71355   0.83334   0.25000   0.00000  Uiso   1.00
Cu626  Cu    0.95311   0.83333   0.25000   0.00000  Uiso   1.00
H627   H     0.93047   0.87402   0.04213   0.00000  Uiso   1.00
H628   H     0.73623   0.79257   0.45789   0.00000  Uiso   1.00
H629   H     0.77981   0.84694   0.11294   0.00000  Uiso   1.00
H630   H     0.88683   0.81981   0.38705   0.00000  Uiso   1.00
H631   H     0.99708   0.86683   0.47738   0.00000  Uiso   1.00
H632   H     0.66962   0.79978   0.02262   0.00000  Uiso   1.00
H633   H     0.84797   0.86540   0.08002   0.00000  Uiso   1.00
H634   H     0.81874   0.80117   0.42001   0.00000  Uiso   1.00
H635   H     0.95702   0.95963   0.20360   0.00000  Uiso   1.00
H636   H     0.70965   0.70704   0.29639   0.00000  Uiso   1.00
H637   H     0.86476   0.78185   0.29375   0.00000  Uiso   1.00
H638   H     0.80191   0.88481   0.20625   0.00000  Uiso   1.00
H639   H     0.77786   0.78172   0.29349   0.00000  Uiso   1.00
H640   H     0.88881   0.88495   0.20651   0.00000  Uiso   1.00
N641   N     0.78403   0.83334   0.24999   0.00000  Uiso   1.00
N642   N     0.88264   0.83332   0.25001   0.00000  Uiso   1.00
O643   O     0.70625   0.77322   0.25000   0.00000  Uiso   1.00
O644   O     0.96042   0.89345   0.25000   0.00000  Uiso   1.00
O645   O     0.96039   0.77321   0.25000   0.00000  Uiso   1.00
O646   O     0.70628   0.89346   0.24999   0.00000  Uiso   1.00
O647   O     0.68519   0.83334   0.31491   0.00000  Uiso   1.00
O648   O     0.98148   0.83332   0.18508   0.00000  Uiso   1.00
O649   O     0.93933   0.83333   0.31492   0.00000  Uiso   1.00
O650   O     0.72733   0.83333   0.18508   0.00000  Uiso   1.00
C651   C     0.95535   0.81598   0.10566   0.00000  Uiso   1.00
O652   O     0.93220   0.84480   0.12615   0.00000  Uiso   1.00
O653   O     0.93124   0.78096   0.09598   0.00000  Uiso   1.00
H654   H     0.89487   0.78265   0.10891   0.00000  Uiso   1.00
C655   C     0.71133   0.85064   0.39434   0.00000  Uiso   1.00
O656   O     0.73446   0.82181   0.37386   0.00000  Uiso   1.00
O657   O     0.73545   0.88565   0.40400   0.00000  Uiso   1.00
H658   H     0.77182   0.88396   0.39105   0.00000  Uiso   1.00
C659   C     0.95366   0.70644   0.18744   0.00000  Uiso   1.00
O660   O     0.97135   0.73751   0.16727   0.00000  Uiso   1.00
O661   O     0.91308   0.68821   0.17773   0.00000  Uiso   1.00
H662   H     0.90128   0.70403   0.15414   0.00000  Uiso   1.00
C663   C     0.71304   0.96023   0.31253   0.00000  Uiso   1.00
O664   O     0.69532   0.92918   0.33273   0.00000  Uiso   1.00
O665   O     0.75367   0.97843   0.32217   0.00000  Uiso   1.00
H666   H     0.76548   0.96260   0.34575   0.00000  Uiso   1.00
C667   C     0.00040   0.08744   0.74857   0.00000  Uiso   1.00
C668   C     0.33294   0.24589   0.75143   0.00000  Uiso   1.00
C669   C     0.19131   0.18878   0.54556   0.00000  Uiso   1.00
C670   C     0.14205   0.14450   0.95446   0.00000  Uiso   1.00
C671   C     0.23967   0.19434   0.52367   0.00000  Uiso   1.00
C672   C     0.09369   0.13894   0.97635   0.00000  Uiso   1.00
C673   C     0.30950   0.02028   0.72089   0.00000  Uiso   1.00
C674   C     0.02384   0.31305   0.77910   0.00000  Uiso   1.00
C675   C     0.30831   0.31083   0.72444   0.00000  Uiso   1.00
C676   C     0.02503   0.02250   0.77555   0.00000  Uiso   1.00
C677   C     0.33239   0.29054   0.75257   0.00000  Uiso   1.00
C678   C     0.00095   0.04280   0.74742   0.00000  Uiso   1.00
C679   C     0.18479   0.13806   0.77424   0.00000  Uiso   1.00
C680   C     0.14854   0.19528   0.72576   0.00000  Uiso   1.00
C681   C     0.13520   0.13803   0.77416   0.00000  Uiso   1.00
C682   C     0.19813   0.19531   0.72583   0.00000  Uiso   1.00
C683   C     0.30652   0.16670   0.83640   0.00000  Uiso   1.00
C684   C     0.02682   0.16664   0.66360   0.00000  Uiso   1.00
C685   C     0.29251   0.16881   0.88619   0.00000  Uiso   1.00
C686   C     0.04082   0.16453   0.61381   0.00000  Uiso   1.00
C687   C     0.30613   0.18950   0.95777   0.00000  Uiso   1.00
C688   C     0.02722   0.14380   0.54224   0.00000  Uiso   1.00
C689   C     0.32484   0.18056   0.91226   0.00000  Uiso   1.00
C690   C     0.00851   0.15274   0.58775   0.00000  Uiso   1.00
C691   C     0.24349   0.16224   0.90777   0.00000  Uiso   1.00
C692   C     0.08984   0.17112   0.59223   0.00000  Uiso   1.00
C693   C     0.22485   0.16875   0.95418   0.00000  Uiso   1.00
C694   C     0.10849   0.16458   0.54583   0.00000  Uiso   1.00
C695   C     0.25689   0.18411   0.97859   0.00000  Uiso   1.00
C696   C     0.07646   0.14919   0.52142   0.00000  Uiso   1.00
C697   C     0.17518   0.16165   0.97673   0.00000  Uiso   1.00
C698   C     0.15817   0.17166   0.52329   0.00000  Uiso   1.00
Cu699  Cu    0.04689   0.16667   0.75000   0.00000  Uiso   1.00
Cu700  Cu    0.28645   0.16666   0.75000   0.00000  Uiso   1.00
H701   H     0.26380   0.20735   0.54213   0.00000  Uiso   1.00
H702   H     0.06957   0.12591   0.95789   0.00000  Uiso   1.00
H703   H     0.11314   0.18027   0.61294   0.00000  Uiso   1.00
H704   H     0.22016   0.15314   0.88705   0.00000  Uiso   1.00
H705   H     0.33041   0.20017   0.97738   0.00000  Uiso   1.00
H706   H     0.00295   0.13311   0.52262   0.00000  Uiso   1.00
H707   H     0.18130   0.19874   0.58002   0.00000  Uiso   1.00
H708   H     0.15208   0.13451   0.92001   0.00000  Uiso   1.00
H709   H     0.29036   0.29296   0.70360   0.00000  Uiso   1.00
H710   H     0.04299   0.04037   0.79639   0.00000  Uiso   1.00
H711   H     0.19809   0.11519   0.79375   0.00000  Uiso   1.00
H712   H     0.13524   0.21815   0.70625   0.00000  Uiso   1.00
H713   H     0.11120   0.11505   0.79349   0.00000  Uiso   1.00
H714   H     0.22214   0.21828   0.70651   0.00000  Uiso   1.00
N715   N     0.11736   0.16668   0.74999   0.00000  Uiso   1.00
N716   N     0.21597   0.16666   0.75001   0.00000  Uiso   1.00
O717   O     0.03958   0.10655   0.75000   0.00000  Uiso   1.00
O718   O     0.29375   0.22678   0.75000   0.00000  Uiso   1.00
O719   O     0.29372   0.10654   0.75000   0.00000  Uiso   1.00
O720   O     0.03961   0.22679   0.74999   0.00000  Uiso   1.00
O721   O     0.01852   0.16668   0.81491   0.00000  Uiso   1.00
O722   O     0.31481   0.16666   0.68508   0.00000  Uiso   1.00
O723   O     0.27267   0.16667   0.81492   0.00000  Uiso   1.00
O724   O     0.06067   0.16667   0.68508   0.00000  Uiso   1.00
C725   C     0.28868   0.14931   0.60566   0.00000  Uiso   1.00
O726   O     0.26554   0.17813   0.62615   0.00000  Uiso   1.00
O727   O     0.26458   0.11430   0.59598   0.00000  Uiso   1.00
H728   H     0.22820   0.11598   0.60891   0.00000  Uiso   1.00
C729   C     0.04466   0.18397   0.89434   0.00000  Uiso   1.00
O730   O     0.06779   0.15514   0.87386   0.00000  Uiso   1.00
O731   O     0.06879   0.21899   0.90400   0.00000  Uiso   1.00
H732   H     0.10516   0.21729   0.89105   0.00000  Uiso   1.00
C733   C     0.28699   0.03977   0.68744   0.00000  Uiso   1.00
O734   O     0.30468   0.07085   0.66727   0.00000  Uiso   1.00
O735   O     0.24641   0.02154   0.67773   0.00000  Uiso   1.00
H736   H     0.23461   0.03737   0.65414   0.00000  Uiso   1.00
C737   C     0.04637   0.29356   0.81253   0.00000  Uiso   1.00
O738   O     0.02866   0.26251   0.83273   0.00000  Uiso   1.00
O739   O     0.08700   0.31176   0.82217   0.00000  Uiso   1.00
H740   H     0.09882   0.29593   0.84575   0.00000  Uiso   1.00
C741   C     0.33373   0.08744   0.74857   0.00000  Uiso   1.00
C742   C     0.66627   0.24589   0.75143   0.00000  Uiso   1.00
C743   C     0.52465   0.18878   0.54556   0.00000  Uiso   1.00
C744   C     0.47538   0.14450   0.95446   0.00000  Uiso   1.00
C745   C     0.57301   0.19434   0.52367   0.00000  Uiso   1.00
C746   C     0.42702   0.13894   0.97635   0.00000  Uiso   1.00
C747   C     0.64283   0.02028   0.72089   0.00000  Uiso   1.00
C748   C     0.35717   0.31305   0.77910   0.00000  Uiso   1.00
C749   C     0.64165   0.31083   0.72444   0.00000  Uiso   1.00
C750   C     0.35836   0.02250   0.77555   0.00000  Uiso   1.00
C751   C     0.66572   0.29054   0.75257   0.00000  Uiso   1.00
C752   C     0.33428   0.04280   0.74742   0.00000  Uiso   1.00
C753   C     0.51812   0.13806   0.77424   0.00000  Uiso   1.00
C754   C     0.48188   0.19528   0.72576   0.00000  Uiso   1.00
C755   C     0.46854   0.13803   0.77416   0.00000  Uiso   1.00
C756   C     0.53146   0.19531   0.72583   0.00000  Uiso   1.00
C757   C     0.63985   0.16670   0.83640   0.00000  Uiso   1.00
C758   C     0.36015   0.16664   0.66360   0.00000  Uiso   1.00
C759   C     0.62584   0.16881   0.88619   0.00000  Uiso   1.00
C760   C     0.37416   0.16453   0.61381   0.00000  Uiso   1.00
C761   C     0.63947   0.18950   0.95777   0.00000  Uiso   1.00
C762   C     0.36055   0.14380   0.54224   0.00000  Uiso   1.00
C763   C     0.65817   0.18056   0.91226   0.00000  Uiso   1.00
C764   C     0.34184   0.15274   0.58775   0.00000  Uiso   1.00
C765   C     0.57682   0.16224   0.90777   0.00000  Uiso   1.00
C766   C     0.42317   0.17112   0.59223   0.00000  Uiso   1.00
C767   C     0.55819   0.16875   0.95418   0.00000  Uiso   1.00
C768   C     0.44182   0.16458   0.54583   0.00000  Uiso   1.00
C769   C     0.59022   0.18411   0.97859   0.00000  Uiso   1.00
C770   C     0.40980   0.14919   0.52142   0.00000  Uiso   1.00
C771   C     0.50851   0.16165   0.97673   0.00000  Uiso   1.00
C772   C     0.49151   0.17166   0.52329   0.00000  Uiso   1.00
Cu773  Cu    0.38022   0.16667   0.75000   0.00000  Uiso   1.00
Cu774  Cu    0.61978   0.16666   0.75000   0.00000  Uiso   1.00
H775   H     0.59714   0.20735   0.54213   0.00000  Uiso   1.00
H776   H     0.40290   0.12591   0.95789   0.00000  Uiso   1.00
H777   H     0.44648   0.18027   0.61294   0.00000  Uiso   1.00
H778   H     0.55350   0.15314   0.88705   0.00000  Uiso   1.00
H779   H     0.66375   0.20017   0.97738   0.00000  Uiso   1.00
H780   H     0.33628   0.13311   0.52262   0.00000  Uiso   1.00
H781   H     0.51463   0.19874   0.58002   0.00000  Uiso   1.00
H782   H     0.48541   0.13451   0.92001   0.00000  Uiso   1.00
H783   H     0.62369   0.29296   0.70360   0.00000  Uiso   1.00
H784   H     0.37632   0.04037   0.79639   0.00000  Uiso   1.00
H785   H     0.53142   0.11519   0.79375   0.00000  Uiso   1.00
H786   H     0.46858   0.21815   0.70625   0.00000  Uiso   1.00
H787   H     0.44453   0.11505   0.79349   0.00000  Uiso   1.00
H788   H     0.55547   0.21828   0.70651   0.00000  Uiso   1.00
N789   N     0.45069   0.16668   0.74999   0.00000  Uiso   1.00
N790   N     0.54931   0.16666   0.75001   0.00000  Uiso   1.00
O791   O     0.37291   0.10655   0.75000   0.00000  Uiso   1.00
O792   O     0.62709   0.22678   0.75000   0.00000  Uiso   1.00
O793   O     0.62706   0.10654   0.75000   0.00000  Uiso   1.00
O794   O     0.37294   0.22679   0.74999   0.00000  Uiso   1.00
O795   O     0.35186   0.16668   0.81491   0.00000  Uiso   1.00
O796   O     0.64814   0.16666   0.68508   0.00000  Uiso   1.00
O797   O     0.60600   0.16667   0.81492   0.00000  Uiso   1.00
O798   O     0.39400   0.16667   0.68508   0.00000  Uiso   1.00
C799   C     0.62201   0.14931   0.60566   0.00000  Uiso   1.00
O800   O     0.59887   0.17813   0.62615   0.00000  Uiso   1.00
O801   O     0.59791   0.11430   0.59598   0.00000  Uiso   1.00
H802   H     0.56154   0.11598   0.60891   0.00000  Uiso   1.00
C803   C     0.37800   0.18397   0.89434   0.00000  Uiso   1.00
O804   O     0.40112   0.15514   0.87386   0.00000  Uiso   1.00
O805   O     0.40212   0.21899   0.90400   0.00000  Uiso   1.00
H806   H     0.43849   0.21729   0.89105   0.00000  Uiso   1.00
C807   C     0.62033   0.03977   0.68744   0.00000  Uiso   1.00
O808   O     0.63802   0.07085   0.66727   0.00000  Uiso   1.00
O809   O     0.57975   0.02154   0.67773   0.00000  Uiso   1.00
H810   H     0.56795   0.03737   0.65414   0.00000  Uiso   1.00
C811   C     0.37970   0.29356   0.81253   0.00000  Uiso   1.00
O812   O     0.36199   0.26251   0.83273   0.00000  Uiso   1.00
O813   O     0.42033   0.31176   0.82217   0.00000  Uiso   1.00
H814   H     0.43215   0.29593   0.84575   0.00000  Uiso   1.00
C815   C     0.66706   0.08744   0.74857   0.00000  Uiso   1.00
C816   C     0.99960   0.24589   0.75143   0.00000  Uiso   1.00
C817   C     0.85798   0.18878   0.54556   0.00000  Uiso   1.00
C818   C     0.80871   0.14450   0.95446   0.00000  Uiso   1.00
C819   C     0.90634   0.19434   0.52367   0.00000  Uiso   1.00
C820   C     0.76036   0.13894   0.97635   0.00000  Uiso   1.00
C821   C     0.97617   0.02028   0.72089   0.00000  Uiso   1.00
C822   C     0.69051   0.31305   0.77910   0.00000  Uiso   1.00
C823   C     0.97498   0.31083   0.72444   0.00000  Uiso   1.00
C824   C     0.69169   0.02250   0.77555   0.00000  Uiso   1.00
C825   C     0.99905   0.29054   0.75257   0.00000  Uiso   1.00
C826   C     0.66762   0.04280   0.74742   0.00000  Uiso   1.00
C827   C     0.85146   0.13806   0.77424   0.00000  Uiso   1.00
C828   C     0.81521   0.19528   0.72576   0.00000  Uiso   1.00
C829   C     0.80187   0.13803   0.77416   0.00000  Uiso   1.00
C830   C     0.86480   0.19531   0.72583   0.00000  Uiso   1.00
C831   C     0.97318   0.16670   0.83640   0.00000  Uiso   1.00
C832   C     0.69348   0.16664   0.66360   0.00000  Uiso   1.00
C833   C     0.95918   0.16881   0.88619   0.00000  Uiso   1.00
C834   C     0.70749   0.16453   0.61381   0.00000  Uiso   1.00
C835   C     0.97280   0.18950   0.95777   0.00000  Uiso   1.00
C836   C     0.69389   0.14380   0.54224   0.00000  Uiso   1.00
C837   C     0.99150   0.18056   0.91226   0.00000  Uiso   1.00
C838   C     0.67517   0.15274   0.58775   0.00000  Uiso   1.00
C839   C     0.91015   0.16224   0.90777   0.00000  Uiso   1.00
C840   C     0.75651   0.17112   0.59223   0.00000  Uiso   1.00
C841   C     0.89152   0.16875   0.95418   0.00000  Uiso   1.00
C842   C     0.77516   0.16458   0.54583   0.00000  Uiso   1.00
C843   C     0.92356   0.18411   0.97859   0.00000  Uiso   1.00
C844   C     0.74313   0.14919   0.52142   0.00000  Uiso   1.00
C845   C     0.84184   0.16165   0.97673   0.00000  Uiso   1.00
C846   C     0.82484   0.17166   0.52329   0.00000  Uiso   1.00
Cu847  Cu    0.71355   0.16667   0.75000   0.00000  Uiso   1.00
Cu848  Cu    0.95311   0.16666   0.75000   0.00000  Uiso   1.00
H849   H     0.93047   0.20735   0.54213   0.00000  Uiso   1.00
H850   H     0.73623   0.12591   0.95789   0.00000  Uiso   1.00
H851   H     0.77981   0.18027   0.61294   0.00000  Uiso   1.00
H852   H     0.88683   0.15314   0.88705   0.00000  Uiso   1.00
H853   H     0.99708   0.20017   0.97738   0.00000  Uiso   1.00
H854   H     0.66962   0.13311   0.52262   0.00000  Uiso   1.00
H855   H     0.84797   0.19874   0.58002   0.00000  Uiso   1.00
H856   H     0.81874   0.13451   0.92001   0.00000  Uiso   1.00
H857   H     0.95702   0.29296   0.70360   0.00000  Uiso   1.00
H858   H     0.70965   0.04037   0.79639   0.00000  Uiso   1.00
H859   H     0.86476   0.11519   0.79375   0.00000  Uiso   1.00
H860   H     0.80191   0.21815   0.70625   0.00000  Uiso   1.00
H861   H     0.77786   0.11505   0.79349   0.00000  Uiso   1.00
H862   H     0.88881   0.21828   0.70651   0.00000  Uiso   1.00
N863   N     0.78403   0.16668   0.74999   0.00000  Uiso   1.00
N864   N     0.88264   0.16666   0.75001   0.00000  Uiso   1.00
O865   O     0.70625   0.10655   0.75000   0.00000  Uiso   1.00
O866   O     0.96042   0.22678   0.75000   0.00000  Uiso   1.00
O867   O     0.96039   0.10654   0.75000   0.00000  Uiso   1.00
O868   O     0.70628   0.22679   0.74999   0.00000  Uiso   1.00
O869   O     0.68519   0.16668   0.81491   0.00000  Uiso   1.00
O870   O     0.98148   0.16666   0.68508   0.00000  Uiso   1.00
O871   O     0.93933   0.16667   0.81492   0.00000  Uiso   1.00
O872   O     0.72733   0.16667   0.68508   0.00000  Uiso   1.00
C873   C     0.95535   0.14931   0.60566   0.00000  Uiso   1.00
O874   O     0.93220   0.17813   0.62615   0.00000  Uiso   1.00
O875   O     0.93124   0.11430   0.59598   0.00000  Uiso   1.00
H876   H     0.89487   0.11598   0.60891   0.00000  Uiso   1.00
C877   C     0.71133   0.18397   0.89434   0.00000  Uiso   1.00
O878   O     0.73446   0.15514   0.87386   0.00000  Uiso   1.00
O879   O     0.73545   0.21899   0.90400   0.00000  Uiso   1.00
H880   H     0.77182   0.21729   0.89105   0.00000  Uiso   1.00
C881   C     0.95366   0.03977   0.68744   0.00000  Uiso   1.00
O882   O     0.97135   0.07085   0.66727   0.00000  Uiso   1.00
O883   O     0.91308   0.02154   0.67773   0.00000  Uiso   1.00
H884   H     0.90128   0.03737   0.65414   0.00000  Uiso   1.00
C885   C     0.71304   0.29356   0.81253   0.00000  Uiso   1.00
O886   O     0.69532   0.26251   0.83273   0.00000  Uiso   1.00
O887   O     0.75367   0.31176   0.82217   0.00000  Uiso   1.00
H888   H     0.76548   0.29593   0.84575   0.00000  Uiso   1.00
C889   C     0.00040   0.42078   0.74857   0.00000  Uiso   1.00
C890   C     0.33294   0.57922   0.75143   0.00000  Uiso   1.00
C891   C     0.19131   0.52211   0.54556   0.00000  Uiso   1.00
C892   C     0.14205   0.47784   0.95446   0.00000  Uiso   1.00
C893   C     0.23967   0.52768   0.52367   0.00000  Uiso   1.00
C894   C     0.09369   0.47227   0.97635   0.00000  Uiso   1.00
C895   C     0.30950   0.35361   0.72089   0.00000  Uiso   1.00
C896   C     0.02384   0.64639   0.77910   0.00000  Uiso   1.00
C897   C     0.30831   0.64417   0.72444   0.00000  Uiso   1.00
C898   C     0.02503   0.35583   0.77555   0.00000  Uiso   1.00
C899   C     0.33239   0.62387   0.75257   0.00000  Uiso   1.00
C900   C     0.00095   0.37613   0.74742   0.00000  Uiso   1.00
C901   C     0.18479   0.47139   0.77424   0.00000  Uiso   1.00
C902   C     0.14854   0.52861   0.72576   0.00000  Uiso   1.00
C903   C     0.13520   0.47136   0.77416   0.00000  Uiso   1.00
C904   C     0.19813   0.52864   0.72583   0.00000  Uiso   1.00
C905   C     0.30652   0.50003   0.83640   0.00000  Uiso   1.00
C906   C     0.02682   0.49997   0.66360   0.00000  Uiso   1.00
C907   C     0.29251   0.50214   0.88619   0.00000  Uiso   1.00
C908   C     0.04082   0.49786   0.61381   0.00000  Uiso   1.00
C909   C     0.30613   0.52283   0.95777   0.00000  Uiso   1.00
C910   C     0.02722   0.47713   0.54224   0.00000  Uiso   1.00
C911   C     0.32484   0.51390   0.91226   0.00000  Uiso   1.00
C912   C     0.00851   0.48607   0.58775   0.00000  Uiso   1.00
C913   C     0.24349   0.49557   0.90777   0.00000  Uiso   1.00
C914   C     0.08984   0.50445   0.59223   0.00000  Uiso   1.00
C915   C     0.22485   0.50208   0.95418   0.00000  Uiso   1.00
C916   C     0.10849   0.49791   0.54583   0.00000  Uiso   1.00
C917   C     0.25689   0.51745   0.97859   0.00000  Uiso   1.00
C918   C     0.07646   0.48252   0.52142   0.00000  Uiso   1.00
C919   C     0.17518   0.49498   0.97673   0.00000  Uiso   1.00
C920   C     0.15817   0.50500   0.52329   0.00000  Uiso   1.00
Cu921  Cu    0.04689   0.50001   0.75000   0.00000  Uiso   1.00
Cu922  Cu    0.28645   0.49999   0.75000   0.00000  Uiso   1.00
H923   H     0.26380   0.54069   0.54213   0.00000  Uiso   1.00
H924   H     0.06957   0.45924   0.95789   0.00000  Uiso   1.00
H925   H     0.11314   0.51361   0.61294   0.00000  Uiso   1.00
H926   H     0.22016   0.48648   0.88705   0.00000  Uiso   1.00
H927   H     0.33041   0.53350   0.97738   0.00000  Uiso   1.00
H928   H     0.00295   0.46644   0.52262   0.00000  Uiso   1.00
H929   H     0.18130   0.53207   0.58002   0.00000  Uiso   1.00
H930   H     0.15208   0.46784   0.92001   0.00000  Uiso   1.00
H931   H     0.29036   0.62629   0.70360   0.00000  Uiso   1.00
H932   H     0.04299   0.37370   0.79639   0.00000  Uiso   1.00
H933   H     0.19809   0.44852   0.79375   0.00000  Uiso   1.00
H934   H     0.13524   0.55148   0.70625   0.00000  Uiso   1.00
H935   H     0.11120   0.44838   0.79349   0.00000  Uiso   1.00
H936   H     0.22214   0.55161   0.70651   0.00000  Uiso   1.00
N937   N     0.11736   0.50001   0.74999   0.00000  Uiso   1.00
N938   N     0.21597   0.49999   0.75001   0.00000  Uiso   1.00
O939   O     0.03958   0.43989   0.75000   0.00000  Uiso   1.00
O940   O     0.29375   0.56011   0.75000   0.00000  Uiso   1.00
O941   O     0.29372   0.43988   0.75000   0.00000  Uiso   1.00
O942   O     0.03961   0.56012   0.74999   0.00000  Uiso   1.00
O943   O     0.01852   0.50001   0.81491   0.00000  Uiso   1.00
O944   O     0.31481   0.49999   0.68508   0.00000  Uiso   1.00
O945   O     0.27267   0.50000   0.81492   0.00000  Uiso   1.00
O946   O     0.06067   0.50000   0.68508   0.00000  Uiso   1.00
C947   C     0.28868   0.48265   0.60566   0.00000  Uiso   1.00
O948   O     0.26554   0.51146   0.62615   0.00000  Uiso   1.00
O949   O     0.26458   0.44763   0.59598   0.00000  Uiso   1.00
H950   H     0.22820   0.44931   0.60891   0.00000  Uiso   1.00
C951   C     0.04466   0.51731   0.89434   0.00000  Uiso   1.00
O952   O     0.06779   0.48848   0.87386   0.00000  Uiso   1.00
O953   O     0.06879   0.55232   0.90400   0.00000  Uiso   1.00
H954   H     0.10516   0.55063   0.89105   0.00000  Uiso   1.00
C955   C     0.28699   0.37310   0.68744   0.00000  Uiso   1.00
O956   O     0.30468   0.40418   0.66727   0.00000  Uiso   1.00
O957   O     0.24641   0.35487   0.67773   0.00000  Uiso   1.00
H958   H     0.23461   0.37070   0.65414   0.00000  Uiso   1.00
C959   C     0.04637   0.62690   0.81253   0.00000  Uiso   1.00
O960   O     0.02866   0.59584   0.83273   0.00000  Uiso   1.00
O961   O     0.08700   0.64509   0.82217   0.00000  Uiso   1.00
H962   H     0.09882   0.62927   0.84575   0.00000  Uiso   1.00
C963   C     0.33373   0.42078   0.74857   0.00000  Uiso   1.00
C964   C     0.66627   0.57922   0.75143   0.00000  Uiso   1.00
C965   C     0.52465   0.52211   0.54556   0.00000  Uiso   1.00
C966   C     0.47538   0.47784   0.95446   0.00000  Uiso   1.00
C967   C     0.57301   0.52768   0.52367   0.00000  Uiso   1.00
C968   C     0.42702   0.47227   0.97635   0.00000  Uiso   1.00
C969   C     0.64283   0.35361   0.72089   0.00000  Uiso   1.00
C970   C     0.35717   0.64639   0.77910   0.00000  Uiso   1.00
C971   C     0.64165   0.64417   0.72444   0.00000  Uiso   1.00
C972   C     0.35836   0.35583   0.77555   0.00000  Uiso   1.00
C973   C     0.66572   0.62387   0.75257   0.00000  Uiso   1.00
C974   C     0.33428   0.37613   0.74742   0.00000  Uiso   1.00
C975   C     0.51812   0.47139   0.77424   0.00000  Uiso   1.00
C976   C     0.48188   0.52861   0.72576   0.00000  Uiso   1.00
C977   C     0.46854   0.47136   0.77416   0.00000  Uiso   1.00
C978   C     0.53146   0.52864   0.72583   0.00000  Uiso   1.00
C979   C     0.63985   0.50003   0.83640   0.00000  Uiso   1.00
C980   C     0.36015   0.49997   0.66360   0.00000  Uiso   1.00
C981   C     0.62584   0.50214   0.88619   0.00000  Uiso   1.00
C982   C     0.37416   0.49786   0.61381   0.00000  Uiso   1.00
C983   C     0.63947   0.52283   0.95777   0.00000  Uiso   1.00
C984   C     0.36055   0.47713   0.54224   0.00000  Uiso   1.00
C985   C     0.65817   0.51390   0.91226   0.00000  Uiso   1.00
C986   C     0.34184   0.48607   0.58775   0.00000  Uiso   1.00
C987   C     0.57682   0.49557   0.90777   0.00000  Uiso   1.00
C988   C     0.42317   0.50445   0.59223   0.00000  Uiso   1.00
C989   C     0.55819   0.50208   0.95418   0.00000  Uiso   1.00
C990   C     0.44182   0.49791   0.54583   0.00000  Uiso   1.00
C991   C     0.59022   0.51745   0.97859   0.00000  Uiso   1.00
C992   C     0.40980   0.48252   0.52142   0.00000  Uiso   1.00
C993   C     0.50851   0.49498   0.97673   0.00000  Uiso   1.00
C994   C     0.49151   0.50500   0.52329   0.00000  Uiso   1.00
Cu995  Cu    0.38022   0.50001   0.75000   0.00000  Uiso   1.00
Cu996  Cu    0.61978   0.49999   0.75000   0.00000  Uiso   1.00
H997   H     0.59714   0.54069   0.54213   0.00000  Uiso   1.00
H998   H     0.40290   0.45924   0.95789   0.00000  Uiso   1.00
H999   H     0.44648   0.51361   0.61294   0.00000  Uiso   1.00
H1000  H     0.55350   0.48648   0.88705   0.00000  Uiso   1.00
H1001  H     0.66375   0.53350   0.97738   0.00000  Uiso   1.00
H1002  H     0.33628   0.46644   0.52262   0.00000  Uiso   1.00
H1003  H     0.51463   0.53207   0.58002   0.00000  Uiso   1.00
H1004  H     0.48541   0.46784   0.92001   0.00000  Uiso   1.00
H1005  H     0.62369   0.62629   0.70360   0.00000  Uiso   1.00
H1006  H     0.37632   0.37370   0.79639   0.00000  Uiso   1.00
H1007  H     0.53142   0.44852   0.79375   0.00000  Uiso   1.00
H1008  H     0.46858   0.55148   0.70625   0.00000  Uiso   1.00
H1009  H     0.44453   0.44838   0.79349   0.00000  Uiso   1.00
H1010  H     0.55547   0.55161   0.70651   0.00000  Uiso   1.00
N1011  N     0.45069   0.50001   0.74999   0.00000  Uiso   1.00
N1012  N     0.54931   0.49999   0.75001   0.00000  Uiso   1.00
O1013  O     0.37291   0.43989   0.75000   0.00000  Uiso   1.00
O1014  O     0.62709   0.56011   0.75000   0.00000  Uiso   1.00
O1015  O     0.62706   0.43988   0.75000   0.00000  Uiso   1.00
O1016  O     0.37294   0.56012   0.74999   0.00000  Uiso   1.00
O1017  O     0.35186   0.50001   0.81491   0.00000  Uiso   1.00
O1018  O     0.64814   0.49999   0.68508   0.00000  Uiso   1.00
O1019  O     0.60600   0.50000   0.81492   0.00000  Uiso   1.00
O1020  O     0.39400   0.50000   0.68508   0.00000  Uiso   1.00
C1021  C     0.62201   0.48265   0.60566   0.00000  Uiso   1.00
O1022  O     0.59887   0.51146   0.62615   0.00000  Uiso   1.00
O1023  O     0.59791   0.44763   0.59598   0.00000  Uiso   1.00
H1024  H     0.56154   0.44931   0.60891   0.00000  Uiso   1.00
C1025  C     0.37800   0.51731   0.89434   0.00000  Uiso   1.00
O1026  O     0.40112   0.48848   0.87386   0.00000  Uiso   1.00
O1027  O     0.40212   0.55232   0.90400   0.00000  Uiso   1.00
H1028  H     0.43849   0.55063   0.89105   0.00000  Uiso   1.00
C1029  C     0.62033   0.37310   0.68744   0.00000  Uiso   1.00
O1030  O     0.63802   0.40418   0.66727   0.00000  Uiso   1.00
O1031  O     0.57975   0.35487   0.67773   0.00000  Uiso   1.00
H1032  H     0.56795   0.37070   0.65414   0.00000  Uiso   1.00
C1033  C     0.37970   0.62690   0.81253   0.00000  Uiso   1.00
O1034  O     0.36199   0.59584   0.83273   0.00000  Uiso   1.00
O1035  O     0.42033   0.64509   0.82217   0.00000  Uiso   1.00
H1036  H     0.43215   0.62927   0.84575   0.00000  Uiso   1.00
C1037  C     0.66706   0.42078   0.74857   0.00000  Uiso   1.00
C1038  C     0.99960   0.57922   0.75143   0.00000  Uiso   1.00
C1039  C     0.85798   0.52211   0.54556   0.00000  Uiso   1.00
C1040  C     0.80871   0.47784   0.95446   0.00000  Uiso   1.00
C1041  C     0.90634   0.52768   0.52367   0.00000  Uiso   1.00
C1042  C     0.76036   0.47227   0.97635   0.00000  Uiso   1.00
C1043  C     0.97617   0.35361   0.72089   0.00000  Uiso   1.00
C1044  C     0.69051   0.64639   0.77910   0.00000  Uiso   1.00
C1045  C     0.97498   0.64417   0.72444   0.00000  Uiso   1.00
C1046  C     0.69169   0.35583   0.77555   0.00000  Uiso   1.00
C1047  C     0.99905   0.62387   0.75257   0.00000  Uiso   1.00
C1048  C     0.66762   0.37613   0.74742   0.00000  Uiso   1.00
C1049  C     0.85146   0.47139   0.77424   0.00000  Uiso   1.00
C1050  C     0.81521   0.52861   0.72576   0.00000  Uiso   1.00
C1051  C     0.80187   0.47136   0.77416   0.00000  Uiso   1.00
C1052  C     0.86480   0.52864   0.72583   0.00000  Uiso   1.00
C1053  C     0.97318   0.50003   0.83640   0.00000  Uiso   1.00
C1054  C     0.69348   0.49997   0.66360   0.00000  Uiso   1.00
C1055  C     0.95918   0.50214   0.88619   0.00000  Uiso   1.00
C1056  C     0.70749   0.49786   0.61381   0.00000  Uiso   1.00
C1057  C     0.97280   0.52283   0.95777   0.00000  Uiso   1.00
C1058  C     0.69389   0.47713   0.54224   0.00000  Uiso   1.00
C1059  C     0.99150   0.51390   0.91226   0.00000  Uiso   1.00
C1060  C     0.67517   0.48607   0.58775   0.00000  Uiso   1.00
C1061  C     0.91015   0.49557   0.90777   0.00000  Uiso   1.00
C1062  C     0.75651   0.50445   0.59223   0.00000  Uiso   1.00
C1063  C     0.89152   0.50208   0.95418   0.00000  Uiso   1.00
C1064  C     0.77516   0.49791   0.54583   0.00000  Uiso   1.00
C1065  C     0.92356   0.51745   0.97859   0.00000  Uiso   1.00
C1066  C     0.74313   0.48252   0.52142   0.00000  Uiso   1.00
C1067  C     0.84184   0.49498   0.97673   0.00000  Uiso   1.00
C1068  C     0.82484   0.50500   0.52329   0.00000  Uiso   1.00
Cu1069 Cu    0.71355   0.50001   0.75000   0.00000  Uiso   1.00
Cu1070 Cu    0.95311   0.49999   0.75000   0.00000  Uiso   1.00
H1071  H     0.93047   0.54069   0.54213   0.00000  Uiso   1.00
H1072  H     0.73623   0.45924   0.95789   0.00000  Uiso   1.00
H1073  H     0.77981   0.51361   0.61294   0.00000  Uiso   1.00
H1074  H     0.88683   0.48648   0.88705   0.00000  Uiso   1.00
H1075  H     0.99708   0.53350   0.97738   0.00000  Uiso   1.00
H1076  H     0.66962   0.46644   0.52262   0.00000  Uiso   1.00
H1077  H     0.84797   0.53207   0.58002   0.00000  Uiso   1.00
H1078  H     0.81874   0.46784   0.92001   0.00000  Uiso   1.00
H1079  H     0.95702   0.62629   0.70360   0.00000  Uiso   1.00
H1080  H     0.70965   0.37370   0.79639   0.00000  Uiso   1.00
H1081  H     0.86476   0.44852   0.79375   0.00000  Uiso   1.00
H1082  H     0.80191   0.55148   0.70625   0.00000  Uiso   1.00
H1083  H     0.77786   0.44838   0.79349   0.00000  Uiso   1.00
H1084  H     0.88881   0.55161   0.70651   0.00000  Uiso   1.00
N1085  N     0.78403   0.50001   0.74999   0.00000  Uiso   1.00
N1086  N     0.88264   0.49999   0.75001   0.00000  Uiso   1.00
O1087  O     0.70625   0.43989   0.75000   0.00000  Uiso   1.00
O1088  O     0.96042   0.56011   0.75000   0.00000  Uiso   1.00
O1089  O     0.96039   0.43988   0.75000   0.00000  Uiso   1.00
O1090  O     0.70628   0.56012   0.74999   0.00000  Uiso   1.00
O1091  O     0.68519   0.50001   0.81491   0.00000  Uiso   1.00
O1092  O     0.98148   0.49999   0.68508   0.00000  Uiso   1.00
O1093  O     0.93933   0.50000   0.81492   0.00000  Uiso   1.00
O1094  O     0.72733   0.50000   0.68508   0.00000  Uiso   1.00
C1095  C     0.95535   0.48265   0.60566   0.00000  Uiso   1.00
O1096  O     0.93220   0.51146   0.62615   0.00000  Uiso   1.00
O1097  O     0.93124   0.44763   0.59598   0.00000  Uiso   1.00
H1098  H     0.89487   0.44931   0.60891   0.00000  Uiso   1.00
C1099  C     0.71133   0.51731   0.89434   0.00000  Uiso   1.00
O1100  O     0.73446   0.48848   0.87386   0.00000  Uiso   1.00
O1101  O     0.73545   0.55232   0.90400   0.00000  Uiso   1.00
H1102  H     0.77182   0.55063   0.89105   0.00000  Uiso   1.00
C1103  C     0.95366   0.37310   0.68744   0.00000  Uiso   1.00
O1104  O     0.97135   0.40418   0.66727   0.00000  Uiso   1.00
O1105  O     0.91308   0.35487   0.67773   0.00000  Uiso   1.00
H1106  H     0.90128   0.37070   0.65414   0.00000  Uiso   1.00
C1107  C     0.71304   0.62690   0.81253   0.00000  Uiso   1.00
O1108  O     0.69532   0.59584   0.83273   0.00000  Uiso   1.00
O1109  O     0.75367   0.64509   0.82217   0.00000  Uiso   1.00
H1110  H     0.76548   0.62927   0.84575   0.00000  Uiso   1.00
C1111  C     0.00040   0.75411   0.74857   0.00000  Uiso   1.00
C1112  C     0.33294   0.91256   0.75143   0.00000  Uiso   1.00
C1113  C     0.19131   0.85545   0.54556   0.00000  Uiso   1.00
C1114  C     0.14205   0.81117   0.95446   0.00000  Uiso   1.00
C1115  C     0.23967   0.86101   0.52367   0.00000  Uiso   1.00
C1116  C     0.09369   0.80560   0.97635   0.00000  Uiso   1.00
C1117  C     0.30950   0.68695   0.72089   0.00000  Uiso   1.00
C1118  C     0.02384   0.97972   0.77910   0.00000  Uiso   1.00
C1119  C     0.30831   0.97750   0.72444   0.00000  Uiso   1.00
C1120  C     0.02503   0.68917   0.77555   0.00000  Uiso   1.00
C1121  C     0.33239   0.95720   0.75257   0.00000  Uiso   1.00
C1122  C     0.00095   0.70946   0.74742   0.00000  Uiso   1.00
C1123  C     0.18479   0.80472   0.77424   0.00000  Uiso   1.00
C1124  C     0.14854   0.86194   0.72576   0.00000  Uiso   1.00
C1125  C     0.13520   0.80469   0.77416   0.00000  Uiso   1.00
C1126  C     0.19813   0.86197   0.72583   0.00000  Uiso   1.00
C1127  C     0.30652   0.83336   0.83640   0.00000  Uiso   1.00
C1128  C     0.02682   0.83331   0.66360   0.00000  Uiso   1.00
C1129  C     0.29251   0.83547   0.88619   0.00000  Uiso   1.00
C1130  C     0.04082   0.83120   0.61381   0.00000  Uiso   1.00
C1131  C     0.30613   0.85617   0.95777   0.00000  Uiso   1.00
C1132  C     0.02722   0.81046   0.54224   0.00000  Uiso   1.00
C1133  C     0.32484   0.84723   0.91226   0.00000  Uiso   1.00
C1134  C     0.00851   0.81941   0.58775   0.00000  Uiso   1.00
C1135  C     0.24349   0.82891   0.90777   0.00000  Uiso   1.00
C1136  C     0.08984   0.83779   0.59223   0.00000  Uiso   1.00
C1137  C     0.22485   0.83541   0.95418   0.00000  Uiso   1.00
C1138  C     0.10849   0.83124   0.54583   0.00000  Uiso   1.00
C1139  C     0.25689   0.85078   0.97859   0.00000  Uiso   1.00
C1140  C     0.07646   0.81585   0.52142   0.00000  Uiso   1.00
C1141  C     0.17518   0.82832   0.97673   0.00000  Uiso   1.00
C1142  C     0.15817   0.83833   0.52329   0.00000  Uiso   1.00
Cu1143 Cu    0.04689   0.83334   0.75000   0.00000  Uiso   1.00
Cu1144 Cu    0.28645   0.83333   0.75000   0.00000  Uiso   1.00
H1145  H     0.26380   0.87402   0.54213   0.00000  Uiso   1.00
H1146  H     0.06957   0.79257   0.95789   0.00000  Uiso   1.00
H1147  H     0.11314   0.84694   0.61294   0.00000  Uiso   1.00
H1148  H     0.22016   0.81981   0.88705   0.00000  Uiso   1.00
H1149  H     0.33041   0.86683   0.97738   0.00000  Uiso   1.00
H1150  H     0.00295   0.79978   0.52262   0.00000  Uiso   1.00
H1151  H     0.18130   0.86540   0.58002   0.00000  Uiso   1.00
H1152  H     0.15208   0.80117   0.92001   0.00000  Uiso   1.00
H1153  H     0.29036   0.95963   0.70360   0.00000  Uiso   1.00
H1154  H     0.04299   0.70704   0.79639   0.00000  Uiso   1.00
H1155  H     0.19809   0.78185   0.79375   0.00000  Uiso   1.00
H1156  H     0.13524   0.88481   0.70625   0.00000  Uiso   1.00
H1157  H     0.11120   0.78172   0.79349   0.00000  Uiso   1.00
H1158  H     0.22214   0.88495   0.70651   0.00000  Uiso   1.00
N1159  N     0.11736   0.83334   0.74999   0.00000  Uiso   1.00
N1160  N     0.21597   0.83332   0.75001   0.00000  Uiso   1.00
O1161  O     0.03958   0.77322   0.75000   0.00000  Uiso   1.00
O1162  O     0.29375   0.89345   0.75000   0.00000  Uiso   1.00
O1163  O     0.29372   0.77321   0.75000   0.00000  Uiso   1.00
O1164  O     0.03961   0.89346   0.74999   0.00000  Uiso   1.00
O1165  O     0.01852   0.83334   0.81491   0.00000  Uiso   1.00
O1166  O     0.31481   0.83332   0.68508   0.00000  Uiso   1.00
O1167  O     0.27267   0.83333   0.81492   0.00000  Uiso   1.00
O1168  O     0.06067   0.83333   0.68508   0.00000  Uiso   1.00
C1169  C     0.28868   0.81598   0.60566   0.00000  Uiso   1.00
O1170  O     0.26554   0.84480   0.62615   0.00000  Uiso   1.00
O1171  O     0.26458   0.78096   0.59598   0.00000  Uiso   1.00
H1172  H     0.22820   0.78265   0.60891   0.00000  Uiso   1.00
C1173  C     0.04466   0.85064   0.89434   0.00000  Uiso   1.00
O1174  O     0.06779   0.82181   0.87386   0.00000  Uiso   1.00
O1175  O     0.06879   0.88565   0.90400   0.00000  Uiso   1.00
H1176  H     0.10516   0.88396   0.89105   0.00000  Uiso   1.00
C1177  C     0.28699   0.70644   0.68744   0.00000  Uiso   1.00
O1178  O     0.30468   0.73751   0.66727   0.00000  Uiso   1.00
O1179  O     0.24641   0.68821   0.67773   0.00000  Uiso   1.00
H1180  H     0.23461   0.70403   0.65414   0.00000  Uiso   1.00
C1181  C     0.04637   0.96023   0.81253   0.00000  Uiso   1.00
O1182  O     0.02866   0.92918   0.83273   0.00000  Uiso   1.00
O1183  O     0.08700   0.97843   0.82217   0.00000  Uiso   1.00
H1184  H     0.09882   0.96260   0.84575   0.00000  Uiso   1.00
C1185  C     0.33373   0.75411   0.74857   0.00000  Uiso   1.00
C1186  C     0.66627   0.91256   0.75143   0.00000  Uiso   1.00
C1187  C     0.52465   0.85545   0.54556   0.00000  Uiso   1.00
C1188  C     0.47538   0.81117   0.95446   0.00000  Uiso   1.00
C1189  C     0.57301   0.86101   0.52367   0.00000  Uiso   1.00
C1190  C     0.42702   0.80560   0.97635   0.00000  Uiso   1.00
C1191  C     0.64283   0.68695   0.72089   0.00000  Uiso   1.00
C1192  C     0.35717   0.97972   0.77910   0.00000  Uiso   1.00
C1193  C     0.64165   0.97750   0.72444   0.00000  Uiso   1.00
C1194  C     0.35836   0.68917   0.77555   0.00000  Uiso   1.00
C1195  C     0.66572   0.95720   0.75257   0.00000  Uiso   1.00
C1196  C     0.33428   0.70946   0.74742   0.00000  Uiso   1.00
C1197  C     0.51812   0.80472   0.77424   0.00000  Uiso   1.00
C1198  C     0.48188   0.86194   0.72576   0.00000  Uiso   1.00
C1199  C     0.46854   0.80469   0.77416   0.00000  Uiso   1.00
C1200  C     0.53146   0.86197   0.72583   0.00000  Uiso   1.00
C1201  C     0.63985   0.83336   0.83640   0.00000  Uiso   1.00
C1202  C     0.36015   0.83331   0.66360   0.00000  Uiso   1.00
C1203  C     0.62584   0.83547   0.88619   0.00000  Uiso   1.00
C1204  C     0.37416   0.83120   0.61381   0.00000  Uiso   1.00
C1205  C     0.63947   0.85617   0.95777   0.00000  Uiso   1.00
C1206  C     0.36055   0.81046   0.54224   0.00000  Uiso   1.00
C1207  C     0.65817   0.84723   0.91226   0.00000  Uiso   1.00
C1208  C     0.34184   0.81941   0.58775   0.00000  Uiso   1.00
C1209  C     0.57682   0.82891   0.90777   0.00000  Uiso   1.00
C1210  C     0.42317   0.83779   0.59223   0.00000  Uiso   1.00
C1211  C     0.55819   0.83541   0.95418   0.00000  Uiso   1.00
C1212  C     0.44182   0.83124   0.54583   0.00000  Uiso   1.00
C1213  C     0.59022   0.85078   0.97859   0.00000  Uiso   1.00
C1214  C     0.40980   0.81585   0.52142   0.00000  Uiso   1.00
C1215  C     0.50851   0.82832   0.97673   0.00000  Uiso   1.00
C1216  C     0.49151   0.83833   0.52329   0.00000  Uiso   1.00
Cu1217 Cu    0.38022   0.83334   0.75000   0.00000  Uiso   1.00
Cu1218 Cu    0.61978   0.83333   0.75000   0.00000  Uiso   1.00
H1219  H     0.59714   0.87402   0.54213   0.00000  Uiso   1.00
H1220  H     0.40290   0.79257   0.95789   0.00000  Uiso   1.00
H1221  H     0.44648   0.84694   0.61294   0.00000  Uiso   1.00
H1222  H     0.55350   0.81981   0.88705   0.00000  Uiso   1.00
H1223  H     0.66375   0.86683   0.97738   0.00000  Uiso   1.00
H1224  H     0.33628   0.79978   0.52262   0.00000  Uiso   1.00
H1225  H     0.51463   0.86540   0.58002   0.00000  Uiso   1.00
H1226  H     0.48541   0.80117   0.92001   0.00000  Uiso   1.00
H1227  H     0.62369   0.95963   0.70360   0.00000  Uiso   1.00
H1228  H     0.37632   0.70704   0.79639   0.00000  Uiso   1.00
H1229  H     0.53142   0.78185   0.79375   0.00000  Uiso   1.00
H1230  H     0.46858   0.88481   0.70625   0.00000  Uiso   1.00
H1231  H     0.44453   0.78172   0.79349   0.00000  Uiso   1.00
H1232  H     0.55547   0.88495   0.70651   0.00000  Uiso   1.00
N1233  N     0.45069   0.83334   0.74999   0.00000  Uiso   1.00
N1234  N     0.54931   0.83332   0.75001   0.00000  Uiso   1.00
O1235  O     0.37291   0.77322   0.75000   0.00000  Uiso   1.00
O1236  O     0.62709   0.89345   0.75000   0.00000  Uiso   1.00
O1237  O     0.62706   0.77321   0.75000   0.00000  Uiso   1.00
O1238  O     0.37294   0.89346   0.74999   0.00000  Uiso   1.00
O1239  O     0.35186   0.83334   0.81491   0.00000  Uiso   1.00
O1240  O     0.64814   0.83332   0.68508   0.00000  Uiso   1.00
O1241  O     0.60600   0.83333   0.81492   0.00000  Uiso   1.00
O1242  O     0.39400   0.83333   0.68508   0.00000  Uiso   1.00
C1243  C     0.62201   0.81598   0.60566   0.00000  Uiso   1.00
O1244  O     0.59887   0.84480   0.62615   0.00000  Uiso   1.00
O1245  O     0.59791   0.78096   0.59598   0.00000  Uiso   1.00
H1246  H     0.56154   0.78265   0.60891   0.00000  Uiso   1.00
C1247  C     0.37800   0.85064   0.89434   0.00000  Uiso   1.00
O1248  O     0.40112   0.82181   0.87386   0.00000  Uiso   1.00
O1249  O     0.40212   0.88565   0.90400   0.00000  Uiso   1.00
H1250  H     0.43849   0.88396   0.89105   0.00000  Uiso   1.00
C1251  C     0.62033   0.70644   0.68744   0.00000  Uiso   1.00
O1252  O     0.63802   0.73751   0.66727   0.00000  Uiso   1.00
O1253  O     0.57975   0.68821   0.67773   0.00000  Uiso   1.00
H1254  H     0.56795   0.70403   0.65414   0.00000  Uiso   1.00
C1255  C     0.37970   0.96023   0.81253   0.00000  Uiso   1.00
O1256  O     0.36199   0.92918   0.83273   0.00000  Uiso   1.00
O1257  O     0.42033   0.97843   0.82217   0.00000  Uiso   1.00
H1258  H     0.43215   0.96260   0.84575   0.00000  Uiso   1.00
C1259  C     0.66706   0.75411   0.74857   0.00000  Uiso   1.00
C1260  C     0.99960   0.91256   0.75143   0.00000  Uiso   1.00
C1261  C     0.85798   0.85545   0.54556   0.00000  Uiso   1.00
C1262  C     0.80871   0.81117   0.95446   0.00000  Uiso   1.00
C1263  C     0.90634   0.86101   0.52367   0.00000  Uiso   1.00
C1264  C     0.76036   0.80560   0.97635   0.00000  Uiso   1.00
C1265  C     0.97617   0.68695   0.72089   0.00000  Uiso   1.00
C1266  C     0.69051   0.97972   0.77910   0.00000  Uiso   1.00
C1267  C     0.97498   0.97750   0.72444   0.00000  Uiso   1.00
C1268  C     0.69169   0.68917   0.77555   0.00000  Uiso   1.00
C1269  C     0.99905   0.95720   0.75257   0.00000  Uiso   1.00
C1270  C     0.66762   0.70946   0.74742   0.00000  Uiso   1.00
C1271  C     0.85146   0.80472   0.77424   0.00000  Uiso   1.00
C1272  C     0.81521   0.86194   0.72576   0.00000  Uiso   1.00
C1273  C     0.80187   0.80469   0.77416   0.00000  Uiso   1.00
C1274  C     0.86480   0.86197   0.72583   0.00000  Uiso   1.00
C1275  C     0.97318   0.83336   0.83640   0.00000  Uiso   1.00
C1276  C     0.69348   0.83331   0.66360   0.00000  Uiso   1.00
C1277  C     0.95918   0.83547   0.88619   0.00000  Uiso   1.00
C1278  C     0.70749   0.83120   0.61381   0.00000  Uiso   1.00
C1279  C     0.97280   0.85617   0.95777   0.00000  Uiso   1.00
C1280  C     0.69389   0.81046   0.54224   0.00000  Uiso   1.00
C1281  C     0.99150   0.84723   0.91226   0.00000  Uiso   1.00
C1282  C     0.67517   0.81941   0.58775   0.00000  Uiso   1.00
C1283  C     0.91015   0.82891   0.90777   0.00000  Uiso   1.00
C1284  C     0.75651   0.83779   0.59223   0.00000  Uiso   1.00
C1285  C     0.89152   0.83541   0.95418   0.00000  Uiso   1.00
C1286  C     0.77516   0.83124   0.54583   0.00000  Uiso   1.00
C1287  C     0.92356   0.85078   0.97859   0.00000  Uiso   1.00
C1288  C     0.74313   0.81585   0.52142   0.00000  Uiso   1.00
C1289  C     0.84184   0.82832   0.97673   0.00000  Uiso   1.00
C1290  C     0.82484   0.83833   0.52329   0.00000  Uiso   1.00
Cu1291 Cu    0.71355   0.83334   0.75000   0.00000  Uiso   1.00
Cu1292 Cu    0.95311   0.83333   0.75000   0.00000  Uiso   1.00
H1293  H     0.93047   0.87402   0.54213   0.00000  Uiso   1.00
H1294  H     0.73623   0.79257   0.95789   0.00000  Uiso   1.00
H1295  H     0.77981   0.84694   0.61294   0.00000  Uiso   1.00
H1296  H     0.88683   0.81981   0.88705   0.00000  Uiso   1.00
H1297  H     0.99708   0.86683   0.97738   0.00000  Uiso   1.00
H1298  H     0.66962   0.79978   0.52262   0.00000  Uiso   1.00
H1299  H     0.84797   0.86540   0.58002   0.00000  Uiso   1.00
H1300  H     0.81874   0.80117   0.92001   0.00000  Uiso   1.00
H1301  H     0.95702   0.95963   0.70360   0.00000  Uiso   1.00
H1302  H     0.70965   0.70704   0.79639   0.00000  Uiso   1.00
H1303  H     0.86476   0.78185   0.79375   0.00000  Uiso   1.00
H1304  H     0.80191   0.88481   0.70625   0.00000  Uiso   1.00
H1305  H     0.77786   0.78172   0.79349   0.00000  Uiso   1.00
H1306  H     0.88881   0.88495   0.70651   0.00000  Uiso   1.00
N1307  N     0.78403   0.83334   0.74999   0.00000  Uiso   1.00
N1308  N     0.88264   0.83332   0.75001   0.00000  Uiso   1.00
O1309  O     0.70625   0.77322   0.75000   0.00000  Uiso   1.00
O1310  O     0.96042   0.89345   0.75000   0.00000  Uiso   1.00
O1311  O     0.96039   0.77321   0.75000   0.00000  Uiso   1.00
O1312  O     0.70628   0.89346   0.74999   0.00000  Uiso   1.00
O1313  O     0.68519   0.83334   0.81491   0.00000  Uiso   1.00
O1314  O     0.98148   0.83332   0.68508   0.00000  Uiso   1.00
O1315  O     0.93933   0.83333   0.81492   0.00000  Uiso   1.00
O1316  O     0.72733   0.83333   0.68508   0.00000  Uiso   1.00
C1317  C     0.95535   0.81598   0.60566   0.00000  Uiso   1.00
O1318  O     0.93220   0.84480   0.62615   0.00000  Uiso   1.00
O1319  O     0.93124   0.78096   0.59598   0.00000  Uiso   1.00
H1320  H     0.89487   0.78265   0.60891   0.00000  Uiso   1.00
C1321  C     0.71133   0.85064   0.89434   0.00000  Uiso   1.00
O1322  O     0.73446   0.82181   0.87386   0.00000  Uiso   1.00
O1323  O     0.73545   0.88565   0.90400   0.00000  Uiso   1.00
H1324  H     0.77182   0.88396   0.89105   0.00000  Uiso   1.00
C1325  C     0.95366   0.70644   0.68744   0.00000  Uiso   1.00
O1326  O     0.97135   0.73751   0.66727   0.00000  Uiso   1.00
O1327  O     0.91308   0.68821   0.67773   0.00000  Uiso   1.00
H1328  H     0.90128   0.70403   0.65414   0.00000  Uiso   1.00
C1329  C     0.71304   0.96023   0.81253   0.00000  Uiso   1.00
O1330  O     0.69532   0.92918   0.83273   0.00000  Uiso   1.00
O1331  O     0.75367   0.97843   0.82217   0.00000  Uiso   1.00
H1332  H     0.76548   0.96260   0.84575   0.00000  Uiso   1.00
loop_
_geom_bond_atom_site_label_1
_geom_bond_atom_site_label_2
_geom_bond_distance
_geom_bond_site_symmetry_2
_ccdc_geom_bond_type
C1     C12     1.447   .     S
C1     O51     1.289   .     A
C1     O201    1.289   1_455 S
C2     C11     1.447   .     S
C2     O52     1.289   .     A
C2     O128    1.289   .     S
C3     H41     1.076   .     S
C3     C5      1.385   .     A
C3     C32     1.415   .     A
C4     C6      1.384   .     A
C4     H42     1.076   .     S
C4     C31     1.415   .     A
C5     H35     1.084   .     S
C5     C695    1.389   1_554 S
C6     H36     1.084   .     S
C6     C696    1.389   .     S
C7     C67     1.486   .     S
C7     C453    1.390   1_545 S
C7     C86     1.412   .     S
C8     C71     1.486   .     S
C8     C232    1.390   .     S
C8     C159    1.412   1_455 S
C9     H43     1.085   .     S
C9     C11     1.399   .     A
C9     C229    1.390   .     S
C10    H44     1.085   .     S
C10    C12     1.399   .     A
C10    C452    1.390   1_545 S
C11    C82     1.412   .     S
C12    C155    1.412   1_455 S
C13    C15     1.416   .     A
C13    H45     1.082   .     S
C13    N50     1.367   .     A
C14    H46     1.082   .     S
C14    N49     1.367   .     A
C14    C16     1.416   .     A
C15    H47     1.082   .     S
C15    N49     1.367   .     A
C16    H48     1.082   .     S
C16    N50     1.367   .     A
C17    C19     1.484   .     S
C17    O57     1.302   .     A
C17    O129    1.294   .     S
C18    O58     1.302   .     A
C18    C20     1.484   .     S
C18    O204    1.294   1_455 S
C19    C23     1.421   .     A
C19    C25     1.403   .     A
C20    C26     1.403   .     A
C20    C24     1.421   .     A
C21    C23     1.397   .     A
C21    C29     1.399   .     A
C21    H39     1.085   .     S
C22    C24     1.397   .     A
C22    H40     1.085   .     S
C22    C30     1.399   .     A
C23    C137    1.480   .     S
C24    C207    1.480   1_455 S
C25    H38     1.074   .     S
C25    C27     1.407   .     A
C26    H37     1.074   .     S
C26    C28     1.408   .     A
C27    C29     1.414   .     A
C27    C31     1.429   .     A
C28    C32     1.429   .     A
C28    C30     1.414   .     A
C29    C671    1.389   .     S
C30    C672    1.389   1_554 S
C31    C698    1.429   .     S
C32    C697    1.429   1_554 S
Cu33   O55     1.955   .     S
Cu33   O58     1.936   .     S
Cu33   N49     2.011   .     S
Cu33   O54     1.959   .     S
Cu33   O51     1.959   .     S
Cu33   Cu182   2.676   1_455 S
Cu34   O56     1.955   .     S
Cu34   O57     1.936   .     S
Cu34   N50     2.011   .     S
Cu34   O52     1.959   .     S
Cu34   O53     1.959   .     S
Cu34   Cu107   2.676   .     S
O53    C75     1.289   .     S
O54    C150    1.289   1_455 S
O55    C165    1.294   1_455 S
O56    C92     1.294   .     S
C59    O60     1.222   .     D
C59    O61     1.398   .     S
C59    C98     1.480   .     S
O61    H62     1.014   .     S
C63    O65     1.398   .     S
C63    O64     1.222   .     D
C63    C171    1.480   1_455 S
O65    H66     1.014   .     S
C67    O68     1.222   .     D
C67    O69     1.399   .     S
O69    H70     1.014   .     S
C71    O73     1.399   .     S
C71    O72     1.222   .     D
O73    H74     1.014   .     S
C75    C86     1.447   .     S
C75    O125    1.289   .     A
C76    C85     1.447   .     S
C76    O126    1.289   .     A
C76    O202    1.289   .     S
C77    H115    1.076   .     S
C77    C79     1.385   .     A
C77    C106    1.415   .     A
C78    C80     1.384   .     A
C78    H116    1.076   .     S
C78    C105    1.415   .     A
C79    H109    1.084   .     S
C79    C769    1.389   1_554 S
C80    H110    1.084   .     S
C80    C770    1.389   .     S
C81    C141    1.486   .     S
C81    C527    1.390   1_545 S
C81    C160    1.412   .     S
C82    C145    1.486   .     S
C82    C306    1.390   .     S
C83    H117    1.085   .     S
C83    C85     1.399   .     A
C83    C303    1.390   .     S
C84    H118    1.085   .     S
C84    C86     1.399   .     A
C84    C526    1.390   1_545 S
C85    C156    1.412   .     S
C87    C89     1.416   .     A
C87    H119    1.082   .     S
C87    N124    1.367   .     A
C88    H120    1.082   .     S
C88    N123    1.367   .     A
C88    C90     1.416   .     A
C89    H121    1.082   .     S
C89    N123    1.367   .     A
C90    H122    1.082   .     S
C90    N124    1.367   .     A
C91    C93     1.484   .     S
C91    O131    1.302   .     A
C91    O203    1.294   .     S
C92    O132    1.302   .     A
C92    C94     1.484   .     S
C93    C97     1.421   .     A
C93    C99     1.403   .     A
C94    C100    1.403   .     A
C94    C98     1.421   .     A
C95    C97     1.397   .     A
C95    C103    1.399   .     A
C95    H113    1.085   .     S
C96    C98     1.397   .     A
C96    H114    1.085   .     S
C96    C104    1.399   .     A
C97    C211    1.480   .     S
C99    H112    1.074   .     S
C99    C101    1.407   .     A
C100   H111    1.074   .     S
C100   C102    1.408   .     A
C101   C103    1.414   .     A
C101   C105    1.429   .     A
C102   C106    1.429   .     A
C102   C104    1.414   .     A
C103   C745    1.389   .     S
C104   C746    1.389   1_554 S
C105   C772    1.429   .     S
C106   C771    1.429   1_554 S
Cu107  O129    1.955   .     S
Cu107  O132    1.936   .     S
Cu107  N123    2.011   .     S
Cu107  O128    1.959   .     S
Cu107  O125    1.959   .     S
Cu108  O130    1.955   .     S
Cu108  O131    1.936   .     S
Cu108  N124    2.011   .     S
Cu108  O126    1.959   .     S
Cu108  O127    1.959   .     S
Cu108  Cu181   2.676   .     S
O127   C149    1.289   .     S
O130   C166    1.294   .     S
C133   O134    1.222   .     D
C133   O135    1.398   .     S
C133   C172    1.480   .     S
O135   H136    1.014   .     S
C137   O139    1.398   .     S
C137   O138    1.222   .     D
O139   H140    1.014   .     S
C141   O142    1.222   .     D
C141   O143    1.399   .     S
O143   H144    1.014   .     S
C145   O147    1.399   .     S
C145   O146    1.222   .     D
O147   H148    1.014   .     S
C149   C160    1.447   .     S
C149   O199    1.289   .     A
C150   C159    1.447   .     S
C150   O200    1.289   .     A
C150   O54     1.289   1_655 S
C151   H189    1.076   .     S
C151   C153    1.385   .     A
C151   C180    1.415   .     A
C152   C154    1.384   .     A
C152   H190    1.076   .     S
C152   C179    1.415   .     A
C153   H183    1.084   .     S
C153   C843    1.389   1_554 S
C154   H184    1.084   .     S
C154   C844    1.389   .     S
C155   C215    1.486   .     S
C155   C601    1.390   1_545 S
C155   C12     1.412   1_655 S
C156   C219    1.486   .     S
C156   C380    1.390   .     S
C157   H191    1.085   .     S
C157   C159    1.399   .     A
C157   C377    1.390   .     S
C158   H192    1.085   .     S
C158   C160    1.399   .     A
C158   C600    1.390   1_545 S
C159   C8      1.412   1_655 S
C161   C163    1.416   .     A
C161   H193    1.082   .     S
C161   N198    1.367   .     A
C162   H194    1.082   .     S
C162   N197    1.367   .     A
C162   C164    1.416   .     A
C163   H195    1.082   .     S
C163   N197    1.367   .     A
C164   H196    1.082   .     S
C164   N198    1.367   .     A
C165   C167    1.484   .     S
C165   O205    1.302   .     A
C165   O55     1.294   1_655 S
C166   O206    1.302   .     A
C166   C168    1.484   .     S
C167   C171    1.421   .     A
C167   C173    1.403   .     A
C168   C174    1.403   .     A
C168   C172    1.421   .     A
C169   C171    1.397   .     A
C169   C177    1.399   .     A
C169   H187    1.085   .     S
C170   C172    1.397   .     A
C170   H188    1.085   .     S
C170   C178    1.399   .     A
C171   C63     1.480   1_655 S
C173   H186    1.074   .     S
C173   C175    1.407   .     A
C174   H185    1.074   .     S
C174   C176    1.408   .     A
C175   C177    1.414   .     A
C175   C179    1.429   .     A
C176   C180    1.429   .     A
C176   C178    1.414   .     A
C177   C819    1.389   .     S
C178   C820    1.389   1_554 S
C179   C846    1.429   .     S
C180   C845    1.429   1_554 S
Cu181  O203    1.955   .     S
Cu181  O206    1.936   .     S
Cu181  N197    2.011   .     S
Cu181  O202    1.959   .     S
Cu181  O199    1.959   .     S
Cu182  O204    1.955   .     S
Cu182  O205    1.936   .     S
Cu182  N198    2.011   .     S
Cu182  O200    1.959   .     S
Cu182  O201    1.959   .     S
Cu182  Cu33    2.676   1_655 S
O201   C1      1.289   1_655 S
O204   C18     1.294   1_655 S
C207   O208    1.222   .     D
C207   O209    1.398   .     S
C207   C24     1.480   1_655 S
O209   H210    1.014   .     S
C211   O213    1.398   .     S
C211   O212    1.222   .     D
O213   H214    1.014   .     S
C215   O216    1.222   .     D
C215   O217    1.399   .     S
O217   H218    1.014   .     S
C219   O221    1.399   .     S
C219   O220    1.222   .     D
O221   H222    1.014   .     S
C223   C234    1.447   .     S
C223   O273    1.289   .     A
C223   O423    1.289   1_455 S
C224   C233    1.447   .     S
C224   O274    1.289   .     A
C224   O350    1.289   .     S
C225   H263    1.076   .     S
C225   C227    1.385   .     A
C225   C254    1.415   .     A
C226   C228    1.384   .     A
C226   H264    1.076   .     S
C226   C253    1.415   .     A
C227   H257    1.084   .     S
C227   C917    1.389   1_554 S
C228   H258    1.084   .     S
C228   C918    1.389   .     S
C229   C289    1.486   .     S
C229   C308    1.412   .     S
C230   C293    1.486   .     S
C230   C454    1.390   .     S
C230   C381    1.412   1_455 S
C231   H265    1.085   .     S
C231   C233    1.399   .     A
C231   C451    1.390   .     S
C232   H266    1.085   .     S
C232   C234    1.399   .     A
C233   C304    1.412   .     S
C234   C377    1.412   1_455 S
C235   C237    1.416   .     A
C235   H267    1.082   .     S
C235   N272    1.367   .     A
C236   H268    1.082   .     S
C236   N271    1.367   .     A
C236   C238    1.416   .     A
C237   H269    1.082   .     S
C237   N271    1.367   .     A
C238   H270    1.082   .     S
C238   N272    1.367   .     A
C239   C241    1.484   .     S
C239   O279    1.302   .     A
C239   O351    1.294   .     S
C240   O280    1.302   .     A
C240   C242    1.484   .     S
C240   O426    1.294   1_455 S
C241   C245    1.421   .     A
C241   C247    1.403   .     A
C242   C248    1.403   .     A
C242   C246    1.421   .     A
C243   C245    1.397   .     A
C243   C251    1.399   .     A
C243   H261    1.085   .     S
C244   C246    1.397   .     A
C244   H262    1.085   .     S
C244   C252    1.399   .     A
C245   C359    1.480   .     S
C246   C429    1.480   1_455 S
C247   H260    1.074   .     S
C247   C249    1.407   .     A
C248   H259    1.074   .     S
C248   C250    1.408   .     A
C249   C251    1.414   .     A
C249   C253    1.429   .     A
C250   C254    1.429   .     A
C250   C252    1.414   .     A
C251   C893    1.389   .     S
C252   C894    1.389   1_554 S
C253   C920    1.429   .     S
C254   C919    1.429   1_554 S
Cu255  O277    1.955   .     S
Cu255  O280    1.936   .     S
Cu255  N271    2.011   .     S
Cu255  O276    1.959   .     S
Cu255  O273    1.959   .     S
Cu255  Cu404   2.676   1_455 S
Cu256  O278    1.955   .     S
Cu256  O279    1.936   .     S
Cu256  N272    2.011   .     S
Cu256  O274    1.959   .     S
Cu256  O275    1.959   .     S
Cu256  Cu329   2.676   .     S
O275   C297    1.289   .     S
O276   C372    1.289   1_455 S
O277   C387    1.294   1_455 S
O278   C314    1.294   .     S
C281   O282    1.222   .     D
C281   O283    1.398   .     S
C281   C320    1.480   .     S
O283   H284    1.014   .     S
C285   O287    1.398   .     S
C285   O286    1.222   .     D
C285   C393    1.480   1_455 S
O287   H288    1.014   .     S
C289   O290    1.222   .     D
C289   O291    1.399   .     S
O291   H292    1.014   .     S
C293   O295    1.399   .     S
C293   O294    1.222   .     D
O295   H296    1.014   .     S
C297   C308    1.447   .     S
C297   O347    1.289   .     A
C298   C307    1.447   .     S
C298   O348    1.289   .     A
C298   O424    1.289   .     S
C299   H337    1.076   .     S
C299   C301    1.385   .     A
C299   C328    1.415   .     A
C300   C302    1.384   .     A
C300   H338    1.076   .     S
C300   C327    1.415   .     A
C301   H331    1.084   .     S
C301   C991    1.389   1_554 S
C302   H332    1.084   .     S
C302   C992    1.389   .     S
C303   C363    1.486   .     S
C303   C382    1.412   .     S
C304   C367    1.486   .     S
C304   C528    1.390   .     S
C305   H339    1.085   .     S
C305   C307    1.399   .     A
C305   C525    1.390   .     S
C306   H340    1.085   .     S
C306   C308    1.399   .     A
C307   C378    1.412   .     S
C309   C311    1.416   .     A
C309   H341    1.082   .     S
C309   N346    1.367   .     A
C310   H342    1.082   .     S
C310   N345    1.367   .     A
C310   C312    1.416   .     A
C311   H343    1.082   .     S
C311   N345    1.367   .     A
C312   H344    1.082   .     S
C312   N346    1.367   .     A
C313   C315    1.484   .     S
C313   O353    1.302   .     A
C313   O425    1.294   .     S
C314   O354    1.302   .     A
C314   C316    1.484   .     S
C315   C319    1.421   .     A
C315   C321    1.403   .     A
C316   C322    1.403   .     A
C316   C320    1.421   .     A
C317   C319    1.397   .     A
C317   C325    1.399   .     A
C317   H335    1.085   .     S
C318   C320    1.397   .     A
C318   H336    1.085   .     S
C318   C326    1.399   .     A
C319   C433    1.480   .     S
C321   H334    1.074   .     S
C321   C323    1.407   .     A
C322   H333    1.074   .     S
C322   C324    1.408   .     A
C323   C325    1.414   .     A
C323   C327    1.429   .     A
C324   C328    1.429   .     A
C324   C326    1.414   .     A
C325   C967    1.389   .     S
C326   C968    1.389   1_554 S
C327   C994    1.429   .     S
C328   C993    1.429   1_554 S
Cu329  O351    1.955   .     S
Cu329  O354    1.936   .     S
Cu329  N345    2.011   .     S
Cu329  O350    1.959   .     S
Cu329  O347    1.959   .     S
Cu330  O352    1.955   .     S
Cu330  O353    1.936   .     S
Cu330  N346    2.011   .     S
Cu330  O348    1.959   .     S
Cu330  O349    1.959   .     S
Cu330  Cu403   2.676   .     S
O349   C371    1.289   .     S
O352   C388    1.294   .     S
C355   O356    1.222   .     D
C355   O357    1.398   .     S
C355   C394    1.480   .     S
O357   H358    1.014   .     S
C359   O361    1.398   .     S
C359   O360    1.222   .     D
O361   H362    1.014   .     S
C363   O364    1.222   .     D
C363   O365    1.399   .     S
O365   H366    1.014   .     S
C367   O369    1.399   .     S
C367   O368    1.222   .     D
O369   H370    1.014   .     S
C371   C382    1.447   .     S
C371   O421    1.289   .     A
C372   C381    1.447   .     S
C372   O422    1.289   .     A
C372   O276    1.289   1_655 S
C373   H411    1.076   .     S
C373   C375    1.385   .     A
C373   C402    1.415   .     A
C374   C376    1.384   .     A
C374   H412    1.076   .     S
C374   C401    1.415   .     A
C375   H405    1.084   .     S
C375   C1065   1.389   1_554 S
C376   H406    1.084   .     S
C376   C1066   1.389   .     S
C377   C437    1.486   .     S
C377   C234    1.412   1_655 S
C378   C441    1.486   .     S
C378   C602    1.390   .     S
C379   H413    1.085   .     S
C379   C381    1.399   .     A
C379   C599    1.390   .     S
C380   H414    1.085   .     S
C380   C382    1.399   .     A
C381   C230    1.412   1_655 S
C383   C385    1.416   .     A
C383   H415    1.082   .     S
C383   N420    1.367   .     A
C384   H416    1.082   .     S
C384   N419    1.367   .     A
C384   C386    1.416   .     A
C385   H417    1.082   .     S
C385   N419    1.367   .     A
C386   H418    1.082   .     S
C386   N420    1.367   .     A
C387   C389    1.484   .     S
C387   O427    1.302   .     A
C387   O277    1.294   1_655 S
C388   O428    1.302   .     A
C388   C390    1.484   .     S
C389   C393    1.421   .     A
C389   C395    1.403   .     A
C390   C396    1.403   .     A
C390   C394    1.421   .     A
C391   C393    1.397   .     A
C391   C399    1.399   .     A
C391   H409    1.085   .     S
C392   C394    1.397   .     A
C392   H410    1.085   .     S
C392   C400    1.399   .     A
C393   C285    1.480   1_655 S
C395   H408    1.074   .     S
C395   C397    1.407   .     A
C396   H407    1.074   .     S
C396   C398    1.408   .     A
C397   C399    1.414   .     A
C397   C401    1.429   .     A
C398   C402    1.429   .     A
C398   C400    1.414   .     A
C399   C1041   1.389   .     S
C400   C1042   1.389   1_554 S
C401   C1068   1.429   .     S
C402   C1067   1.429   1_554 S
Cu403  O425    1.955   .     S
Cu403  O428    1.936   .     S
Cu403  N419    2.011   .     S
Cu403  O424    1.959   .     S
Cu403  O421    1.959   .     S
Cu404  O426    1.955   .     S
Cu404  O427    1.936   .     S
Cu404  N420    2.011   .     S
Cu404  O422    1.959   .     S
Cu404  O423    1.959   .     S
Cu404  Cu255   2.676   1_655 S
O423   C223    1.289   1_655 S
O426   C240    1.294   1_655 S
C429   O430    1.222   .     D
C429   O431    1.398   .     S
C429   C246    1.480   1_655 S
O431   H432    1.014   .     S
C433   O435    1.398   .     S
C433   O434    1.222   .     D
O435   H436    1.014   .     S
C437   O438    1.222   .     D
C437   O439    1.399   .     S
O439   H440    1.014   .     S
C441   O443    1.399   .     S
C441   O442    1.222   .     D
O443   H444    1.014   .     S
C445   C456    1.447   .     S
C445   O495    1.289   .     A
C445   O645    1.289   1_455 S
C446   C455    1.447   .     S
C446   O496    1.289   .     A
C446   O572    1.289   .     S
C447   H485    1.076   .     S
C447   C449    1.385   .     A
C447   C476    1.415   .     A
C448   C450    1.384   .     A
C448   H486    1.076   .     S
C448   C475    1.415   .     A
C449   H479    1.084   .     S
C449   C1139   1.389   1_554 S
C450   H480    1.084   .     S
C450   C1140   1.389   .     S
C451   C511    1.486   .     S
C451   C530    1.412   .     S
C452   C515    1.486   .     S
C452   C10     1.390   1_565 S
C452   C603    1.412   1_455 S
C453   H487    1.085   .     S
C453   C455    1.399   .     A
C453   C7      1.390   1_565 S
C454   H488    1.085   .     S
C454   C456    1.399   .     A
C455   C526    1.412   .     S
C456   C599    1.412   1_455 S
C457   C459    1.416   .     A
C457   H489    1.082   .     S
C457   N494    1.367   .     A
C458   H490    1.082   .     S
C458   N493    1.367   .     A
C458   C460    1.416   .     A
C459   H491    1.082   .     S
C459   N493    1.367   .     A
C460   H492    1.082   .     S
C460   N494    1.367   .     A
C461   C463    1.484   .     S
C461   O501    1.302   .     A
C461   O573    1.294   .     S
C462   O502    1.302   .     A
C462   C464    1.484   .     S
C462   O648    1.294   1_455 S
C463   C467    1.421   .     A
C463   C469    1.403   .     A
C464   C470    1.403   .     A
C464   C468    1.421   .     A
C465   C467    1.397   .     A
C465   C473    1.399   .     A
C465   H483    1.085   .     S
C466   C468    1.397   .     A
C466   H484    1.085   .     S
C466   C474    1.399   .     A
C467   C581    1.480   .     S
C468   C651    1.480   1_455 S
C469   H482    1.074   .     S
C469   C471    1.407   .     A
C470   H481    1.074   .     S
C470   C472    1.408   .     A
C471   C473    1.414   .     A
C471   C475    1.429   .     A
C472   C476    1.429   .     A
C472   C474    1.414   .     A
C473   C1115   1.389   .     S
C474   C1116   1.389   1_554 S
C475   C1142   1.429   .     S
C476   C1141   1.429   1_554 S
Cu477  O499    1.955   .     S
Cu477  O502    1.936   .     S
Cu477  N493    2.011   .     S
Cu477  O498    1.959   .     S
Cu477  O495    1.959   .     S
Cu477  Cu626   2.676   1_455 S
Cu478  O500    1.955   .     S
Cu478  O501    1.936   .     S
Cu478  N494    2.011   .     S
Cu478  O496    1.959   .     S
Cu478  O497    1.959   .     S
Cu478  Cu551   2.676   .     S
O497   C519    1.289   .     S
O498   C594    1.289   1_455 S
O499   C609    1.294   1_455 S
O500   C536    1.294   .     S
C503   O504    1.222   .     D
C503   O505    1.398   .     S
C503   C542    1.480   .     S
O505   H506    1.014   .     S
C507   O509    1.398   .     S
C507   O508    1.222   .     D
C507   C615    1.480   1_455 S
O509   H510    1.014   .     S
C511   O512    1.222   .     D
C511   O513    1.399   .     S
O513   H514    1.014   .     S
C515   O517    1.399   .     S
C515   O516    1.222   .     D
O517   H518    1.014   .     S
C519   C530    1.447   .     S
C519   O569    1.289   .     A
C520   C529    1.447   .     S
C520   O570    1.289   .     A
C520   O646    1.289   .     S
C521   H559    1.076   .     S
C521   C523    1.385   .     A
C521   C550    1.415   .     A
C522   C524    1.384   .     A
C522   H560    1.076   .     S
C522   C549    1.415   .     A
C523   H553    1.084   .     S
C523   C1213   1.389   1_554 S
C524   H554    1.084   .     S
C524   C1214   1.389   .     S
C525   C585    1.486   .     S
C525   C604    1.412   .     S
C526   C589    1.486   .     S
C526   C84     1.390   1_565 S
C527   H561    1.085   .     S
C527   C529    1.399   .     A
C527   C81     1.390   1_565 S
C528   H562    1.085   .     S
C528   C530    1.399   .     A
C529   C600    1.412   .     S
C531   C533    1.416   .     A
C531   H563    1.082   .     S
C531   N568    1.367   .     A
C532   H564    1.082   .     S
C532   N567    1.367   .     A
C532   C534    1.416   .     A
C533   H565    1.082   .     S
C533   N567    1.367   .     A
C534   H566    1.082   .     S
C534   N568    1.367   .     A
C535   C537    1.484   .     S
C535   O575    1.302   .     A
C535   O647    1.294   .     S
C536   O576    1.302   .     A
C536   C538    1.484   .     S
C537   C541    1.421   .     A
C537   C543    1.403   .     A
C538   C544    1.403   .     A
C538   C542    1.421   .     A
C539   C541    1.397   .     A
C539   C547    1.399   .     A
C539   H557    1.085   .     S
C540   C542    1.397   .     A
C540   H558    1.085   .     S
C540   C548    1.399   .     A
C541   C655    1.480   .     S
C543   H556    1.074   .     S
C543   C545    1.407   .     A
C544   H555    1.074   .     S
C544   C546    1.408   .     A
C545   C547    1.414   .     A
C545   C549    1.429   .     A
C546   C550    1.429   .     A
C546   C548    1.414   .     A
C547   C1189   1.389   .     S
C548   C1190   1.389   1_554 S
C549   C1216   1.429   .     S
C550   C1215   1.429   1_554 S
Cu551  O573    1.955   .     S
Cu551  O576    1.936   .     S
Cu551  N567    2.011   .     S
Cu551  O572    1.959   .     S
Cu551  O569    1.959   .     S
Cu552  O574    1.955   .     S
Cu552  O575    1.936   .     S
Cu552  N568    2.011   .     S
Cu552  O570    1.959   .     S
Cu552  O571    1.959   .     S
Cu552  Cu625   2.676   .     S
O571   C593    1.289   .     S
O574   C610    1.294   .     S
C577   O578    1.222   .     D
C577   O579    1.398   .     S
C577   C616    1.480   .     S
O579   H580    1.014   .     S
C581   O583    1.398   .     S
C581   O582    1.222   .     D
O583   H584    1.014   .     S
C585   O586    1.222   .     D
C585   O587    1.399   .     S
O587   H588    1.014   .     S
C589   O591    1.399   .     S
C589   O590    1.222   .     D
O591   H592    1.014   .     S
C593   C604    1.447   .     S
C593   O643    1.289   .     A
C594   C603    1.447   .     S
C594   O644    1.289   .     A
C594   O498    1.289   1_655 S
C595   H633    1.076   .     S
C595   C597    1.385   .     A
C595   C624    1.415   .     A
C596   C598    1.384   .     A
C596   H634    1.076   .     S
C596   C623    1.415   .     A
C597   H627    1.084   .     S
C597   C1287   1.389   1_554 S
C598   H628    1.084   .     S
C598   C1288   1.389   .     S
C599   C659    1.486   .     S
C599   C456    1.412   1_655 S
C600   C663    1.486   .     S
C600   C158    1.390   1_565 S
C601   H635    1.085   .     S
C601   C603    1.399   .     A
C601   C155    1.390   1_565 S
C602   H636    1.085   .     S
C602   C604    1.399   .     A
C603   C452    1.412   1_655 S
C605   C607    1.416   .     A
C605   H637    1.082   .     S
C605   N642    1.367   .     A
C606   H638    1.082   .     S
C606   N641    1.367   .     A
C606   C608    1.416   .     A
C607   H639    1.082   .     S
C607   N641    1.367   .     A
C608   H640    1.082   .     S
C608   N642    1.367   .     A
C609   C611    1.484   .     S
C609   O649    1.302   .     A
C609   O499    1.294   1_655 S
C610   O650    1.302   .     A
C610   C612    1.484   .     S
C611   C615    1.421   .     A
C611   C617    1.403   .     A
C612   C618    1.403   .     A
C612   C616    1.421   .     A
C613   C615    1.397   .     A
C613   C621    1.399   .     A
C613   H631    1.085   .     S
C614   C616    1.397   .     A
C614   H632    1.085   .     S
C614   C622    1.399   .     A
C615   C507    1.480   1_655 S
C617   H630    1.074   .     S
C617   C619    1.407   .     A
C618   H629    1.074   .     S
C618   C620    1.408   .     A
C619   C621    1.414   .     A
C619   C623    1.429   .     A
C620   C624    1.429   .     A
C620   C622    1.414   .     A
C621   C1263   1.389   .     S
C622   C1264   1.389   1_554 S
C623   C1290   1.429   .     S
C624   C1289   1.429   1_554 S
Cu625  O647    1.955   .     S
Cu625  O650    1.936   .     S
Cu625  N641    2.011   .     S
Cu625  O646    1.959   .     S
Cu625  O643    1.959   .     S
Cu626  O648    1.955   .     S
Cu626  O649    1.936   .     S
Cu626  N642    2.011   .     S
Cu626  O644    1.959   .     S
Cu626  O645    1.959   .     S
Cu626  Cu477   2.676   1_655 S
O645   C445    1.289   1_655 S
O648   C462    1.294   1_655 S
C651   O652    1.222   .     D
C651   O653    1.398   .     S
C651   C468    1.480   1_655 S
O653   H654    1.014   .     S
C655   O657    1.398   .     S
C655   O656    1.222   .     D
O657   H658    1.014   .     S
C659   O660    1.222   .     D
C659   O661    1.399   .     S
O661   H662    1.014   .     S
C663   O665    1.399   .     S
C663   O664    1.222   .     D
O665   H666    1.014   .     S
C667   C678    1.447   .     S
C667   O717    1.289   .     A
C667   O867    1.289   1_455 S
C668   C677    1.447   .     S
C668   O718    1.289   .     A
C668   O794    1.289   .     S
C669   H707    1.076   .     S
C669   C671    1.385   .     A
C669   C698    1.415   .     A
C670   C672    1.384   .     A
C670   H708    1.076   .     S
C670   C697    1.415   .     A
C671   H701    1.084   .     S
C672   H702    1.084   .     S
C672   C30     1.389   1_556 S
C673   C733    1.486   .     S
C673   C1119   1.390   1_545 S
C673   C752    1.412   .     S
C674   C737    1.486   .     S
C674   C898    1.390   .     S
C674   C825    1.412   1_455 S
C675   H709    1.085   .     S
C675   C677    1.399   .     A
C675   C895    1.390   .     S
C676   H710    1.085   .     S
C676   C678    1.399   .     A
C676   C1118   1.390   1_545 S
C677   C748    1.412   .     S
C678   C821    1.412   1_455 S
C679   C681    1.416   .     A
C679   H711    1.082   .     S
C679   N716    1.367   .     A
C680   H712    1.082   .     S
C680   N715    1.367   .     A
C680   C682    1.416   .     A
C681   H713    1.082   .     S
C681   N715    1.367   .     A
C682   H714    1.082   .     S
C682   N716    1.367   .     A
C683   C685    1.484   .     S
C683   O723    1.302   .     A
C683   O795    1.294   .     S
C684   O724    1.302   .     A
C684   C686    1.484   .     S
C684   O870    1.294   1_455 S
C685   C689    1.421   .     A
C685   C691    1.403   .     A
C686   C692    1.403   .     A
C686   C690    1.421   .     A
C687   C689    1.397   .     A
C687   C695    1.399   .     A
C687   H705    1.085   .     S
C688   C690    1.397   .     A
C688   H706    1.085   .     S
C688   C696    1.399   .     A
C689   C803    1.480   .     S
C690   C873    1.480   1_455 S
C691   H704    1.074   .     S
C691   C693    1.407   .     A
C692   H703    1.074   .     S
C692   C694    1.408   .     A
C693   C695    1.414   .     A
C693   C697    1.429   .     A
C694   C698    1.429   .     A
C694   C696    1.414   .     A
C695   C5      1.389   1_556 S
C697   C32     1.429   1_556 S
Cu699  O721    1.955   .     S
Cu699  O724    1.936   .     S
Cu699  N715    2.011   .     S
Cu699  O720    1.959   .     S
Cu699  O717    1.959   .     S
Cu699  Cu848   2.676   1_455 S
Cu700  O722    1.955   .     S
Cu700  O723    1.936   .     S
Cu700  N716    2.011   .     S
Cu700  O718    1.959   .     S
Cu700  O719    1.959   .     S
Cu700  Cu773   2.676   .     S
O719   C741    1.289   .     S
O720   C816    1.289   1_455 S
O721   C831    1.294   1_455 S
O722   C758    1.294   .     S
C725   O726    1.222   .     D
C725   O727    1.398   .     S
C725   C764    1.480   .     S
O727   H728    1.014   .     S
C729   O731    1.398   .     S
C729   O730    1.222   .     D
C729   C837    1.480   1_455 S
O731   H732    1.014   .     S
C733   O734    1.222   .     D
C733   O735    1.399   .     S
O735   H736    1.014   .     S
C737   O739    1.399   .     S
C737   O738    1.222   .     D
O739   H740    1.014   .     S
C741   C752    1.447   .     S
C741   O791    1.289   .     A
C742   C751    1.447   .     S
C742   O792    1.289   .     A
C742   O868    1.289   .     S
C743   H781    1.076   .     S
C743   C745    1.385   .     A
C743   C772    1.415   .     A
C744   C746    1.384   .     A
C744   H782    1.076   .     S
C744   C771    1.415   .     A
C745   H775    1.084   .     S
C746   H776    1.084   .     S
C746   C104    1.389   1_556 S
C747   C807    1.486   .     S
C747   C1193   1.390   1_545 S
C747   C826    1.412   .     S
C748   C811    1.486   .     S
C748   C972    1.390   .     S
C749   H783    1.085   .     S
C749   C751    1.399   .     A
C749   C969    1.390   .     S
C750   H784    1.085   .     S
C750   C752    1.399   .     A
C750   C1192   1.390   1_545 S
C751   C822    1.412   .     S
C753   C755    1.416   .     A
C753   H785    1.082   .     S
C753   N790    1.367   .     A
C754   H786    1.082   .     S
C754   N789    1.367   .     A
C754   C756    1.416   .     A
C755   H787    1.082   .     S
C755   N789    1.367   .     A
C756   H788    1.082   .     S
C756   N790    1.367   .     A
C757   C759    1.484   .     S
C757   O797    1.302   .     A
C757   O869    1.294   .     S
C758   O798    1.302   .     A
C758   C760    1.484   .     S
C759   C763    1.421   .     A
C759   C765    1.403   .     A
C760   C766    1.403   .     A
C760   C764    1.421   .     A
C761   C763    1.397   .     A
C761   C769    1.399   .     A
C761   H779    1.085   .     S
C762   C764    1.397   .     A
C762   H780    1.085   .     S
C762   C770    1.399   .     A
C763   C877    1.480   .     S
C765   H778    1.074   .     S
C765   C767    1.407   .     A
C766   H777    1.074   .     S
C766   C768    1.408   .     A
C767   C769    1.414   .     A
C767   C771    1.429   .     A
C768   C772    1.429   .     A
C768   C770    1.414   .     A
C769   C79     1.389   1_556 S
C771   C106    1.429   1_556 S
Cu773  O795    1.955   .     S
Cu773  O798    1.936   .     S
Cu773  N789    2.011   .     S
Cu773  O794    1.959   .     S
Cu773  O791    1.959   .     S
Cu774  O796    1.955   .     S
Cu774  O797    1.936   .     S
Cu774  N790    2.011   .     S
Cu774  O792    1.959   .     S
Cu774  O793    1.959   .     S
Cu774  Cu847   2.676   .     S
O793   C815    1.289   .     S
O796   C832    1.294   .     S
C799   O800    1.222   .     D
C799   O801    1.398   .     S
C799   C838    1.480   .     S
O801   H802    1.014   .     S
C803   O805    1.398   .     S
C803   O804    1.222   .     D
O805   H806    1.014   .     S
C807   O808    1.222   .     D
C807   O809    1.399   .     S
O809   H810    1.014   .     S
C811   O813    1.399   .     S
C811   O812    1.222   .     D
O813   H814    1.014   .     S
C815   C826    1.447   .     S
C815   O865    1.289   .     A
C816   C825    1.447   .     S
C816   O866    1.289   .     A
C816   O720    1.289   1_655 S
C817   H855    1.076   .     S
C817   C819    1.385   .     A
C817   C846    1.415   .     A
C818   C820    1.384   .     A
C818   H856    1.076   .     S
C818   C845    1.415   .     A
C819   H849    1.084   .     S
C820   H850    1.084   .     S
C820   C178    1.389   1_556 S
C821   C881    1.486   .     S
C821   C1267   1.390   1_545 S
C821   C678    1.412   1_655 S
C822   C885    1.486   .     S
C822   C1046   1.390   .     S
C823   H857    1.085   .     S
C823   C825    1.399   .     A
C823   C1043   1.390   .     S
C824   H858    1.085   .     S
C824   C826    1.399   .     A
C824   C1266   1.390   1_545 S
C825   C674    1.412   1_655 S
C827   C829    1.416   .     A
C827   H859    1.082   .     S
C827   N864    1.367   .     A
C828   H860    1.082   .     S
C828   N863    1.367   .     A
C828   C830    1.416   .     A
C829   H861    1.082   .     S
C829   N863    1.367   .     A
C830   H862    1.082   .     S
C830   N864    1.367   .     A
C831   C833    1.484   .     S
C831   O871    1.302   .     A
C831   O721    1.294   1_655 S
C832   O872    1.302   .     A
C832   C834    1.484   .     S
C833   C837    1.421   .     A
C833   C839    1.403   .     A
C834   C840    1.403   .     A
C834   C838    1.421   .     A
C835   C837    1.397   .     A
C835   C843    1.399   .     A
C835   H853    1.085   .     S
C836   C838    1.397   .     A
C836   H854    1.085   .     S
C836   C844    1.399   .     A
C837   C729    1.480   1_655 S
C839   H852    1.074   .     S
C839   C841    1.407   .     A
C840   H851    1.074   .     S
C840   C842    1.408   .     A
C841   C843    1.414   .     A
C841   C845    1.429   .     A
C842   C846    1.429   .     A
C842   C844    1.414   .     A
C843   C153    1.389   1_556 S
C845   C180    1.429   1_556 S
Cu847  O869    1.955   .     S
Cu847  O872    1.936   .     S
Cu847  N863    2.011   .     S
Cu847  O868    1.959   .     S
Cu847  O865    1.959   .     S
Cu848  O870    1.955   .     S
Cu848  O871    1.936   .     S
Cu848  N864    2.011   .     S
Cu848  O866    1.959   .     S
Cu848  O867    1.959   .     S
Cu848  Cu699   2.676   1_655 S
O867   C667    1.289   1_655 S
O870   C684    1.294   1_655 S
C873   O874    1.222   .     D
C873   O875    1.398   .     S
C873   C690    1.480   1_655 S
O875   H876    1.014   .     S
C877   O879    1.398   .     S
C877   O878    1.222   .     D
O879   H880    1.014   .     S
C881   O882    1.222   .     D
C881   O883    1.399   .     S
O883   H884    1.014   .     S
C885   O887    1.399   .     S
C885   O886    1.222   .     D
O887   H888    1.014   .     S
C889   C900    1.447   .     S
C889   O939    1.289   .     A
C889   O1089   1.289   1_455 S
C890   C899    1.447   .     S
C890   O940    1.289   .     A
C890   O1016   1.289   .     S
C891   H929    1.076   .     S
C891   C893    1.385   .     A
C891   C920    1.415   .     A
C892   C894    1.384   .     A
C892   H930    1.076   .     S
C892   C919    1.415   .     A
C893   H923    1.084   .     S
C894   H924    1.084   .     S
C894   C252    1.389   1_556 S
C895   C955    1.486   .     S
C895   C974    1.412   .     S
C896   C959    1.486   .     S
C896   C1120   1.390   .     S
C896   C1047   1.412   1_455 S
C897   H931    1.085   .     S
C897   C899    1.399   .     A
C897   C1117   1.390   .     S
C898   H932    1.085   .     S
C898   C900    1.399   .     A
C899   C970    1.412   .     S
C900   C1043   1.412   1_455 S
C901   C903    1.416   .     A
C901   H933    1.082   .     S
C901   N938    1.367   .     A
C902   H934    1.082   .     S
C902   N937    1.367   .     A
C902   C904    1.416   .     A
C903   H935    1.082   .     S
C903   N937    1.367   .     A
C904   H936    1.082   .     S
C904   N938    1.367   .     A
C905   C907    1.484   .     S
C905   O945    1.302   .     A
C905   O1017   1.294   .     S
C906   O946    1.302   .     A
C906   C908    1.484   .     S
C906   O1092   1.294   1_455 S
C907   C911    1.421   .     A
C907   C913    1.403   .     A
C908   C914    1.403   .     A
C908   C912    1.421   .     A
C909   C911    1.397   .     A
C909   C917    1.399   .     A
C909   H927    1.085   .     S
C910   C912    1.397   .     A
C910   H928    1.085   .     S
C910   C918    1.399   .     A
C911   C1025   1.480   .     S
C912   C1095   1.480   1_455 S
C913   H926    1.074   .     S
C913   C915    1.407   .     A
C914   H925    1.074   .     S
C914   C916    1.408   .     A
C915   C917    1.414   .     A
C915   C919    1.429   .     A
C916   C920    1.429   .     A
C916   C918    1.414   .     A
C917   C227    1.389   1_556 S
C919   C254    1.429   1_556 S
Cu921  O943    1.955   .     S
Cu921  O946    1.936   .     S
Cu921  N937    2.011   .     S
Cu921  O942    1.959   .     S
Cu921  O939    1.959   .     S
Cu921  Cu1070  2.676   1_455 S
Cu922  O944    1.955   .     S
Cu922  O945    1.936   .     S
Cu922  N938    2.011   .     S
Cu922  O940    1.959   .     S
Cu922  O941    1.959   .     S
Cu922  Cu995   2.676   .     S
O941   C963    1.289   .     S
O942   C1038   1.289   1_455 S
O943   C1053   1.294   1_455 S
O944   C980    1.294   .     S
C947   O948    1.222   .     D
C947   O949    1.398   .     S
C947   C986    1.480   .     S
O949   H950    1.014   .     S
C951   O953    1.398   .     S
C951   O952    1.222   .     D
C951   C1059   1.480   1_455 S
O953   H954    1.014   .     S
C955   O956    1.222   .     D
C955   O957    1.399   .     S
O957   H958    1.014   .     S
C959   O961    1.399   .     S
C959   O960    1.222   .     D
O961   H962    1.014   .     S
C963   C974    1.447   .     S
C963   O1013   1.289   .     A
C964   C973    1.447   .     S
C964   O1014   1.289   .     A
C964   O1090   1.289   .     S
C965   H1003   1.076   .     S
C965   C967    1.385   .     A
C965   C994    1.415   .     A
C966   C968    1.384   .     A
C966   H1004   1.076   .     S
C966   C993    1.415   .     A
C967   H997    1.084   .     S
C968   H998    1.084   .     S
C968   C326    1.389   1_556 S
C969   C1029   1.486   .     S
C969   C1048   1.412   .     S
C970   C1033   1.486   .     S
C970   C1194   1.390   .     S
C971   H1005   1.085   .     S
C971   C973    1.399   .     A
C971   C1191   1.390   .     S
C972   H1006   1.085   .     S
C972   C974    1.399   .     A
C973   C1044   1.412   .     S
C975   C977    1.416   .     A
C975   H1007   1.082   .     S
C975   N1012   1.367   .     A
C976   H1008   1.082   .     S
C976   N1011   1.367   .     A
C976   C978    1.416   .     A
C977   H1009   1.082   .     S
C977   N1011   1.367   .     A
C978   H1010   1.082   .     S
C978   N1012   1.367   .     A
C979   C981    1.484   .     S
C979   O1019   1.302   .     A
C979   O1091   1.294   .     S
C980   O1020   1.302   .     A
C980   C982    1.484   .     S
C981   C985    1.421   .     A
C981   C987    1.403   .     A
C982   C988    1.403   .     A
C982   C986    1.421   .     A
C983   C985    1.397   .     A
C983   C991    1.399   .     A
C983   H1001   1.085   .     S
C984   C986    1.397   .     A
C984   H1002   1.085   .     S
C984   C992    1.399   .     A
C985   C1099   1.480   .     S
C987   H1000   1.074   .     S
C987   C989    1.407   .     A
C988   H999    1.074   .     S
C988   C990    1.408   .     A
C989   C991    1.414   .     A
C989   C993    1.429   .     A
C990   C994    1.429   .     A
C990   C992    1.414   .     A
C991   C301    1.389   1_556 S
C993   C328    1.429   1_556 S
Cu995  O1017   1.955   .     S
Cu995  O1020   1.936   .     S
Cu995  N1011   2.011   .     S
Cu995  O1016   1.959   .     S
Cu995  O1013   1.959   .     S
Cu996  O1018   1.955   .     S
Cu996  O1019   1.936   .     S
Cu996  N1012   2.011   .     S
Cu996  O1014   1.959   .     S
Cu996  O1015   1.959   .     S
Cu996  Cu1069  2.676   .     S
O1015  C1037   1.289   .     S
O1018  C1054   1.294   .     S
C1021  O1022   1.222   .     D
C1021  O1023   1.398   .     S
C1021  C1060   1.480   .     S
O1023  H1024   1.014   .     S
C1025  O1027   1.398   .     S
C1025  O1026   1.222   .     D
O1027  H1028   1.014   .     S
C1029  O1030   1.222   .     D
C1029  O1031   1.399   .     S
O1031  H1032   1.014   .     S
C1033  O1035   1.399   .     S
C1033  O1034   1.222   .     D
O1035  H1036   1.014   .     S
C1037  C1048   1.447   .     S
C1037  O1087   1.289   .     A
C1038  C1047   1.447   .     S
C1038  O1088   1.289   .     A
C1038  O942    1.289   1_655 S
C1039  H1077   1.076   .     S
C1039  C1041   1.385   .     A
C1039  C1068   1.415   .     A
C1040  C1042   1.384   .     A
C1040  H1078   1.076   .     S
C1040  C1067   1.415   .     A
C1041  H1071   1.084   .     S
C1042  H1072   1.084   .     S
C1042  C400    1.389   1_556 S
C1043  C1103   1.486   .     S
C1043  C900    1.412   1_655 S
C1044  C1107   1.486   .     S
C1044  C1268   1.390   .     S
C1045  H1079   1.085   .     S
C1045  C1047   1.399   .     A
C1045  C1265   1.390   .     S
C1046  H1080   1.085   .     S
C1046  C1048   1.399   .     A
C1047  C896    1.412   1_655 S
C1049  C1051   1.416   .     A
C1049  H1081   1.082   .     S
C1049  N1086   1.367   .     A
C1050  H1082   1.082   .     S
C1050  N1085   1.367   .     A
C1050  C1052   1.416   .     A
C1051  H1083   1.082   .     S
C1051  N1085   1.367   .     A
C1052  H1084   1.082   .     S
C1052  N1086   1.367   .     A
C1053  C1055   1.484   .     S
C1053  O1093   1.302   .     A
C1053  O943    1.294   1_655 S
C1054  O1094   1.302   .     A
C1054  C1056   1.484   .     S
C1055  C1059   1.421   .     A
C1055  C1061   1.403   .     A
C1056  C1062   1.403   .     A
C1056  C1060   1.421   .     A
C1057  C1059   1.397   .     A
C1057  C1065   1.399   .     A
C1057  H1075   1.085   .     S
C1058  C1060   1.397   .     A
C1058  H1076   1.085   .     S
C1058  C1066   1.399   .     A
C1059  C951    1.480   1_655 S
C1061  H1074   1.074   .     S
C1061  C1063   1.407   .     A
C1062  H1073   1.074   .     S
C1062  C1064   1.408   .     A
C1063  C1065   1.414   .     A
C1063  C1067   1.429   .     A
C1064  C1068   1.429   .     A
C1064  C1066   1.414   .     A
C1065  C375    1.389   1_556 S
C1067  C402    1.429   1_556 S
Cu1069 O1091   1.955   .     S
Cu1069 O1094   1.936   .     S
Cu1069 N1085   2.011   .     S
Cu1069 O1090   1.959   .     S
Cu1069 O1087   1.959   .     S
Cu1070 O1092   1.955   .     S
Cu1070 O1093   1.936   .     S
Cu1070 N1086   2.011   .     S
Cu1070 O1088   1.959   .     S
Cu1070 O1089   1.959   .     S
Cu1070 Cu921   2.676   1_655 S
O1089  C889    1.289   1_655 S
O1092  C906    1.294   1_655 S
C1095  O1096   1.222   .     D
C1095  O1097   1.398   .     S
C1095  C912    1.480   1_655 S
O1097  H1098   1.014   .     S
C1099  O1101   1.398   .     S
C1099  O1100   1.222   .     D
O1101  H1102   1.014   .     S
C1103  O1104   1.222   .     D
C1103  O1105   1.399   .     S
O1105  H1106   1.014   .     S
C1107  O1109   1.399   .     S
C1107  O1108   1.222   .     D
O1109  H1110   1.014   .     S
C1111  C1122   1.447   .     S
C1111  O1161   1.289   .     A
C1111  O1311   1.289   1_455 S
C1112  C1121   1.447   .     S
C1112  O1162   1.289   .     A
C1112  O1238   1.289   .     S
C1113  H1151   1.076   .     S
C1113  C1115   1.385   .     A
C1113  C1142   1.415   .     A
C1114  C1116   1.384   .     A
C1114  H1152   1.076   .     S
C1114  C1141   1.415   .     A
C1115  H1145   1.084   .     S
C1116  H1146   1.084   .     S
C1116  C474    1.389   1_556 S
C1117  C1177   1.486   .     S
C1117  C1196   1.412   .     S
C1118  C1181   1.486   .     S
C1118  C676    1.390   1_565 S
C1118  C1269   1.412   1_455 S
C1119  H1153   1.085   .     S
C1119  C1121   1.399   .     A
C1119  C673    1.390   1_565 S
C1120  H1154   1.085   .     S
C1120  C1122   1.399   .     A
C1121  C1192   1.412   .     S
C1122  C1265   1.412   1_455 S
C1123  C1125   1.416   .     A
C1123  H1155   1.082   .     S
C1123  N1160   1.367   .     A
C1124  H1156   1.082   .     S
C1124  N1159   1.367   .     A
C1124  C1126   1.416   .     A
C1125  H1157   1.082   .     S
C1125  N1159   1.367   .     A
C1126  H1158   1.082   .     S
C1126  N1160   1.367   .     A
C1127  C1129   1.484   .     S
C1127  O1167   1.302   .     A
C1127  O1239   1.294   .     S
C1128  O1168   1.302   .     A
C1128  C1130   1.484   .     S
C1128  O1314   1.294   1_455 S
C1129  C1133   1.421   .     A
C1129  C1135   1.403   .     A
C1130  C1136   1.403   .     A
C1130  C1134   1.421   .     A
C1131  C1133   1.397   .     A
C1131  C1139   1.399   .     A
C1131  H1149   1.085   .     S
C1132  C1134   1.397   .     A
C1132  H1150   1.085   .     S
C1132  C1140   1.399   .     A
C1133  C1247   1.480   .     S
C1134  C1317   1.480   1_455 S
C1135  H1148   1.074   .     S
C1135  C1137   1.407   .     A
C1136  H1147   1.074   .     S
C1136  C1138   1.408   .     A
C1137  C1139   1.414   .     A
C1137  C1141   1.429   .     A
C1138  C1142   1.429   .     A
C1138  C1140   1.414   .     A
C1139  C449    1.389   1_556 S
C1141  C476    1.429   1_556 S
Cu1143 O1165   1.955   .     S
Cu1143 O1168   1.936   .     S
Cu1143 N1159   2.011   .     S
Cu1143 O1164   1.959   .     S
Cu1143 O1161   1.959   .     S
Cu1143 Cu1292  2.676   1_455 S
Cu1144 O1166   1.955   .     S
Cu1144 O1167   1.936   .     S
Cu1144 N1160   2.011   .     S
Cu1144 O1162   1.959   .     S
Cu1144 O1163   1.959   .     S
Cu1144 Cu1217  2.676   .     S
O1163  C1185   1.289   .     S
O1164  C1260   1.289   1_455 S
O1165  C1275   1.294   1_455 S
O1166  C1202   1.294   .     S
C1169  O1170   1.222   .     D
C1169  O1171   1.398   .     S
C1169  C1208   1.480   .     S
O1171  H1172   1.014   .     S
C1173  O1175   1.398   .     S
C1173  O1174   1.222   .     D
C1173  C1281   1.480   1_455 S
O1175  H1176   1.014   .     S
C1177  O1178   1.222   .     D
C1177  O1179   1.399   .     S
O1179  H1180   1.014   .     S
C1181  O1183   1.399   .     S
C1181  O1182   1.222   .     D
O1183  H1184   1.014   .     S
C1185  C1196   1.447   .     S
C1185  O1235   1.289   .     A
C1186  C1195   1.447   .     S
C1186  O1236   1.289   .     A
C1186  O1312   1.289   .     S
C1187  H1225   1.076   .     S
C1187  C1189   1.385   .     A
C1187  C1216   1.415   .     A
C1188  C1190   1.384   .     A
C1188  H1226   1.076   .     S
C1188  C1215   1.415   .     A
C1189  H1219   1.084   .     S
C1190  H1220   1.084   .     S
C1190  C548    1.389   1_556 S
C1191  C1251   1.486   .     S
C1191  C1270   1.412   .     S
C1192  C1255   1.486   .     S
C1192  C750    1.390   1_565 S
C1193  H1227   1.085   .     S
C1193  C1195   1.399   .     A
C1193  C747    1.390   1_565 S
C1194  H1228   1.085   .     S
C1194  C1196   1.399   .     A
C1195  C1266   1.412   .     S
C1197  C1199   1.416   .     A
C1197  H1229   1.082   .     S
C1197  N1234   1.367   .     A
C1198  H1230   1.082   .     S
C1198  N1233   1.367   .     A
C1198  C1200   1.416   .     A
C1199  H1231   1.082   .     S
C1199  N1233   1.367   .     A
C1200  H1232   1.082   .     S
C1200  N1234   1.367   .     A
C1201  C1203   1.484   .     S
C1201  O1241   1.302   .     A
C1201  O1313   1.294   .     S
C1202  O1242   1.302   .     A
C1202  C1204   1.484   .     S
C1203  C1207   1.421   .     A
C1203  C1209   1.403   .     A
C1204  C1210   1.403   .     A
C1204  C1208   1.421   .     A
C1205  C1207   1.397   .     A
C1205  C1213   1.399   .     A
C1205  H1223   1.085   .     S
C1206  C1208   1.397   .     A
C1206  H1224   1.085   .     S
C1206  C1214   1.399   .     A
C1207  C1321   1.480   .     S
C1209  H1222   1.074   .     S
C1209  C1211   1.407   .     A
C1210  H1221   1.074   .     S
C1210  C1212   1.408   .     A
C1211  C1213   1.414   .     A
C1211  C1215   1.429   .     A
C1212  C1216   1.429   .     A
C1212  C1214   1.414   .     A
C1213  C523    1.389   1_556 S
C1215  C550    1.429   1_556 S
Cu1217 O1239   1.955   .     S
Cu1217 O1242   1.936   .     S
Cu1217 N1233   2.011   .     S
Cu1217 O1238   1.959   .     S
Cu1217 O1235   1.959   .     S
Cu1218 O1240   1.955   .     S
Cu1218 O1241   1.936   .     S
Cu1218 N1234   2.011   .     S
Cu1218 O1236   1.959   .     S
Cu1218 O1237   1.959   .     S
Cu1218 Cu1291  2.676   .     S
O1237  C1259   1.289   .     S
O1240  C1276   1.294   .     S
C1243  O1244   1.222   .     D
C1243  O1245   1.398   .     S
C1243  C1282   1.480   .     S
O1245  H1246   1.014   .     S
C1247  O1249   1.398   .     S
C1247  O1248   1.222   .     D
O1249  H1250   1.014   .     S
C1251  O1252   1.222   .     D
C1251  O1253   1.399   .     S
O1253  H1254   1.014   .     S
C1255  O1257   1.399   .     S
C1255  O1256   1.222   .     D
O1257  H1258   1.014   .     S
C1259  C1270   1.447   .     S
C1259  O1309   1.289   .     A
C1260  C1269   1.447   .     S
C1260  O1310   1.289   .     A
C1260  O1164   1.289   1_655 S
C1261  H1299   1.076   .     S
C1261  C1263   1.385   .     A
C1261  C1290   1.415   .     A
C1262  C1264   1.384   .     A
C1262  H1300   1.076   .     S
C1262  C1289   1.415   .     A
C1263  H1293   1.084   .     S
C1264  H1294   1.084   .     S
C1264  C622    1.389   1_556 S
C1265  C1325   1.486   .     S
C1265  C1122   1.412   1_655 S
C1266  C1329   1.486   .     S
C1266  C824    1.390   1_565 S
C1267  H1301   1.085   .     S
C1267  C1269   1.399   .     A
C1267  C821    1.390   1_565 S
C1268  H1302   1.085   .     S
C1268  C1270   1.399   .     A
C1269  C1118   1.412   1_655 S
C1271  C1273   1.416   .     A
C1271  H1303   1.082   .     S
C1271  N1308   1.367   .     A
C1272  H1304   1.082   .     S
C1272  N1307   1.367   .     A
C1272  C1274   1.416   .     A
C1273  H1305   1.082   .     S
C1273  N1307   1.367   .     A
C1274  H1306   1.082   .     S
C1274  N1308   1.367   .     A
C1275  C1277   1.484   .     S
C1275  O1315   1.302   .     A
C1275  O1165   1.294   1_655 S
C1276  O1316   1.302   .     A
C1276  C1278   1.484   .     S
C1277  C1281   1.421   .     A
C1277  C1283   1.403   .     A
C1278  C1284   1.403   .     A
C1278  C1282   1.421   .     A
C1279  C1281   1.397   .     A
C1279  C1287   1.399   .     A
C1279  H1297   1.085   .     S
C1280  C1282   1.397   .     A
C1280  H1298   1.085   .     S
C1280  C1288   1.399   .     A
C1281  C1173   1.480   1_655 S
C1283  H1296   1.074   .     S
C1283  C1285   1.407   .     A
C1284  H1295   1.074   .     S
C1284  C1286   1.408   .     A
C1285  C1287   1.414   .     A
C1285  C1289   1.429   .     A
C1286  C1290   1.429   .     A
C1286  C1288   1.414   .     A
C1287  C597    1.389   1_556 S
C1289  C624    1.429   1_556 S
Cu1291 O1313   1.955   .     S
Cu1291 O1316   1.936   .     S
Cu1291 N1307   2.011   .     S
Cu1291 O1312   1.959   .     S
Cu1291 O1309   1.959   .     S
Cu1292 O1314   1.955   .     S
Cu1292 O1315   1.936   .     S
Cu1292 N1308   2.011   .     S
Cu1292 O1310   1.959   .     S
Cu1292 O1311   1.959   .     S
Cu1292 Cu1143  2.676   1_655 S
O1311  C1111   1.289   1_655 S
O1314  C1128   1.294   1_655 S
C1317  O1318   1.222   .     D
C1317  O1319   1.398   .     S
C1317  C1134   1.480   1_655 S
O1319  H1320   1.014   .     S
C1321  O1323   1.398   .     S
C1321  O1322   1.222   .     D
O1323  H1324   1.014   .     S
C1325  O1326   1.222   .     D
C1325  O1327   1.399   .     S
O1327  H1328   1.014   .     S
C1329  O1331   1.399   .     S
C1329  O1330   1.222   .     D
O1331  H1332   1.014   .     S
