data_str_m2_o1_o16_pcu_sym.111
_audit_creation_date              2020-01-03
_audit_creation_method            'Materials Studio'
_symmetry_space_group_name_H-M    'P1'
_symmetry_Int_Tables_number       1
_symmetry_cell_setting            triclinic
loop_
_symmetry_equiv_pos_as_xyz
  x,y,z
_cell_length_a                    28.5451
_cell_length_b                    32.4193
_cell_length_c                    26.9889
_cell_angle_alpha                 90.1002
_cell_angle_beta                  72.3862
_cell_angle_gamma                 89.9314
loop_
_atom_site_label
_atom_site_type_symbol
_atom_site_fract_x
_atom_site_fract_y
_atom_site_fract_z
_atom_site_U_iso_or_equiv
_atom_site_adp_type
_atom_site_occupancy
C1     C     0.16700   0.24595   0.24894   0.00000  Uiso   1.00
C2     C     0.14936   0.17343   0.48597   0.00000  Uiso   1.00
C3     C     0.15657   0.15625   0.43599   0.00000  Uiso   1.00
C4     C     0.18384   0.16453   0.01292   0.00000  Uiso   1.00
C5     C     0.23016   0.14700   0.48571   0.00000  Uiso   1.00
C6     C     0.23589   0.12823   0.43687   0.00000  Uiso   1.00
C7     C     0.19629   0.12851   0.41615   0.00000  Uiso   1.00
C8     C     0.17215   0.17011   0.06693   0.00000  Uiso   1.00
C9     C     0.25635   0.15548   0.06317   0.00000  Uiso   1.00
C10    C     0.12438   0.16804   0.40719   0.00000  Uiso   1.00
C11    C     0.20981   0.31217   0.21868   0.00000  Uiso   1.00
C12    C     0.14030   0.16569   0.35007   0.00000  Uiso   1.00
C13    C     0.20957   0.02167   0.21961   0.00000  Uiso   1.00
C14    C     0.16725   0.04291   0.24815   0.00000  Uiso   1.00
C15    C     0.12493   0.02154   0.27553   0.00000  Uiso   1.00
C16    C     0.12501   0.31220   0.27561   0.00000  Uiso   1.00
C17    C     0.16746   0.29061   0.24757   0.00000  Uiso   1.00
C18    C     0.29903   0.19163   0.28316   0.00000  Uiso   1.00
C19    C     0.01532   0.19163   0.28315   0.00000  Uiso   1.00
C20    C     0.03422   0.14155   0.21699   0.00000  Uiso   1.00
C21    C     0.31801   0.14168   0.21689   0.00000  Uiso   1.00
C22    C     0.16690   0.08743   0.24921   0.00000  Uiso   1.00
C23    C     0.19293   0.16676   0.14978   0.00000  Uiso   1.00
C24    C     0.26732   0.14582   0.01050   0.00000  Uiso   1.00
C25    C     0.20794   0.16496   0.09247   0.00000  Uiso   1.00
C26    C     0.08141   0.19065   0.43169   0.00000  Uiso   1.00
C27    C     0.07409   0.20663   0.48106   0.00000  Uiso   1.00
C28    C     0.10893   0.20027   0.00659   0.00000  Uiso   1.00
Cu29   Cu    0.11978   0.16666   0.25000   0.00000  Uiso   1.00
Cu30   Cu    0.21355   0.16667   0.25000   0.00000  Uiso   1.00
H31    H     0.09217   0.03792   0.29777   0.00000  Uiso   1.00
H32    H     0.27273   0.21166   0.30971   0.00000  Uiso   1.00
H33    H     0.02644   0.21165   0.30964   0.00000  Uiso   1.00
H34    H     0.10442   0.21821   0.04143   0.00000  Uiso   1.00
H35    H     0.04275   0.22638   0.49830   0.00000  Uiso   1.00
N36    N     0.04931   0.16666   0.24998   0.00000  Uiso   1.00
N37    N     0.28402   0.16669   0.25000   0.00000  Uiso   1.00
O38    O     0.12708   0.22678   0.25001   0.00000  Uiso   1.00
O39    O     0.20627   0.22679   0.25001   0.00000  Uiso   1.00
O40    O     0.10775   0.16665   0.32549   0.00000  Uiso   1.00
O41    O     0.18694   0.16666   0.32549   0.00000  Uiso   1.00
O42    O     0.12706   0.10654   0.24999   0.00000  Uiso   1.00
O43    O     0.20625   0.10655   0.24999   0.00000  Uiso   1.00
O44    O     0.14640   0.16667   0.17451   0.00000  Uiso   1.00
O45    O     0.22559   0.16668   0.17451   0.00000  Uiso   1.00
F46    F     0.29254   0.15243   0.08604   0.00000  Uiso   1.00
F47    F     0.24995   0.04257   0.19117   0.00000  Uiso   1.00
F48    F     0.08405   0.29207   0.30417   0.00000  Uiso   1.00
F49    F     0.06685   0.11601   0.18408   0.00000  Uiso   1.00
F50    F     0.30431   0.11668   0.18349   0.00000  Uiso   1.00
Br51   Br    0.29431   0.09772   0.39983   0.00000  Uiso   1.00
F52    F     0.31425   0.13476   0.48492   0.00000  Uiso   1.00
F53    F     0.12442   0.17532   0.09564   0.00000  Uiso   1.00
F54    F     0.04890   0.20115   0.40607   0.00000  Uiso   1.00
Br55   Br    0.19120   0.08363   0.37072   0.00000  Uiso   1.00
Br56   Br    0.26767   0.28510   0.17459   0.00000  Uiso   1.00
C57    C     0.50033   0.24595   0.24894   0.00000  Uiso   1.00
C58    C     0.48269   0.17343   0.48597   0.00000  Uiso   1.00
C59    C     0.48991   0.15625   0.43599   0.00000  Uiso   1.00
C60    C     0.51718   0.16453   0.01292   0.00000  Uiso   1.00
C61    C     0.56349   0.14700   0.48571   0.00000  Uiso   1.00
C62    C     0.56922   0.12823   0.43687   0.00000  Uiso   1.00
C63    C     0.52962   0.12851   0.41615   0.00000  Uiso   1.00
C64    C     0.50548   0.17011   0.06693   0.00000  Uiso   1.00
C65    C     0.58969   0.15548   0.06317   0.00000  Uiso   1.00
C66    C     0.45771   0.16804   0.40719   0.00000  Uiso   1.00
C67    C     0.54315   0.31217   0.21868   0.00000  Uiso   1.00
C68    C     0.47363   0.16569   0.35007   0.00000  Uiso   1.00
C69    C     0.54290   0.02167   0.21961   0.00000  Uiso   1.00
C70    C     0.50058   0.04291   0.24815   0.00000  Uiso   1.00
C71    C     0.45826   0.02154   0.27553   0.00000  Uiso   1.00
C72    C     0.45834   0.31220   0.27561   0.00000  Uiso   1.00
C73    C     0.50079   0.29061   0.24757   0.00000  Uiso   1.00
C74    C     0.63236   0.19163   0.28316   0.00000  Uiso   1.00
C75    C     0.34865   0.19163   0.28315   0.00000  Uiso   1.00
C76    C     0.36755   0.14155   0.21699   0.00000  Uiso   1.00
C77    C     0.65135   0.14168   0.21689   0.00000  Uiso   1.00
C78    C     0.50023   0.08743   0.24921   0.00000  Uiso   1.00
C79    C     0.52627   0.16676   0.14978   0.00000  Uiso   1.00
C80    C     0.60066   0.14582   0.01050   0.00000  Uiso   1.00
C81    C     0.54127   0.16496   0.09247   0.00000  Uiso   1.00
C82    C     0.41475   0.19065   0.43169   0.00000  Uiso   1.00
C83    C     0.40742   0.20663   0.48106   0.00000  Uiso   1.00
C84    C     0.44227   0.20027   0.00659   0.00000  Uiso   1.00
Cu85   Cu    0.45311   0.16666   0.25000   0.00000  Uiso   1.00
Cu86   Cu    0.54689   0.16667   0.25000   0.00000  Uiso   1.00
H87    H     0.42550   0.03792   0.29777   0.00000  Uiso   1.00
H88    H     0.60607   0.21166   0.30971   0.00000  Uiso   1.00
H89    H     0.35977   0.21165   0.30964   0.00000  Uiso   1.00
H90    H     0.43776   0.21821   0.04143   0.00000  Uiso   1.00
H91    H     0.37608   0.22638   0.49830   0.00000  Uiso   1.00
N92    N     0.38265   0.16666   0.24998   0.00000  Uiso   1.00
N93    N     0.61735   0.16669   0.25000   0.00000  Uiso   1.00
O94    O     0.46042   0.22678   0.25001   0.00000  Uiso   1.00
O95    O     0.53961   0.22679   0.25001   0.00000  Uiso   1.00
O96    O     0.44108   0.16665   0.32549   0.00000  Uiso   1.00
O97    O     0.52027   0.16666   0.32549   0.00000  Uiso   1.00
O98    O     0.46039   0.10654   0.24999   0.00000  Uiso   1.00
O99    O     0.53958   0.10655   0.24999   0.00000  Uiso   1.00
O100   O     0.47973   0.16667   0.17451   0.00000  Uiso   1.00
O101   O     0.55892   0.16668   0.17451   0.00000  Uiso   1.00
F102   F     0.62588   0.15243   0.08604   0.00000  Uiso   1.00
F103   F     0.58329   0.04257   0.19117   0.00000  Uiso   1.00
F104   F     0.41738   0.29207   0.30417   0.00000  Uiso   1.00
F105   F     0.40018   0.11601   0.18408   0.00000  Uiso   1.00
F106   F     0.63764   0.11668   0.18349   0.00000  Uiso   1.00
Br107  Br    0.62764   0.09772   0.39983   0.00000  Uiso   1.00
F108   F     0.64758   0.13476   0.48492   0.00000  Uiso   1.00
F109   F     0.45776   0.17532   0.09564   0.00000  Uiso   1.00
F110   F     0.38223   0.20115   0.40607   0.00000  Uiso   1.00
Br111  Br    0.52453   0.08363   0.37072   0.00000  Uiso   1.00
Br112  Br    0.60100   0.28510   0.17459   0.00000  Uiso   1.00
C113   C     0.83367   0.24595   0.24894   0.00000  Uiso   1.00
C114   C     0.81603   0.17343   0.48597   0.00000  Uiso   1.00
C115   C     0.82324   0.15625   0.43599   0.00000  Uiso   1.00
C116   C     0.85051   0.16453   0.01292   0.00000  Uiso   1.00
C117   C     0.89683   0.14700   0.48571   0.00000  Uiso   1.00
C118   C     0.90255   0.12823   0.43687   0.00000  Uiso   1.00
C119   C     0.86295   0.12851   0.41615   0.00000  Uiso   1.00
C120   C     0.83881   0.17011   0.06693   0.00000  Uiso   1.00
C121   C     0.92302   0.15548   0.06317   0.00000  Uiso   1.00
C122   C     0.79104   0.16804   0.40719   0.00000  Uiso   1.00
C123   C     0.87648   0.31217   0.21868   0.00000  Uiso   1.00
C124   C     0.80697   0.16569   0.35007   0.00000  Uiso   1.00
C125   C     0.87623   0.02167   0.21961   0.00000  Uiso   1.00
C126   C     0.83391   0.04291   0.24815   0.00000  Uiso   1.00
C127   C     0.79160   0.02154   0.27553   0.00000  Uiso   1.00
C128   C     0.79168   0.31220   0.27561   0.00000  Uiso   1.00
C129   C     0.83412   0.29061   0.24757   0.00000  Uiso   1.00
C130   C     0.96569   0.19163   0.28316   0.00000  Uiso   1.00
C131   C     0.68198   0.19163   0.28315   0.00000  Uiso   1.00
C132   C     0.70089   0.14155   0.21699   0.00000  Uiso   1.00
C133   C     0.98468   0.14168   0.21689   0.00000  Uiso   1.00
C134   C     0.83357   0.08743   0.24921   0.00000  Uiso   1.00
C135   C     0.85960   0.16676   0.14978   0.00000  Uiso   1.00
C136   C     0.93399   0.14582   0.01050   0.00000  Uiso   1.00
C137   C     0.87461   0.16496   0.09247   0.00000  Uiso   1.00
C138   C     0.74808   0.19065   0.43169   0.00000  Uiso   1.00
C139   C     0.74076   0.20663   0.48106   0.00000  Uiso   1.00
C140   C     0.77560   0.20027   0.00659   0.00000  Uiso   1.00
Cu141  Cu    0.78645   0.16666   0.25000   0.00000  Uiso   1.00
Cu142  Cu    0.88022   0.16667   0.25000   0.00000  Uiso   1.00
H143   H     0.75883   0.03792   0.29777   0.00000  Uiso   1.00
H144   H     0.93940   0.21166   0.30971   0.00000  Uiso   1.00
H145   H     0.69310   0.21165   0.30964   0.00000  Uiso   1.00
H146   H     0.77109   0.21821   0.04143   0.00000  Uiso   1.00
H147   H     0.70941   0.22638   0.49830   0.00000  Uiso   1.00
N148   N     0.71598   0.16666   0.24998   0.00000  Uiso   1.00
N149   N     0.95069   0.16669   0.25000   0.00000  Uiso   1.00
O150   O     0.79375   0.22678   0.25001   0.00000  Uiso   1.00
O151   O     0.87294   0.22679   0.25001   0.00000  Uiso   1.00
O152   O     0.77441   0.16665   0.32549   0.00000  Uiso   1.00
O153   O     0.85360   0.16666   0.32549   0.00000  Uiso   1.00
O154   O     0.79373   0.10654   0.24999   0.00000  Uiso   1.00
O155   O     0.87292   0.10655   0.24999   0.00000  Uiso   1.00
O156   O     0.81306   0.16667   0.17451   0.00000  Uiso   1.00
O157   O     0.89225   0.16668   0.17451   0.00000  Uiso   1.00
F158   F     0.95921   0.15243   0.08604   0.00000  Uiso   1.00
F159   F     0.91662   0.04257   0.19117   0.00000  Uiso   1.00
F160   F     0.75071   0.29207   0.30417   0.00000  Uiso   1.00
F161   F     0.73351   0.11601   0.18408   0.00000  Uiso   1.00
F162   F     0.97098   0.11668   0.18349   0.00000  Uiso   1.00
Br163  Br    0.96098   0.09772   0.39983   0.00000  Uiso   1.00
F164   F     0.98091   0.13476   0.48492   0.00000  Uiso   1.00
F165   F     0.79109   0.17532   0.09564   0.00000  Uiso   1.00
F166   F     0.71556   0.20115   0.40607   0.00000  Uiso   1.00
Br167  Br    0.85787   0.08363   0.37072   0.00000  Uiso   1.00
Br168  Br    0.93433   0.28510   0.17459   0.00000  Uiso   1.00
C169   C     0.16700   0.57928   0.24894   0.00000  Uiso   1.00
C170   C     0.14936   0.50676   0.48597   0.00000  Uiso   1.00
C171   C     0.15657   0.48958   0.43599   0.00000  Uiso   1.00
C172   C     0.18384   0.49787   0.01292   0.00000  Uiso   1.00
C173   C     0.23016   0.48033   0.48571   0.00000  Uiso   1.00
C174   C     0.23589   0.46157   0.43687   0.00000  Uiso   1.00
C175   C     0.19629   0.46184   0.41615   0.00000  Uiso   1.00
C176   C     0.17215   0.50344   0.06693   0.00000  Uiso   1.00
C177   C     0.25635   0.48881   0.06317   0.00000  Uiso   1.00
C178   C     0.12438   0.50137   0.40719   0.00000  Uiso   1.00
C179   C     0.20981   0.64550   0.21868   0.00000  Uiso   1.00
C180   C     0.14030   0.49902   0.35007   0.00000  Uiso   1.00
C181   C     0.20957   0.35501   0.21961   0.00000  Uiso   1.00
C182   C     0.16725   0.37625   0.24815   0.00000  Uiso   1.00
C183   C     0.12493   0.35487   0.27553   0.00000  Uiso   1.00
C184   C     0.12501   0.64554   0.27561   0.00000  Uiso   1.00
C185   C     0.16746   0.62394   0.24757   0.00000  Uiso   1.00
C186   C     0.29903   0.52497   0.28316   0.00000  Uiso   1.00
C187   C     0.01532   0.52496   0.28315   0.00000  Uiso   1.00
C188   C     0.03422   0.47488   0.21699   0.00000  Uiso   1.00
C189   C     0.31801   0.47501   0.21689   0.00000  Uiso   1.00
C190   C     0.16690   0.42077   0.24921   0.00000  Uiso   1.00
C191   C     0.19293   0.50009   0.14978   0.00000  Uiso   1.00
C192   C     0.26732   0.47915   0.01050   0.00000  Uiso   1.00
C193   C     0.20794   0.49829   0.09247   0.00000  Uiso   1.00
C194   C     0.08141   0.52398   0.43169   0.00000  Uiso   1.00
C195   C     0.07409   0.53996   0.48106   0.00000  Uiso   1.00
C196   C     0.10893   0.53361   0.00659   0.00000  Uiso   1.00
Cu197  Cu    0.11978   0.49999   0.25000   0.00000  Uiso   1.00
Cu198  Cu    0.21355   0.50001   0.25000   0.00000  Uiso   1.00
H199   H     0.09217   0.37126   0.29777   0.00000  Uiso   1.00
H200   H     0.27273   0.54499   0.30971   0.00000  Uiso   1.00
H201   H     0.02644   0.54498   0.30964   0.00000  Uiso   1.00
H202   H     0.10442   0.55154   0.04143   0.00000  Uiso   1.00
H203   H     0.04275   0.55972   0.49830   0.00000  Uiso   1.00
N204   N     0.04931   0.49999   0.24998   0.00000  Uiso   1.00
N205   N     0.28402   0.50002   0.25000   0.00000  Uiso   1.00
O206   O     0.12708   0.56011   0.25001   0.00000  Uiso   1.00
O207   O     0.20627   0.56012   0.25001   0.00000  Uiso   1.00
O208   O     0.10775   0.49998   0.32549   0.00000  Uiso   1.00
O209   O     0.18694   0.49999   0.32549   0.00000  Uiso   1.00
O210   O     0.12706   0.43988   0.24999   0.00000  Uiso   1.00
O211   O     0.20625   0.43989   0.24999   0.00000  Uiso   1.00
O212   O     0.14640   0.50001   0.17451   0.00000  Uiso   1.00
O213   O     0.22559   0.50002   0.17451   0.00000  Uiso   1.00
F214   F     0.29254   0.48576   0.08604   0.00000  Uiso   1.00
F215   F     0.24995   0.37590   0.19117   0.00000  Uiso   1.00
F216   F     0.08405   0.62540   0.30417   0.00000  Uiso   1.00
F217   F     0.06685   0.44935   0.18408   0.00000  Uiso   1.00
F218   F     0.30431   0.45001   0.18349   0.00000  Uiso   1.00
Br219  Br    0.29431   0.43105   0.39983   0.00000  Uiso   1.00
F220   F     0.31425   0.46809   0.48492   0.00000  Uiso   1.00
F221   F     0.12442   0.50865   0.09564   0.00000  Uiso   1.00
F222   F     0.04890   0.53448   0.40607   0.00000  Uiso   1.00
Br223  Br    0.19120   0.41697   0.37072   0.00000  Uiso   1.00
Br224  Br    0.26767   0.61843   0.17459   0.00000  Uiso   1.00
C225   C     0.50033   0.57928   0.24894   0.00000  Uiso   1.00
C226   C     0.48269   0.50676   0.48597   0.00000  Uiso   1.00
C227   C     0.48991   0.48958   0.43599   0.00000  Uiso   1.00
C228   C     0.51718   0.49787   0.01292   0.00000  Uiso   1.00
C229   C     0.56349   0.48033   0.48571   0.00000  Uiso   1.00
C230   C     0.56922   0.46157   0.43687   0.00000  Uiso   1.00
C231   C     0.52962   0.46184   0.41615   0.00000  Uiso   1.00
C232   C     0.50548   0.50344   0.06693   0.00000  Uiso   1.00
C233   C     0.58969   0.48881   0.06317   0.00000  Uiso   1.00
C234   C     0.45771   0.50137   0.40719   0.00000  Uiso   1.00
C235   C     0.54315   0.64550   0.21868   0.00000  Uiso   1.00
C236   C     0.47363   0.49902   0.35007   0.00000  Uiso   1.00
C237   C     0.54290   0.35501   0.21961   0.00000  Uiso   1.00
C238   C     0.50058   0.37625   0.24815   0.00000  Uiso   1.00
C239   C     0.45826   0.35487   0.27553   0.00000  Uiso   1.00
C240   C     0.45834   0.64554   0.27561   0.00000  Uiso   1.00
C241   C     0.50079   0.62394   0.24757   0.00000  Uiso   1.00
C242   C     0.63236   0.52497   0.28316   0.00000  Uiso   1.00
C243   C     0.34865   0.52496   0.28315   0.00000  Uiso   1.00
C244   C     0.36755   0.47488   0.21699   0.00000  Uiso   1.00
C245   C     0.65135   0.47501   0.21689   0.00000  Uiso   1.00
C246   C     0.50023   0.42077   0.24921   0.00000  Uiso   1.00
C247   C     0.52627   0.50009   0.14978   0.00000  Uiso   1.00
C248   C     0.60066   0.47915   0.01050   0.00000  Uiso   1.00
C249   C     0.54127   0.49829   0.09247   0.00000  Uiso   1.00
C250   C     0.41475   0.52398   0.43169   0.00000  Uiso   1.00
C251   C     0.40742   0.53996   0.48106   0.00000  Uiso   1.00
C252   C     0.44227   0.53361   0.00659   0.00000  Uiso   1.00
Cu253  Cu    0.45311   0.49999   0.25000   0.00000  Uiso   1.00
Cu254  Cu    0.54689   0.50001   0.25000   0.00000  Uiso   1.00
H255   H     0.42550   0.37126   0.29777   0.00000  Uiso   1.00
H256   H     0.60607   0.54499   0.30971   0.00000  Uiso   1.00
H257   H     0.35977   0.54498   0.30964   0.00000  Uiso   1.00
H258   H     0.43776   0.55154   0.04143   0.00000  Uiso   1.00
H259   H     0.37608   0.55972   0.49830   0.00000  Uiso   1.00
N260   N     0.38265   0.49999   0.24998   0.00000  Uiso   1.00
N261   N     0.61735   0.50002   0.25000   0.00000  Uiso   1.00
O262   O     0.46042   0.56011   0.25001   0.00000  Uiso   1.00
O263   O     0.53961   0.56012   0.25001   0.00000  Uiso   1.00
O264   O     0.44108   0.49998   0.32549   0.00000  Uiso   1.00
O265   O     0.52027   0.49999   0.32549   0.00000  Uiso   1.00
O266   O     0.46039   0.43988   0.24999   0.00000  Uiso   1.00
O267   O     0.53958   0.43989   0.24999   0.00000  Uiso   1.00
O268   O     0.47973   0.50001   0.17451   0.00000  Uiso   1.00
O269   O     0.55892   0.50002   0.17451   0.00000  Uiso   1.00
F270   F     0.62588   0.48576   0.08604   0.00000  Uiso   1.00
F271   F     0.58329   0.37590   0.19117   0.00000  Uiso   1.00
F272   F     0.41738   0.62540   0.30417   0.00000  Uiso   1.00
F273   F     0.40018   0.44935   0.18408   0.00000  Uiso   1.00
F274   F     0.63764   0.45001   0.18349   0.00000  Uiso   1.00
Br275  Br    0.62764   0.43105   0.39983   0.00000  Uiso   1.00
F276   F     0.64758   0.46809   0.48492   0.00000  Uiso   1.00
F277   F     0.45776   0.50865   0.09564   0.00000  Uiso   1.00
F278   F     0.38223   0.53448   0.40607   0.00000  Uiso   1.00
Br279  Br    0.52453   0.41697   0.37072   0.00000  Uiso   1.00
Br280  Br    0.60100   0.61843   0.17459   0.00000  Uiso   1.00
C281   C     0.83367   0.57928   0.24894   0.00000  Uiso   1.00
C282   C     0.81603   0.50676   0.48597   0.00000  Uiso   1.00
C283   C     0.82324   0.48958   0.43599   0.00000  Uiso   1.00
C284   C     0.85051   0.49787   0.01292   0.00000  Uiso   1.00
C285   C     0.89683   0.48033   0.48571   0.00000  Uiso   1.00
C286   C     0.90255   0.46157   0.43687   0.00000  Uiso   1.00
C287   C     0.86295   0.46184   0.41615   0.00000  Uiso   1.00
C288   C     0.83881   0.50344   0.06693   0.00000  Uiso   1.00
C289   C     0.92302   0.48881   0.06317   0.00000  Uiso   1.00
C290   C     0.79104   0.50137   0.40719   0.00000  Uiso   1.00
C291   C     0.87648   0.64550   0.21868   0.00000  Uiso   1.00
C292   C     0.80697   0.49902   0.35007   0.00000  Uiso   1.00
C293   C     0.87623   0.35501   0.21961   0.00000  Uiso   1.00
C294   C     0.83391   0.37625   0.24815   0.00000  Uiso   1.00
C295   C     0.79160   0.35487   0.27553   0.00000  Uiso   1.00
C296   C     0.79168   0.64554   0.27561   0.00000  Uiso   1.00
C297   C     0.83412   0.62394   0.24757   0.00000  Uiso   1.00
C298   C     0.96569   0.52497   0.28316   0.00000  Uiso   1.00
C299   C     0.68198   0.52496   0.28315   0.00000  Uiso   1.00
C300   C     0.70089   0.47488   0.21699   0.00000  Uiso   1.00
C301   C     0.98468   0.47501   0.21689   0.00000  Uiso   1.00
C302   C     0.83357   0.42077   0.24921   0.00000  Uiso   1.00
C303   C     0.85960   0.50009   0.14978   0.00000  Uiso   1.00
C304   C     0.93399   0.47915   0.01050   0.00000  Uiso   1.00
C305   C     0.87461   0.49829   0.09247   0.00000  Uiso   1.00
C306   C     0.74808   0.52398   0.43169   0.00000  Uiso   1.00
C307   C     0.74076   0.53996   0.48106   0.00000  Uiso   1.00
C308   C     0.77560   0.53361   0.00659   0.00000  Uiso   1.00
Cu309  Cu    0.78645   0.49999   0.25000   0.00000  Uiso   1.00
Cu310  Cu    0.88022   0.50001   0.25000   0.00000  Uiso   1.00
H311   H     0.75883   0.37126   0.29777   0.00000  Uiso   1.00
H312   H     0.93940   0.54499   0.30971   0.00000  Uiso   1.00
H313   H     0.69310   0.54498   0.30964   0.00000  Uiso   1.00
H314   H     0.77109   0.55154   0.04143   0.00000  Uiso   1.00
H315   H     0.70941   0.55972   0.49830   0.00000  Uiso   1.00
N316   N     0.71598   0.49999   0.24998   0.00000  Uiso   1.00
N317   N     0.95069   0.50002   0.25000   0.00000  Uiso   1.00
O318   O     0.79375   0.56011   0.25001   0.00000  Uiso   1.00
O319   O     0.87294   0.56012   0.25001   0.00000  Uiso   1.00
O320   O     0.77441   0.49998   0.32549   0.00000  Uiso   1.00
O321   O     0.85360   0.49999   0.32549   0.00000  Uiso   1.00
O322   O     0.79373   0.43988   0.24999   0.00000  Uiso   1.00
O323   O     0.87292   0.43989   0.24999   0.00000  Uiso   1.00
O324   O     0.81306   0.50001   0.17451   0.00000  Uiso   1.00
O325   O     0.89225   0.50002   0.17451   0.00000  Uiso   1.00
F326   F     0.95921   0.48576   0.08604   0.00000  Uiso   1.00
F327   F     0.91662   0.37590   0.19117   0.00000  Uiso   1.00
F328   F     0.75071   0.62540   0.30417   0.00000  Uiso   1.00
F329   F     0.73351   0.44935   0.18408   0.00000  Uiso   1.00
F330   F     0.97098   0.45001   0.18349   0.00000  Uiso   1.00
Br331  Br    0.96098   0.43105   0.39983   0.00000  Uiso   1.00
F332   F     0.98091   0.46809   0.48492   0.00000  Uiso   1.00
F333   F     0.79109   0.50865   0.09564   0.00000  Uiso   1.00
F334   F     0.71556   0.53448   0.40607   0.00000  Uiso   1.00
Br335  Br    0.85787   0.41697   0.37072   0.00000  Uiso   1.00
Br336  Br    0.93433   0.61843   0.17459   0.00000  Uiso   1.00
C337   C     0.16700   0.91262   0.24894   0.00000  Uiso   1.00
C338   C     0.14936   0.84009   0.48597   0.00000  Uiso   1.00
C339   C     0.15657   0.82291   0.43599   0.00000  Uiso   1.00
C340   C     0.18384   0.83120   0.01292   0.00000  Uiso   1.00
C341   C     0.23016   0.81367   0.48571   0.00000  Uiso   1.00
C342   C     0.23589   0.79490   0.43687   0.00000  Uiso   1.00
C343   C     0.19629   0.79518   0.41615   0.00000  Uiso   1.00
C344   C     0.17215   0.83677   0.06693   0.00000  Uiso   1.00
C345   C     0.25635   0.82215   0.06317   0.00000  Uiso   1.00
C346   C     0.12438   0.83471   0.40719   0.00000  Uiso   1.00
C347   C     0.20981   0.97884   0.21868   0.00000  Uiso   1.00
C348   C     0.14030   0.83236   0.35007   0.00000  Uiso   1.00
C349   C     0.20957   0.68834   0.21961   0.00000  Uiso   1.00
C350   C     0.16725   0.70958   0.24815   0.00000  Uiso   1.00
C351   C     0.12493   0.68821   0.27553   0.00000  Uiso   1.00
C352   C     0.12501   0.97887   0.27561   0.00000  Uiso   1.00
C353   C     0.16746   0.95728   0.24757   0.00000  Uiso   1.00
C354   C     0.29903   0.85830   0.28316   0.00000  Uiso   1.00
C355   C     0.01532   0.85829   0.28315   0.00000  Uiso   1.00
C356   C     0.03422   0.80821   0.21699   0.00000  Uiso   1.00
C357   C     0.31801   0.80835   0.21689   0.00000  Uiso   1.00
C358   C     0.16690   0.75410   0.24921   0.00000  Uiso   1.00
C359   C     0.19293   0.83342   0.14978   0.00000  Uiso   1.00
C360   C     0.26732   0.81248   0.01050   0.00000  Uiso   1.00
C361   C     0.20794   0.83162   0.09247   0.00000  Uiso   1.00
C362   C     0.08141   0.85732   0.43169   0.00000  Uiso   1.00
C363   C     0.07409   0.87329   0.48106   0.00000  Uiso   1.00
C364   C     0.10893   0.86694   0.00659   0.00000  Uiso   1.00
Cu365  Cu    0.11978   0.83333   0.25000   0.00000  Uiso   1.00
Cu366  Cu    0.21355   0.83334   0.25000   0.00000  Uiso   1.00
H367   H     0.09217   0.70459   0.29777   0.00000  Uiso   1.00
H368   H     0.27273   0.87832   0.30971   0.00000  Uiso   1.00
H369   H     0.02644   0.87831   0.30964   0.00000  Uiso   1.00
H370   H     0.10442   0.88488   0.04143   0.00000  Uiso   1.00
H371   H     0.04275   0.89305   0.49830   0.00000  Uiso   1.00
N372   N     0.04931   0.83332   0.24998   0.00000  Uiso   1.00
N373   N     0.28402   0.83335   0.25000   0.00000  Uiso   1.00
O374   O     0.12708   0.89345   0.25001   0.00000  Uiso   1.00
O375   O     0.20627   0.89346   0.25001   0.00000  Uiso   1.00
O376   O     0.10775   0.83332   0.32549   0.00000  Uiso   1.00
O377   O     0.18694   0.83333   0.32549   0.00000  Uiso   1.00
O378   O     0.12706   0.77321   0.24999   0.00000  Uiso   1.00
O379   O     0.20625   0.77322   0.24999   0.00000  Uiso   1.00
O380   O     0.14640   0.83334   0.17451   0.00000  Uiso   1.00
O381   O     0.22559   0.83335   0.17451   0.00000  Uiso   1.00
F382   F     0.29254   0.81910   0.08604   0.00000  Uiso   1.00
F383   F     0.24995   0.70923   0.19117   0.00000  Uiso   1.00
F384   F     0.08405   0.95874   0.30417   0.00000  Uiso   1.00
F385   F     0.06685   0.78268   0.18408   0.00000  Uiso   1.00
F386   F     0.30431   0.78334   0.18349   0.00000  Uiso   1.00
Br387  Br    0.29431   0.76438   0.39983   0.00000  Uiso   1.00
F388   F     0.31425   0.80143   0.48492   0.00000  Uiso   1.00
F389   F     0.12442   0.84199   0.09564   0.00000  Uiso   1.00
F390   F     0.04890   0.86782   0.40607   0.00000  Uiso   1.00
Br391  Br    0.19120   0.75030   0.37072   0.00000  Uiso   1.00
Br392  Br    0.26767   0.95177   0.17459   0.00000  Uiso   1.00
C393   C     0.50033   0.91262   0.24894   0.00000  Uiso   1.00
C394   C     0.48269   0.84009   0.48597   0.00000  Uiso   1.00
C395   C     0.48991   0.82291   0.43599   0.00000  Uiso   1.00
C396   C     0.51718   0.83120   0.01292   0.00000  Uiso   1.00
C397   C     0.56349   0.81367   0.48571   0.00000  Uiso   1.00
C398   C     0.56922   0.79490   0.43687   0.00000  Uiso   1.00
C399   C     0.52962   0.79518   0.41615   0.00000  Uiso   1.00
C400   C     0.50548   0.83677   0.06693   0.00000  Uiso   1.00
C401   C     0.58969   0.82215   0.06317   0.00000  Uiso   1.00
C402   C     0.45771   0.83471   0.40719   0.00000  Uiso   1.00
C403   C     0.54315   0.97884   0.21868   0.00000  Uiso   1.00
C404   C     0.47363   0.83236   0.35007   0.00000  Uiso   1.00
C405   C     0.54290   0.68834   0.21961   0.00000  Uiso   1.00
C406   C     0.50058   0.70958   0.24815   0.00000  Uiso   1.00
C407   C     0.45826   0.68821   0.27553   0.00000  Uiso   1.00
C408   C     0.45834   0.97887   0.27561   0.00000  Uiso   1.00
C409   C     0.50079   0.95728   0.24757   0.00000  Uiso   1.00
C410   C     0.63236   0.85830   0.28316   0.00000  Uiso   1.00
C411   C     0.34865   0.85829   0.28315   0.00000  Uiso   1.00
C412   C     0.36755   0.80821   0.21699   0.00000  Uiso   1.00
C413   C     0.65135   0.80835   0.21689   0.00000  Uiso   1.00
C414   C     0.50023   0.75410   0.24921   0.00000  Uiso   1.00
C415   C     0.52627   0.83342   0.14978   0.00000  Uiso   1.00
C416   C     0.60066   0.81248   0.01050   0.00000  Uiso   1.00
C417   C     0.54127   0.83162   0.09247   0.00000  Uiso   1.00
C418   C     0.41475   0.85732   0.43169   0.00000  Uiso   1.00
C419   C     0.40742   0.87329   0.48106   0.00000  Uiso   1.00
C420   C     0.44227   0.86694   0.00659   0.00000  Uiso   1.00
Cu421  Cu    0.45311   0.83333   0.25000   0.00000  Uiso   1.00
Cu422  Cu    0.54689   0.83334   0.25000   0.00000  Uiso   1.00
H423   H     0.42550   0.70459   0.29777   0.00000  Uiso   1.00
H424   H     0.60607   0.87832   0.30971   0.00000  Uiso   1.00
H425   H     0.35977   0.87831   0.30964   0.00000  Uiso   1.00
H426   H     0.43776   0.88488   0.04143   0.00000  Uiso   1.00
H427   H     0.37608   0.89305   0.49830   0.00000  Uiso   1.00
N428   N     0.38265   0.83332   0.24998   0.00000  Uiso   1.00
N429   N     0.61735   0.83335   0.25000   0.00000  Uiso   1.00
O430   O     0.46042   0.89345   0.25001   0.00000  Uiso   1.00
O431   O     0.53961   0.89346   0.25001   0.00000  Uiso   1.00
O432   O     0.44108   0.83332   0.32549   0.00000  Uiso   1.00
O433   O     0.52027   0.83333   0.32549   0.00000  Uiso   1.00
O434   O     0.46039   0.77321   0.24999   0.00000  Uiso   1.00
O435   O     0.53958   0.77322   0.24999   0.00000  Uiso   1.00
O436   O     0.47973   0.83334   0.17451   0.00000  Uiso   1.00
O437   O     0.55892   0.83335   0.17451   0.00000  Uiso   1.00
F438   F     0.62588   0.81910   0.08604   0.00000  Uiso   1.00
F439   F     0.58329   0.70923   0.19117   0.00000  Uiso   1.00
F440   F     0.41738   0.95874   0.30417   0.00000  Uiso   1.00
F441   F     0.40018   0.78268   0.18408   0.00000  Uiso   1.00
F442   F     0.63764   0.78334   0.18349   0.00000  Uiso   1.00
Br443  Br    0.62764   0.76438   0.39983   0.00000  Uiso   1.00
F444   F     0.64758   0.80143   0.48492   0.00000  Uiso   1.00
F445   F     0.45776   0.84199   0.09564   0.00000  Uiso   1.00
F446   F     0.38223   0.86782   0.40607   0.00000  Uiso   1.00
Br447  Br    0.52453   0.75030   0.37072   0.00000  Uiso   1.00
Br448  Br    0.60100   0.95177   0.17459   0.00000  Uiso   1.00
C449   C     0.83367   0.91262   0.24894   0.00000  Uiso   1.00
C450   C     0.81603   0.84009   0.48597   0.00000  Uiso   1.00
C451   C     0.82324   0.82291   0.43599   0.00000  Uiso   1.00
C452   C     0.85051   0.83120   0.01292   0.00000  Uiso   1.00
C453   C     0.89683   0.81367   0.48571   0.00000  Uiso   1.00
C454   C     0.90255   0.79490   0.43687   0.00000  Uiso   1.00
C455   C     0.86295   0.79518   0.41615   0.00000  Uiso   1.00
C456   C     0.83881   0.83677   0.06693   0.00000  Uiso   1.00
C457   C     0.92302   0.82215   0.06317   0.00000  Uiso   1.00
C458   C     0.79104   0.83471   0.40719   0.00000  Uiso   1.00
C459   C     0.87648   0.97884   0.21868   0.00000  Uiso   1.00
C460   C     0.80697   0.83236   0.35007   0.00000  Uiso   1.00
C461   C     0.87623   0.68834   0.21961   0.00000  Uiso   1.00
C462   C     0.83391   0.70958   0.24815   0.00000  Uiso   1.00
C463   C     0.79160   0.68821   0.27553   0.00000  Uiso   1.00
C464   C     0.79168   0.97887   0.27561   0.00000  Uiso   1.00
C465   C     0.83412   0.95728   0.24757   0.00000  Uiso   1.00
C466   C     0.96569   0.85830   0.28316   0.00000  Uiso   1.00
C467   C     0.68198   0.85829   0.28315   0.00000  Uiso   1.00
C468   C     0.70089   0.80821   0.21699   0.00000  Uiso   1.00
C469   C     0.98468   0.80835   0.21689   0.00000  Uiso   1.00
C470   C     0.83357   0.75410   0.24921   0.00000  Uiso   1.00
C471   C     0.85960   0.83342   0.14978   0.00000  Uiso   1.00
C472   C     0.93399   0.81248   0.01050   0.00000  Uiso   1.00
C473   C     0.87461   0.83162   0.09247   0.00000  Uiso   1.00
C474   C     0.74808   0.85732   0.43169   0.00000  Uiso   1.00
C475   C     0.74076   0.87329   0.48106   0.00000  Uiso   1.00
C476   C     0.77560   0.86694   0.00659   0.00000  Uiso   1.00
Cu477  Cu    0.78645   0.83333   0.25000   0.00000  Uiso   1.00
Cu478  Cu    0.88022   0.83334   0.25000   0.00000  Uiso   1.00
H479   H     0.75883   0.70459   0.29777   0.00000  Uiso   1.00
H480   H     0.93940   0.87832   0.30971   0.00000  Uiso   1.00
H481   H     0.69310   0.87831   0.30964   0.00000  Uiso   1.00
H482   H     0.77109   0.88488   0.04143   0.00000  Uiso   1.00
H483   H     0.70941   0.89305   0.49830   0.00000  Uiso   1.00
N484   N     0.71598   0.83332   0.24998   0.00000  Uiso   1.00
N485   N     0.95069   0.83335   0.25000   0.00000  Uiso   1.00
O486   O     0.79375   0.89345   0.25001   0.00000  Uiso   1.00
O487   O     0.87294   0.89346   0.25001   0.00000  Uiso   1.00
O488   O     0.77441   0.83332   0.32549   0.00000  Uiso   1.00
O489   O     0.85360   0.83333   0.32549   0.00000  Uiso   1.00
O490   O     0.79373   0.77321   0.24999   0.00000  Uiso   1.00
O491   O     0.87292   0.77322   0.24999   0.00000  Uiso   1.00
O492   O     0.81306   0.83334   0.17451   0.00000  Uiso   1.00
O493   O     0.89225   0.83335   0.17451   0.00000  Uiso   1.00
F494   F     0.95921   0.81910   0.08604   0.00000  Uiso   1.00
F495   F     0.91662   0.70923   0.19117   0.00000  Uiso   1.00
F496   F     0.75071   0.95874   0.30417   0.00000  Uiso   1.00
F497   F     0.73351   0.78268   0.18408   0.00000  Uiso   1.00
F498   F     0.97098   0.78334   0.18349   0.00000  Uiso   1.00
Br499  Br    0.96098   0.76438   0.39983   0.00000  Uiso   1.00
F500   F     0.98091   0.80143   0.48492   0.00000  Uiso   1.00
F501   F     0.79109   0.84199   0.09564   0.00000  Uiso   1.00
F502   F     0.71556   0.86782   0.40607   0.00000  Uiso   1.00
Br503  Br    0.85787   0.75030   0.37072   0.00000  Uiso   1.00
Br504  Br    0.93433   0.95177   0.17459   0.00000  Uiso   1.00
C505   C     0.16700   0.24595   0.74894   0.00000  Uiso   1.00
C506   C     0.14936   0.17343   0.98597   0.00000  Uiso   1.00
C507   C     0.15657   0.15625   0.93599   0.00000  Uiso   1.00
C508   C     0.18384   0.16453   0.51292   0.00000  Uiso   1.00
C509   C     0.23016   0.14700   0.98571   0.00000  Uiso   1.00
C510   C     0.23589   0.12823   0.93687   0.00000  Uiso   1.00
C511   C     0.19629   0.12851   0.91615   0.00000  Uiso   1.00
C512   C     0.17215   0.17011   0.56693   0.00000  Uiso   1.00
C513   C     0.25635   0.15548   0.56317   0.00000  Uiso   1.00
C514   C     0.12438   0.16804   0.90719   0.00000  Uiso   1.00
C515   C     0.20981   0.31217   0.71868   0.00000  Uiso   1.00
C516   C     0.14030   0.16569   0.85007   0.00000  Uiso   1.00
C517   C     0.20957   0.02167   0.71961   0.00000  Uiso   1.00
C518   C     0.16725   0.04291   0.74815   0.00000  Uiso   1.00
C519   C     0.12493   0.02154   0.77553   0.00000  Uiso   1.00
C520   C     0.12501   0.31220   0.77561   0.00000  Uiso   1.00
C521   C     0.16746   0.29061   0.74757   0.00000  Uiso   1.00
C522   C     0.29903   0.19163   0.78316   0.00000  Uiso   1.00
C523   C     0.01532   0.19163   0.78315   0.00000  Uiso   1.00
C524   C     0.03422   0.14155   0.71699   0.00000  Uiso   1.00
C525   C     0.31801   0.14168   0.71689   0.00000  Uiso   1.00
C526   C     0.16690   0.08743   0.74921   0.00000  Uiso   1.00
C527   C     0.19293   0.16676   0.64978   0.00000  Uiso   1.00
C528   C     0.26732   0.14582   0.51050   0.00000  Uiso   1.00
C529   C     0.20794   0.16496   0.59247   0.00000  Uiso   1.00
C530   C     0.08141   0.19065   0.93169   0.00000  Uiso   1.00
C531   C     0.07409   0.20663   0.98106   0.00000  Uiso   1.00
C532   C     0.10893   0.20027   0.50659   0.00000  Uiso   1.00
Cu533  Cu    0.11978   0.16666   0.75000   0.00000  Uiso   1.00
Cu534  Cu    0.21355   0.16667   0.75000   0.00000  Uiso   1.00
H535   H     0.09217   0.03792   0.79777   0.00000  Uiso   1.00
H536   H     0.27273   0.21166   0.80971   0.00000  Uiso   1.00
H537   H     0.02644   0.21165   0.80964   0.00000  Uiso   1.00
H538   H     0.10442   0.21821   0.54143   0.00000  Uiso   1.00
H539   H     0.04275   0.22638   0.99830   0.00000  Uiso   1.00
N540   N     0.04931   0.16666   0.74998   0.00000  Uiso   1.00
N541   N     0.28402   0.16669   0.75000   0.00000  Uiso   1.00
O542   O     0.12708   0.22678   0.75001   0.00000  Uiso   1.00
O543   O     0.20627   0.22679   0.75001   0.00000  Uiso   1.00
O544   O     0.10775   0.16665   0.82549   0.00000  Uiso   1.00
O545   O     0.18694   0.16666   0.82549   0.00000  Uiso   1.00
O546   O     0.12706   0.10654   0.74999   0.00000  Uiso   1.00
O547   O     0.20625   0.10655   0.74999   0.00000  Uiso   1.00
O548   O     0.14640   0.16667   0.67451   0.00000  Uiso   1.00
O549   O     0.22559   0.16668   0.67451   0.00000  Uiso   1.00
F550   F     0.29254   0.15243   0.58604   0.00000  Uiso   1.00
F551   F     0.24995   0.04257   0.69117   0.00000  Uiso   1.00
F552   F     0.08405   0.29207   0.80417   0.00000  Uiso   1.00
F553   F     0.06685   0.11601   0.68408   0.00000  Uiso   1.00
F554   F     0.30431   0.11668   0.68349   0.00000  Uiso   1.00
Br555  Br    0.29431   0.09772   0.89983   0.00000  Uiso   1.00
F556   F     0.31425   0.13476   0.98492   0.00000  Uiso   1.00
F557   F     0.12442   0.17532   0.59564   0.00000  Uiso   1.00
F558   F     0.04890   0.20115   0.90607   0.00000  Uiso   1.00
Br559  Br    0.19120   0.08363   0.87072   0.00000  Uiso   1.00
Br560  Br    0.26767   0.28510   0.67459   0.00000  Uiso   1.00
C561   C     0.50033   0.24595   0.74894   0.00000  Uiso   1.00
C562   C     0.48269   0.17343   0.98597   0.00000  Uiso   1.00
C563   C     0.48991   0.15625   0.93599   0.00000  Uiso   1.00
C564   C     0.51718   0.16453   0.51292   0.00000  Uiso   1.00
C565   C     0.56349   0.14700   0.98571   0.00000  Uiso   1.00
C566   C     0.56922   0.12823   0.93687   0.00000  Uiso   1.00
C567   C     0.52962   0.12851   0.91615   0.00000  Uiso   1.00
C568   C     0.50548   0.17011   0.56693   0.00000  Uiso   1.00
C569   C     0.58969   0.15548   0.56317   0.00000  Uiso   1.00
C570   C     0.45771   0.16804   0.90719   0.00000  Uiso   1.00
C571   C     0.54315   0.31217   0.71868   0.00000  Uiso   1.00
C572   C     0.47363   0.16569   0.85007   0.00000  Uiso   1.00
C573   C     0.54290   0.02167   0.71961   0.00000  Uiso   1.00
C574   C     0.50058   0.04291   0.74815   0.00000  Uiso   1.00
C575   C     0.45826   0.02154   0.77553   0.00000  Uiso   1.00
C576   C     0.45834   0.31220   0.77561   0.00000  Uiso   1.00
C577   C     0.50079   0.29061   0.74757   0.00000  Uiso   1.00
C578   C     0.63236   0.19163   0.78316   0.00000  Uiso   1.00
C579   C     0.34865   0.19163   0.78315   0.00000  Uiso   1.00
C580   C     0.36755   0.14155   0.71699   0.00000  Uiso   1.00
C581   C     0.65135   0.14168   0.71689   0.00000  Uiso   1.00
C582   C     0.50023   0.08743   0.74921   0.00000  Uiso   1.00
C583   C     0.52627   0.16676   0.64978   0.00000  Uiso   1.00
C584   C     0.60066   0.14582   0.51050   0.00000  Uiso   1.00
C585   C     0.54127   0.16496   0.59247   0.00000  Uiso   1.00
C586   C     0.41475   0.19065   0.93169   0.00000  Uiso   1.00
C587   C     0.40742   0.20663   0.98106   0.00000  Uiso   1.00
C588   C     0.44227   0.20027   0.50659   0.00000  Uiso   1.00
Cu589  Cu    0.45311   0.16666   0.75000   0.00000  Uiso   1.00
Cu590  Cu    0.54689   0.16667   0.75000   0.00000  Uiso   1.00
H591   H     0.42550   0.03792   0.79777   0.00000  Uiso   1.00
H592   H     0.60607   0.21166   0.80971   0.00000  Uiso   1.00
H593   H     0.35977   0.21165   0.80964   0.00000  Uiso   1.00
H594   H     0.43776   0.21821   0.54143   0.00000  Uiso   1.00
H595   H     0.37608   0.22638   0.99830   0.00000  Uiso   1.00
N596   N     0.38265   0.16666   0.74998   0.00000  Uiso   1.00
N597   N     0.61735   0.16669   0.75000   0.00000  Uiso   1.00
O598   O     0.46042   0.22678   0.75001   0.00000  Uiso   1.00
O599   O     0.53961   0.22679   0.75001   0.00000  Uiso   1.00
O600   O     0.44108   0.16665   0.82549   0.00000  Uiso   1.00
O601   O     0.52027   0.16666   0.82549   0.00000  Uiso   1.00
O602   O     0.46039   0.10654   0.74999   0.00000  Uiso   1.00
O603   O     0.53958   0.10655   0.74999   0.00000  Uiso   1.00
O604   O     0.47973   0.16667   0.67451   0.00000  Uiso   1.00
O605   O     0.55892   0.16668   0.67451   0.00000  Uiso   1.00
F606   F     0.62588   0.15243   0.58604   0.00000  Uiso   1.00
F607   F     0.58329   0.04257   0.69117   0.00000  Uiso   1.00
F608   F     0.41738   0.29207   0.80417   0.00000  Uiso   1.00
F609   F     0.40018   0.11601   0.68408   0.00000  Uiso   1.00
F610   F     0.63764   0.11668   0.68349   0.00000  Uiso   1.00
Br611  Br    0.62764   0.09772   0.89983   0.00000  Uiso   1.00
F612   F     0.64758   0.13476   0.98492   0.00000  Uiso   1.00
F613   F     0.45776   0.17532   0.59564   0.00000  Uiso   1.00
F614   F     0.38223   0.20115   0.90607   0.00000  Uiso   1.00
Br615  Br    0.52453   0.08363   0.87072   0.00000  Uiso   1.00
Br616  Br    0.60100   0.28510   0.67459   0.00000  Uiso   1.00
C617   C     0.83367   0.24595   0.74894   0.00000  Uiso   1.00
C618   C     0.81603   0.17343   0.98597   0.00000  Uiso   1.00
C619   C     0.82324   0.15625   0.93599   0.00000  Uiso   1.00
C620   C     0.85051   0.16453   0.51292   0.00000  Uiso   1.00
C621   C     0.89683   0.14700   0.98571   0.00000  Uiso   1.00
C622   C     0.90255   0.12823   0.93687   0.00000  Uiso   1.00
C623   C     0.86295   0.12851   0.91615   0.00000  Uiso   1.00
C624   C     0.83881   0.17011   0.56693   0.00000  Uiso   1.00
C625   C     0.92302   0.15548   0.56317   0.00000  Uiso   1.00
C626   C     0.79104   0.16804   0.90719   0.00000  Uiso   1.00
C627   C     0.87648   0.31217   0.71868   0.00000  Uiso   1.00
C628   C     0.80697   0.16569   0.85007   0.00000  Uiso   1.00
C629   C     0.87623   0.02167   0.71961   0.00000  Uiso   1.00
C630   C     0.83391   0.04291   0.74815   0.00000  Uiso   1.00
C631   C     0.79160   0.02154   0.77553   0.00000  Uiso   1.00
C632   C     0.79168   0.31220   0.77561   0.00000  Uiso   1.00
C633   C     0.83412   0.29061   0.74757   0.00000  Uiso   1.00
C634   C     0.96569   0.19163   0.78316   0.00000  Uiso   1.00
C635   C     0.68198   0.19163   0.78315   0.00000  Uiso   1.00
C636   C     0.70089   0.14155   0.71699   0.00000  Uiso   1.00
C637   C     0.98468   0.14168   0.71689   0.00000  Uiso   1.00
C638   C     0.83357   0.08743   0.74921   0.00000  Uiso   1.00
C639   C     0.85960   0.16676   0.64978   0.00000  Uiso   1.00
C640   C     0.93399   0.14582   0.51050   0.00000  Uiso   1.00
C641   C     0.87461   0.16496   0.59247   0.00000  Uiso   1.00
C642   C     0.74808   0.19065   0.93169   0.00000  Uiso   1.00
C643   C     0.74076   0.20663   0.98106   0.00000  Uiso   1.00
C644   C     0.77560   0.20027   0.50659   0.00000  Uiso   1.00
Cu645  Cu    0.78645   0.16666   0.75000   0.00000  Uiso   1.00
Cu646  Cu    0.88022   0.16667   0.75000   0.00000  Uiso   1.00
H647   H     0.75883   0.03792   0.79777   0.00000  Uiso   1.00
H648   H     0.93940   0.21166   0.80971   0.00000  Uiso   1.00
H649   H     0.69310   0.21165   0.80964   0.00000  Uiso   1.00
H650   H     0.77109   0.21821   0.54143   0.00000  Uiso   1.00
H651   H     0.70941   0.22638   0.99830   0.00000  Uiso   1.00
N652   N     0.71598   0.16666   0.74998   0.00000  Uiso   1.00
N653   N     0.95069   0.16669   0.75000   0.00000  Uiso   1.00
O654   O     0.79375   0.22678   0.75001   0.00000  Uiso   1.00
O655   O     0.87294   0.22679   0.75001   0.00000  Uiso   1.00
O656   O     0.77441   0.16665   0.82549   0.00000  Uiso   1.00
O657   O     0.85360   0.16666   0.82549   0.00000  Uiso   1.00
O658   O     0.79373   0.10654   0.74999   0.00000  Uiso   1.00
O659   O     0.87292   0.10655   0.74999   0.00000  Uiso   1.00
O660   O     0.81306   0.16667   0.67451   0.00000  Uiso   1.00
O661   O     0.89225   0.16668   0.67451   0.00000  Uiso   1.00
F662   F     0.95921   0.15243   0.58604   0.00000  Uiso   1.00
F663   F     0.91662   0.04257   0.69117   0.00000  Uiso   1.00
F664   F     0.75071   0.29207   0.80417   0.00000  Uiso   1.00
F665   F     0.73351   0.11601   0.68408   0.00000  Uiso   1.00
F666   F     0.97098   0.11668   0.68349   0.00000  Uiso   1.00
Br667  Br    0.96098   0.09772   0.89983   0.00000  Uiso   1.00
F668   F     0.98091   0.13476   0.98492   0.00000  Uiso   1.00
F669   F     0.79109   0.17532   0.59564   0.00000  Uiso   1.00
F670   F     0.71556   0.20115   0.90607   0.00000  Uiso   1.00
Br671  Br    0.85787   0.08363   0.87072   0.00000  Uiso   1.00
Br672  Br    0.93433   0.28510   0.67459   0.00000  Uiso   1.00
C673   C     0.16700   0.57928   0.74894   0.00000  Uiso   1.00
C674   C     0.14936   0.50676   0.98597   0.00000  Uiso   1.00
C675   C     0.15657   0.48958   0.93599   0.00000  Uiso   1.00
C676   C     0.18384   0.49787   0.51292   0.00000  Uiso   1.00
C677   C     0.23016   0.48033   0.98571   0.00000  Uiso   1.00
C678   C     0.23589   0.46157   0.93687   0.00000  Uiso   1.00
C679   C     0.19629   0.46184   0.91615   0.00000  Uiso   1.00
C680   C     0.17215   0.50344   0.56693   0.00000  Uiso   1.00
C681   C     0.25635   0.48881   0.56317   0.00000  Uiso   1.00
C682   C     0.12438   0.50137   0.90719   0.00000  Uiso   1.00
C683   C     0.20981   0.64550   0.71868   0.00000  Uiso   1.00
C684   C     0.14030   0.49902   0.85007   0.00000  Uiso   1.00
C685   C     0.20957   0.35501   0.71961   0.00000  Uiso   1.00
C686   C     0.16725   0.37625   0.74815   0.00000  Uiso   1.00
C687   C     0.12493   0.35487   0.77553   0.00000  Uiso   1.00
C688   C     0.12501   0.64554   0.77561   0.00000  Uiso   1.00
C689   C     0.16746   0.62394   0.74757   0.00000  Uiso   1.00
C690   C     0.29903   0.52497   0.78316   0.00000  Uiso   1.00
C691   C     0.01532   0.52496   0.78315   0.00000  Uiso   1.00
C692   C     0.03422   0.47488   0.71699   0.00000  Uiso   1.00
C693   C     0.31801   0.47501   0.71689   0.00000  Uiso   1.00
C694   C     0.16690   0.42077   0.74921   0.00000  Uiso   1.00
C695   C     0.19293   0.50009   0.64978   0.00000  Uiso   1.00
C696   C     0.26732   0.47915   0.51050   0.00000  Uiso   1.00
C697   C     0.20794   0.49829   0.59247   0.00000  Uiso   1.00
C698   C     0.08141   0.52398   0.93169   0.00000  Uiso   1.00
C699   C     0.07409   0.53996   0.98106   0.00000  Uiso   1.00
C700   C     0.10893   0.53361   0.50659   0.00000  Uiso   1.00
Cu701  Cu    0.11978   0.49999   0.75000   0.00000  Uiso   1.00
Cu702  Cu    0.21355   0.50001   0.75000   0.00000  Uiso   1.00
H703   H     0.09217   0.37126   0.79777   0.00000  Uiso   1.00
H704   H     0.27273   0.54499   0.80971   0.00000  Uiso   1.00
H705   H     0.02644   0.54498   0.80964   0.00000  Uiso   1.00
H706   H     0.10442   0.55154   0.54143   0.00000  Uiso   1.00
H707   H     0.04275   0.55972   0.99830   0.00000  Uiso   1.00
N708   N     0.04931   0.49999   0.74998   0.00000  Uiso   1.00
N709   N     0.28402   0.50002   0.75000   0.00000  Uiso   1.00
O710   O     0.12708   0.56011   0.75001   0.00000  Uiso   1.00
O711   O     0.20627   0.56012   0.75001   0.00000  Uiso   1.00
O712   O     0.10775   0.49998   0.82549   0.00000  Uiso   1.00
O713   O     0.18694   0.49999   0.82549   0.00000  Uiso   1.00
O714   O     0.12706   0.43988   0.74999   0.00000  Uiso   1.00
O715   O     0.20625   0.43989   0.74999   0.00000  Uiso   1.00
O716   O     0.14640   0.50001   0.67451   0.00000  Uiso   1.00
O717   O     0.22559   0.50002   0.67451   0.00000  Uiso   1.00
F718   F     0.29254   0.48576   0.58604   0.00000  Uiso   1.00
F719   F     0.24995   0.37590   0.69117   0.00000  Uiso   1.00
F720   F     0.08405   0.62540   0.80417   0.00000  Uiso   1.00
F721   F     0.06685   0.44935   0.68408   0.00000  Uiso   1.00
F722   F     0.30431   0.45001   0.68349   0.00000  Uiso   1.00
Br723  Br    0.29431   0.43105   0.89983   0.00000  Uiso   1.00
F724   F     0.31425   0.46809   0.98492   0.00000  Uiso   1.00
F725   F     0.12442   0.50865   0.59564   0.00000  Uiso   1.00
F726   F     0.04890   0.53448   0.90607   0.00000  Uiso   1.00
Br727  Br    0.19120   0.41697   0.87072   0.00000  Uiso   1.00
Br728  Br    0.26767   0.61843   0.67459   0.00000  Uiso   1.00
C729   C     0.50033   0.57928   0.74894   0.00000  Uiso   1.00
C730   C     0.48269   0.50676   0.98597   0.00000  Uiso   1.00
C731   C     0.48991   0.48958   0.93599   0.00000  Uiso   1.00
C732   C     0.51718   0.49787   0.51292   0.00000  Uiso   1.00
C733   C     0.56349   0.48033   0.98571   0.00000  Uiso   1.00
C734   C     0.56922   0.46157   0.93687   0.00000  Uiso   1.00
C735   C     0.52962   0.46184   0.91615   0.00000  Uiso   1.00
C736   C     0.50548   0.50344   0.56693   0.00000  Uiso   1.00
C737   C     0.58969   0.48881   0.56317   0.00000  Uiso   1.00
C738   C     0.45771   0.50137   0.90719   0.00000  Uiso   1.00
C739   C     0.54315   0.64550   0.71868   0.00000  Uiso   1.00
C740   C     0.47363   0.49902   0.85007   0.00000  Uiso   1.00
C741   C     0.54290   0.35501   0.71961   0.00000  Uiso   1.00
C742   C     0.50058   0.37625   0.74815   0.00000  Uiso   1.00
C743   C     0.45826   0.35487   0.77553   0.00000  Uiso   1.00
C744   C     0.45834   0.64554   0.77561   0.00000  Uiso   1.00
C745   C     0.50079   0.62394   0.74757   0.00000  Uiso   1.00
C746   C     0.63236   0.52497   0.78316   0.00000  Uiso   1.00
C747   C     0.34865   0.52496   0.78315   0.00000  Uiso   1.00
C748   C     0.36755   0.47488   0.71699   0.00000  Uiso   1.00
C749   C     0.65135   0.47501   0.71689   0.00000  Uiso   1.00
C750   C     0.50023   0.42077   0.74921   0.00000  Uiso   1.00
C751   C     0.52627   0.50009   0.64978   0.00000  Uiso   1.00
C752   C     0.60066   0.47915   0.51050   0.00000  Uiso   1.00
C753   C     0.54127   0.49829   0.59247   0.00000  Uiso   1.00
C754   C     0.41475   0.52398   0.93169   0.00000  Uiso   1.00
C755   C     0.40742   0.53996   0.98106   0.00000  Uiso   1.00
C756   C     0.44227   0.53361   0.50659   0.00000  Uiso   1.00
Cu757  Cu    0.45311   0.49999   0.75000   0.00000  Uiso   1.00
Cu758  Cu    0.54689   0.50001   0.75000   0.00000  Uiso   1.00
H759   H     0.42550   0.37126   0.79777   0.00000  Uiso   1.00
H760   H     0.60607   0.54499   0.80971   0.00000  Uiso   1.00
H761   H     0.35977   0.54498   0.80964   0.00000  Uiso   1.00
H762   H     0.43776   0.55154   0.54143   0.00000  Uiso   1.00
H763   H     0.37608   0.55972   0.99830   0.00000  Uiso   1.00
N764   N     0.38265   0.49999   0.74998   0.00000  Uiso   1.00
N765   N     0.61735   0.50002   0.75000   0.00000  Uiso   1.00
O766   O     0.46042   0.56011   0.75001   0.00000  Uiso   1.00
O767   O     0.53961   0.56012   0.75001   0.00000  Uiso   1.00
O768   O     0.44108   0.49998   0.82549   0.00000  Uiso   1.00
O769   O     0.52027   0.49999   0.82549   0.00000  Uiso   1.00
O770   O     0.46039   0.43988   0.74999   0.00000  Uiso   1.00
O771   O     0.53958   0.43989   0.74999   0.00000  Uiso   1.00
O772   O     0.47973   0.50001   0.67451   0.00000  Uiso   1.00
O773   O     0.55892   0.50002   0.67451   0.00000  Uiso   1.00
F774   F     0.62588   0.48576   0.58604   0.00000  Uiso   1.00
F775   F     0.58329   0.37590   0.69117   0.00000  Uiso   1.00
F776   F     0.41738   0.62540   0.80417   0.00000  Uiso   1.00
F777   F     0.40018   0.44935   0.68408   0.00000  Uiso   1.00
F778   F     0.63764   0.45001   0.68349   0.00000  Uiso   1.00
Br779  Br    0.62764   0.43105   0.89983   0.00000  Uiso   1.00
F780   F     0.64758   0.46809   0.98492   0.00000  Uiso   1.00
F781   F     0.45776   0.50865   0.59564   0.00000  Uiso   1.00
F782   F     0.38223   0.53448   0.90607   0.00000  Uiso   1.00
Br783  Br    0.52453   0.41697   0.87072   0.00000  Uiso   1.00
Br784  Br    0.60100   0.61843   0.67459   0.00000  Uiso   1.00
C785   C     0.83367   0.57928   0.74894   0.00000  Uiso   1.00
C786   C     0.81603   0.50676   0.98597   0.00000  Uiso   1.00
C787   C     0.82324   0.48958   0.93599   0.00000  Uiso   1.00
C788   C     0.85051   0.49787   0.51292   0.00000  Uiso   1.00
C789   C     0.89683   0.48033   0.98571   0.00000  Uiso   1.00
C790   C     0.90255   0.46157   0.93687   0.00000  Uiso   1.00
C791   C     0.86295   0.46184   0.91615   0.00000  Uiso   1.00
C792   C     0.83881   0.50344   0.56693   0.00000  Uiso   1.00
C793   C     0.92302   0.48881   0.56317   0.00000  Uiso   1.00
C794   C     0.79104   0.50137   0.90719   0.00000  Uiso   1.00
C795   C     0.87648   0.64550   0.71868   0.00000  Uiso   1.00
C796   C     0.80697   0.49902   0.85007   0.00000  Uiso   1.00
C797   C     0.87623   0.35501   0.71961   0.00000  Uiso   1.00
C798   C     0.83391   0.37625   0.74815   0.00000  Uiso   1.00
C799   C     0.79160   0.35487   0.77553   0.00000  Uiso   1.00
C800   C     0.79168   0.64554   0.77561   0.00000  Uiso   1.00
C801   C     0.83412   0.62394   0.74757   0.00000  Uiso   1.00
C802   C     0.96569   0.52497   0.78316   0.00000  Uiso   1.00
C803   C     0.68198   0.52496   0.78315   0.00000  Uiso   1.00
C804   C     0.70089   0.47488   0.71699   0.00000  Uiso   1.00
C805   C     0.98468   0.47501   0.71689   0.00000  Uiso   1.00
C806   C     0.83357   0.42077   0.74921   0.00000  Uiso   1.00
C807   C     0.85960   0.50009   0.64978   0.00000  Uiso   1.00
C808   C     0.93399   0.47915   0.51050   0.00000  Uiso   1.00
C809   C     0.87461   0.49829   0.59247   0.00000  Uiso   1.00
C810   C     0.74808   0.52398   0.93169   0.00000  Uiso   1.00
C811   C     0.74076   0.53996   0.98106   0.00000  Uiso   1.00
C812   C     0.77560   0.53361   0.50659   0.00000  Uiso   1.00
Cu813  Cu    0.78645   0.49999   0.75000   0.00000  Uiso   1.00
Cu814  Cu    0.88022   0.50001   0.75000   0.00000  Uiso   1.00
H815   H     0.75883   0.37126   0.79777   0.00000  Uiso   1.00
H816   H     0.93940   0.54499   0.80971   0.00000  Uiso   1.00
H817   H     0.69310   0.54498   0.80964   0.00000  Uiso   1.00
H818   H     0.77109   0.55154   0.54143   0.00000  Uiso   1.00
H819   H     0.70941   0.55972   0.99830   0.00000  Uiso   1.00
N820   N     0.71598   0.49999   0.74998   0.00000  Uiso   1.00
N821   N     0.95069   0.50002   0.75000   0.00000  Uiso   1.00
O822   O     0.79375   0.56011   0.75001   0.00000  Uiso   1.00
O823   O     0.87294   0.56012   0.75001   0.00000  Uiso   1.00
O824   O     0.77441   0.49998   0.82549   0.00000  Uiso   1.00
O825   O     0.85360   0.49999   0.82549   0.00000  Uiso   1.00
O826   O     0.79373   0.43988   0.74999   0.00000  Uiso   1.00
O827   O     0.87292   0.43989   0.74999   0.00000  Uiso   1.00
O828   O     0.81306   0.50001   0.67451   0.00000  Uiso   1.00
O829   O     0.89225   0.50002   0.67451   0.00000  Uiso   1.00
F830   F     0.95921   0.48576   0.58604   0.00000  Uiso   1.00
F831   F     0.91662   0.37590   0.69117   0.00000  Uiso   1.00
F832   F     0.75071   0.62540   0.80417   0.00000  Uiso   1.00
F833   F     0.73351   0.44935   0.68408   0.00000  Uiso   1.00
F834   F     0.97098   0.45001   0.68349   0.00000  Uiso   1.00
Br835  Br    0.96098   0.43105   0.89983   0.00000  Uiso   1.00
F836   F     0.98091   0.46809   0.98492   0.00000  Uiso   1.00
F837   F     0.79109   0.50865   0.59564   0.00000  Uiso   1.00
F838   F     0.71556   0.53448   0.90607   0.00000  Uiso   1.00
Br839  Br    0.85787   0.41697   0.87072   0.00000  Uiso   1.00
Br840  Br    0.93433   0.61843   0.67459   0.00000  Uiso   1.00
C841   C     0.16700   0.91262   0.74894   0.00000  Uiso   1.00
C842   C     0.14936   0.84009   0.98597   0.00000  Uiso   1.00
C843   C     0.15657   0.82291   0.93599   0.00000  Uiso   1.00
C844   C     0.18384   0.83120   0.51292   0.00000  Uiso   1.00
C845   C     0.23016   0.81367   0.98571   0.00000  Uiso   1.00
C846   C     0.23589   0.79490   0.93687   0.00000  Uiso   1.00
C847   C     0.19629   0.79518   0.91615   0.00000  Uiso   1.00
C848   C     0.17215   0.83677   0.56693   0.00000  Uiso   1.00
C849   C     0.25635   0.82215   0.56317   0.00000  Uiso   1.00
C850   C     0.12438   0.83471   0.90719   0.00000  Uiso   1.00
C851   C     0.20981   0.97884   0.71868   0.00000  Uiso   1.00
C852   C     0.14030   0.83236   0.85007   0.00000  Uiso   1.00
C853   C     0.20957   0.68834   0.71961   0.00000  Uiso   1.00
C854   C     0.16725   0.70958   0.74815   0.00000  Uiso   1.00
C855   C     0.12493   0.68821   0.77553   0.00000  Uiso   1.00
C856   C     0.12501   0.97887   0.77561   0.00000  Uiso   1.00
C857   C     0.16746   0.95728   0.74757   0.00000  Uiso   1.00
C858   C     0.29903   0.85830   0.78316   0.00000  Uiso   1.00
C859   C     0.01532   0.85829   0.78315   0.00000  Uiso   1.00
C860   C     0.03422   0.80821   0.71699   0.00000  Uiso   1.00
C861   C     0.31801   0.80835   0.71689   0.00000  Uiso   1.00
C862   C     0.16690   0.75410   0.74921   0.00000  Uiso   1.00
C863   C     0.19293   0.83342   0.64978   0.00000  Uiso   1.00
C864   C     0.26732   0.81248   0.51050   0.00000  Uiso   1.00
C865   C     0.20794   0.83162   0.59247   0.00000  Uiso   1.00
C866   C     0.08141   0.85732   0.93169   0.00000  Uiso   1.00
C867   C     0.07409   0.87329   0.98106   0.00000  Uiso   1.00
C868   C     0.10893   0.86694   0.50659   0.00000  Uiso   1.00
Cu869  Cu    0.11978   0.83333   0.75000   0.00000  Uiso   1.00
Cu870  Cu    0.21355   0.83334   0.75000   0.00000  Uiso   1.00
H871   H     0.09217   0.70459   0.79777   0.00000  Uiso   1.00
H872   H     0.27273   0.87832   0.80971   0.00000  Uiso   1.00
H873   H     0.02644   0.87831   0.80964   0.00000  Uiso   1.00
H874   H     0.10442   0.88488   0.54143   0.00000  Uiso   1.00
H875   H     0.04275   0.89305   0.99830   0.00000  Uiso   1.00
N876   N     0.04931   0.83332   0.74998   0.00000  Uiso   1.00
N877   N     0.28402   0.83335   0.75000   0.00000  Uiso   1.00
O878   O     0.12708   0.89345   0.75001   0.00000  Uiso   1.00
O879   O     0.20627   0.89346   0.75001   0.00000  Uiso   1.00
O880   O     0.10775   0.83332   0.82549   0.00000  Uiso   1.00
O881   O     0.18694   0.83333   0.82549   0.00000  Uiso   1.00
O882   O     0.12706   0.77321   0.74999   0.00000  Uiso   1.00
O883   O     0.20625   0.77322   0.74999   0.00000  Uiso   1.00
O884   O     0.14640   0.83334   0.67451   0.00000  Uiso   1.00
O885   O     0.22559   0.83335   0.67451   0.00000  Uiso   1.00
F886   F     0.29254   0.81910   0.58604   0.00000  Uiso   1.00
F887   F     0.24995   0.70923   0.69117   0.00000  Uiso   1.00
F888   F     0.08405   0.95874   0.80417   0.00000  Uiso   1.00
F889   F     0.06685   0.78268   0.68408   0.00000  Uiso   1.00
F890   F     0.30431   0.78334   0.68349   0.00000  Uiso   1.00
Br891  Br    0.29431   0.76438   0.89983   0.00000  Uiso   1.00
F892   F     0.31425   0.80143   0.98492   0.00000  Uiso   1.00
F893   F     0.12442   0.84199   0.59564   0.00000  Uiso   1.00
F894   F     0.04890   0.86782   0.90607   0.00000  Uiso   1.00
Br895  Br    0.19120   0.75030   0.87072   0.00000  Uiso   1.00
Br896  Br    0.26767   0.95177   0.67459   0.00000  Uiso   1.00
C897   C     0.50033   0.91262   0.74894   0.00000  Uiso   1.00
C898   C     0.48269   0.84009   0.98597   0.00000  Uiso   1.00
C899   C     0.48991   0.82291   0.93599   0.00000  Uiso   1.00
C900   C     0.51718   0.83120   0.51292   0.00000  Uiso   1.00
C901   C     0.56349   0.81367   0.98571   0.00000  Uiso   1.00
C902   C     0.56922   0.79490   0.93687   0.00000  Uiso   1.00
C903   C     0.52962   0.79518   0.91615   0.00000  Uiso   1.00
C904   C     0.50548   0.83677   0.56693   0.00000  Uiso   1.00
C905   C     0.58969   0.82215   0.56317   0.00000  Uiso   1.00
C906   C     0.45771   0.83471   0.90719   0.00000  Uiso   1.00
C907   C     0.54315   0.97884   0.71868   0.00000  Uiso   1.00
C908   C     0.47363   0.83236   0.85007   0.00000  Uiso   1.00
C909   C     0.54290   0.68834   0.71961   0.00000  Uiso   1.00
C910   C     0.50058   0.70958   0.74815   0.00000  Uiso   1.00
C911   C     0.45826   0.68821   0.77553   0.00000  Uiso   1.00
C912   C     0.45834   0.97887   0.77561   0.00000  Uiso   1.00
C913   C     0.50079   0.95728   0.74757   0.00000  Uiso   1.00
C914   C     0.63236   0.85830   0.78316   0.00000  Uiso   1.00
C915   C     0.34865   0.85829   0.78315   0.00000  Uiso   1.00
C916   C     0.36755   0.80821   0.71699   0.00000  Uiso   1.00
C917   C     0.65135   0.80835   0.71689   0.00000  Uiso   1.00
C918   C     0.50023   0.75410   0.74921   0.00000  Uiso   1.00
C919   C     0.52627   0.83342   0.64978   0.00000  Uiso   1.00
C920   C     0.60066   0.81248   0.51050   0.00000  Uiso   1.00
C921   C     0.54127   0.83162   0.59247   0.00000  Uiso   1.00
C922   C     0.41475   0.85732   0.93169   0.00000  Uiso   1.00
C923   C     0.40742   0.87329   0.98106   0.00000  Uiso   1.00
C924   C     0.44227   0.86694   0.50659   0.00000  Uiso   1.00
Cu925  Cu    0.45311   0.83333   0.75000   0.00000  Uiso   1.00
Cu926  Cu    0.54689   0.83334   0.75000   0.00000  Uiso   1.00
H927   H     0.42550   0.70459   0.79777   0.00000  Uiso   1.00
H928   H     0.60607   0.87832   0.80971   0.00000  Uiso   1.00
H929   H     0.35977   0.87831   0.80964   0.00000  Uiso   1.00
H930   H     0.43776   0.88488   0.54143   0.00000  Uiso   1.00
H931   H     0.37608   0.89305   0.99830   0.00000  Uiso   1.00
N932   N     0.38265   0.83332   0.74998   0.00000  Uiso   1.00
N933   N     0.61735   0.83335   0.75000   0.00000  Uiso   1.00
O934   O     0.46042   0.89345   0.75001   0.00000  Uiso   1.00
O935   O     0.53961   0.89346   0.75001   0.00000  Uiso   1.00
O936   O     0.44108   0.83332   0.82549   0.00000  Uiso   1.00
O937   O     0.52027   0.83333   0.82549   0.00000  Uiso   1.00
O938   O     0.46039   0.77321   0.74999   0.00000  Uiso   1.00
O939   O     0.53958   0.77322   0.74999   0.00000  Uiso   1.00
O940   O     0.47973   0.83334   0.67451   0.00000  Uiso   1.00
O941   O     0.55892   0.83335   0.67451   0.00000  Uiso   1.00
F942   F     0.62588   0.81910   0.58604   0.00000  Uiso   1.00
F943   F     0.58329   0.70923   0.69117   0.00000  Uiso   1.00
F944   F     0.41738   0.95874   0.80417   0.00000  Uiso   1.00
F945   F     0.40018   0.78268   0.68408   0.00000  Uiso   1.00
F946   F     0.63764   0.78334   0.68349   0.00000  Uiso   1.00
Br947  Br    0.62764   0.76438   0.89983   0.00000  Uiso   1.00
F948   F     0.64758   0.80143   0.98492   0.00000  Uiso   1.00
F949   F     0.45776   0.84199   0.59564   0.00000  Uiso   1.00
F950   F     0.38223   0.86782   0.90607   0.00000  Uiso   1.00
Br951  Br    0.52453   0.75030   0.87072   0.00000  Uiso   1.00
Br952  Br    0.60100   0.95177   0.67459   0.00000  Uiso   1.00
C953   C     0.83367   0.91262   0.74894   0.00000  Uiso   1.00
C954   C     0.81603   0.84009   0.98597   0.00000  Uiso   1.00
C955   C     0.82324   0.82291   0.93599   0.00000  Uiso   1.00
C956   C     0.85051   0.83120   0.51292   0.00000  Uiso   1.00
C957   C     0.89683   0.81367   0.98571   0.00000  Uiso   1.00
C958   C     0.90255   0.79490   0.93687   0.00000  Uiso   1.00
C959   C     0.86295   0.79518   0.91615   0.00000  Uiso   1.00
C960   C     0.83881   0.83677   0.56693   0.00000  Uiso   1.00
C961   C     0.92302   0.82215   0.56317   0.00000  Uiso   1.00
C962   C     0.79104   0.83471   0.90719   0.00000  Uiso   1.00
C963   C     0.87648   0.97884   0.71868   0.00000  Uiso   1.00
C964   C     0.80697   0.83236   0.85007   0.00000  Uiso   1.00
C965   C     0.87623   0.68834   0.71961   0.00000  Uiso   1.00
C966   C     0.83391   0.70958   0.74815   0.00000  Uiso   1.00
C967   C     0.79160   0.68821   0.77553   0.00000  Uiso   1.00
C968   C     0.79168   0.97887   0.77561   0.00000  Uiso   1.00
C969   C     0.83412   0.95728   0.74757   0.00000  Uiso   1.00
C970   C     0.96569   0.85830   0.78316   0.00000  Uiso   1.00
C971   C     0.68198   0.85829   0.78315   0.00000  Uiso   1.00
C972   C     0.70089   0.80821   0.71699   0.00000  Uiso   1.00
C973   C     0.98468   0.80835   0.71689   0.00000  Uiso   1.00
C974   C     0.83357   0.75410   0.74921   0.00000  Uiso   1.00
C975   C     0.85960   0.83342   0.64978   0.00000  Uiso   1.00
C976   C     0.93399   0.81248   0.51050   0.00000  Uiso   1.00
C977   C     0.87461   0.83162   0.59247   0.00000  Uiso   1.00
C978   C     0.74808   0.85732   0.93169   0.00000  Uiso   1.00
C979   C     0.74076   0.87329   0.98106   0.00000  Uiso   1.00
C980   C     0.77560   0.86694   0.50659   0.00000  Uiso   1.00
Cu981  Cu    0.78645   0.83333   0.75000   0.00000  Uiso   1.00
Cu982  Cu    0.88022   0.83334   0.75000   0.00000  Uiso   1.00
H983   H     0.75883   0.70459   0.79777   0.00000  Uiso   1.00
H984   H     0.93940   0.87832   0.80971   0.00000  Uiso   1.00
H985   H     0.69310   0.87831   0.80964   0.00000  Uiso   1.00
H986   H     0.77109   0.88488   0.54143   0.00000  Uiso   1.00
H987   H     0.70941   0.89305   0.99830   0.00000  Uiso   1.00
N988   N     0.71598   0.83332   0.74998   0.00000  Uiso   1.00
N989   N     0.95069   0.83335   0.75000   0.00000  Uiso   1.00
O990   O     0.79375   0.89345   0.75001   0.00000  Uiso   1.00
O991   O     0.87294   0.89346   0.75001   0.00000  Uiso   1.00
O992   O     0.77441   0.83332   0.82549   0.00000  Uiso   1.00
O993   O     0.85360   0.83333   0.82549   0.00000  Uiso   1.00
O994   O     0.79373   0.77321   0.74999   0.00000  Uiso   1.00
O995   O     0.87292   0.77322   0.74999   0.00000  Uiso   1.00
O996   O     0.81306   0.83334   0.67451   0.00000  Uiso   1.00
O997   O     0.89225   0.83335   0.67451   0.00000  Uiso   1.00
F998   F     0.95921   0.81910   0.58604   0.00000  Uiso   1.00
F999   F     0.91662   0.70923   0.69117   0.00000  Uiso   1.00
F1000  F     0.75071   0.95874   0.80417   0.00000  Uiso   1.00
F1001  F     0.73351   0.78268   0.68408   0.00000  Uiso   1.00
F1002  F     0.97098   0.78334   0.68349   0.00000  Uiso   1.00
Br1003 Br    0.96098   0.76438   0.89983   0.00000  Uiso   1.00
F1004  F     0.98091   0.80143   0.98492   0.00000  Uiso   1.00
F1005  F     0.79109   0.84199   0.59564   0.00000  Uiso   1.00
F1006  F     0.71556   0.86782   0.90607   0.00000  Uiso   1.00
Br1007 Br    0.85787   0.75030   0.87072   0.00000  Uiso   1.00
Br1008 Br    0.93433   0.95177   0.67459   0.00000  Uiso   1.00
loop_
_geom_bond_atom_site_label_1
_geom_bond_atom_site_label_2
_geom_bond_distance
_geom_bond_site_symmetry_2
_ccdc_geom_bond_type
C1     C17     1.448   .     S
C1     O38     1.291   .     A
C1     O39     1.289   .     A
C2     C3      1.415   .     A
C2     C508    1.419   .     S
C2     C532    1.416   .     S
C3     C10     1.424   .     A
C3     C7      1.417   .     A
C4     C8      1.405   .     A
C4     C506    1.419   1_554 S
C4     C509    1.421   1_554 S
C5     C6      1.414   .     A
C5     C508    1.421   .     S
C5     C528    1.416   .     S
C6     Br51    1.935   .     S
C6     C7      1.405   .     A
C7     Br55    1.935   .     S
C8     F53     1.358   .     S
C8     C25     1.405   .     A
C9     C24     1.395   .     A
C9     C25     1.402   .     A
C9     F46     1.358   .     S
C10    C26     1.408   .     A
C10    C12     1.471   .     S
C11    C17     1.411   .     A
C11    Br56    1.928   .     S
C11    C181    1.389   .     S
C12    O40     1.295   .     A
C12    O41     1.296   .     A
C13    C14     1.400   .     A
C13    F47     1.358   .     S
C13    C347    1.389   1_545 S
C14    C22     1.444   .     S
C14    C15     1.396   .     A
C15    H31     1.084   .     S
C15    C352    1.383   1_545 S
C16    F48     1.358   .     S
C16    C17     1.404   .     A
C16    C183    1.383   .     S
C18    N37     1.367   .     A
C18    H32     1.082   .     S
C18    C75     1.416   .     S
C19    N36     1.367   .     A
C19    H33     1.082   .     S
C19    C130    1.416   1_455 S
C20    F49     1.355   .     S
C20    N36     1.368   .     A
C20    C133    1.415   1_455 S
C21    F50     1.354   .     S
C21    N37     1.367   .     A
C21    C76     1.415   .     S
C22    O43     1.289   .     A
C22    O42     1.289   .     A
C23    O45     1.300   .     A
C23    C25     1.476   .     S
C23    O44     1.294   .     A
C24    C509    1.416   1_554 S
C24    F556    1.356   1_554 S
C26    C27     1.384   .     A
C26    F54     1.358   .     S
C27    H35     1.083   .     S
C27    C532    1.386   .     S
C28    H34     1.079   .     S
C28    C506    1.416   1_554 S
C28    C531    1.386   1_554 S
Cu29   O38     1.960   .     S
Cu29   Cu30    2.677   .     S
Cu29   N36     2.012   .     S
Cu29   O40     1.961   .     S
Cu29   O44     1.947   .     S
Cu29   O42     1.960   .     S
Cu30   O45     1.961   .     S
Cu30   O41     1.947   .     S
Cu30   O39     1.960   .     S
Cu30   O43     1.960   .     S
Cu30   N37     2.011   .     S
F52    C528    1.356   .     S
C57    C73     1.448   .     S
C57    O94     1.291   .     A
C57    O95     1.289   .     A
C58    C59     1.415   .     A
C58    C564    1.419   .     S
C58    C588    1.416   .     S
C59    C66     1.424   .     A
C59    C63     1.417   .     A
C60    C64     1.405   .     A
C60    C562    1.419   1_554 S
C60    C565    1.421   1_554 S
C61    C62     1.414   .     A
C61    C564    1.421   .     S
C61    C584    1.416   .     S
C62    Br107   1.935   .     S
C62    C63     1.405   .     A
C63    Br111   1.935   .     S
C64    F109    1.358   .     S
C64    C81     1.405   .     A
C65    C80     1.395   .     A
C65    C81     1.402   .     A
C65    F102    1.358   .     S
C66    C82     1.408   .     A
C66    C68     1.471   .     S
C67    C73     1.411   .     A
C67    Br112   1.928   .     S
C67    C237    1.389   .     S
C68    O96     1.295   .     A
C68    O97     1.296   .     A
C69    C70     1.400   .     A
C69    F103    1.358   .     S
C69    C403    1.389   1_545 S
C70    C78     1.444   .     S
C70    C71     1.396   .     A
C71    H87     1.084   .     S
C71    C408    1.383   1_545 S
C72    F104    1.358   .     S
C72    C73     1.404   .     A
C72    C239    1.383   .     S
C74    N93     1.367   .     A
C74    H88     1.082   .     S
C74    C131    1.416   .     S
C75    N92     1.367   .     A
C75    H89     1.082   .     S
C76    F105    1.355   .     S
C76    N92     1.368   .     A
C77    F106    1.354   .     S
C77    N93     1.367   .     A
C77    C132    1.415   .     S
C78    O99     1.289   .     A
C78    O98     1.289   .     A
C79    O101    1.300   .     A
C79    C81     1.476   .     S
C79    O100    1.294   .     A
C80    C565    1.416   1_554 S
C80    F612    1.356   1_554 S
C82    C83     1.384   .     A
C82    F110    1.358   .     S
C83    H91     1.083   .     S
C83    C588    1.386   .     S
C84    H90     1.079   .     S
C84    C562    1.416   1_554 S
C84    C587    1.386   1_554 S
Cu85   O94     1.960   .     S
Cu85   Cu86    2.677   .     S
Cu85   N92     2.012   .     S
Cu85   O96     1.961   .     S
Cu85   O100    1.947   .     S
Cu85   O98     1.960   .     S
Cu86   O101    1.961   .     S
Cu86   O97     1.947   .     S
Cu86   O95     1.960   .     S
Cu86   O99     1.960   .     S
Cu86   N93     2.011   .     S
F108   C584    1.356   .     S
C113   C129    1.448   .     S
C113   O150    1.291   .     A
C113   O151    1.289   .     A
C114   C115    1.415   .     A
C114   C620    1.419   .     S
C114   C644    1.416   .     S
C115   C122    1.424   .     A
C115   C119    1.417   .     A
C116   C120    1.405   .     A
C116   C618    1.419   1_554 S
C116   C621    1.421   1_554 S
C117   C118    1.414   .     A
C117   C620    1.421   .     S
C117   C640    1.416   .     S
C118   Br163   1.935   .     S
C118   C119    1.405   .     A
C119   Br167   1.935   .     S
C120   F165    1.358   .     S
C120   C137    1.405   .     A
C121   C136    1.395   .     A
C121   C137    1.402   .     A
C121   F158    1.358   .     S
C122   C138    1.408   .     A
C122   C124    1.471   .     S
C123   C129    1.411   .     A
C123   Br168   1.928   .     S
C123   C293    1.389   .     S
C124   O152    1.295   .     A
C124   O153    1.296   .     A
C125   C126    1.400   .     A
C125   F159    1.358   .     S
C125   C459    1.389   1_545 S
C126   C134    1.444   .     S
C126   C127    1.396   .     A
C127   H143    1.084   .     S
C127   C464    1.383   1_545 S
C128   F160    1.358   .     S
C128   C129    1.404   .     A
C128   C295    1.383   .     S
C130   N149    1.367   .     A
C130   H144    1.082   .     S
C130   C19     1.416   1_655 S
C131   N148    1.367   .     A
C131   H145    1.082   .     S
C132   F161    1.355   .     S
C132   N148    1.368   .     A
C133   F162    1.354   .     S
C133   N149    1.367   .     A
C133   C20     1.415   1_655 S
C134   O155    1.289   .     A
C134   O154    1.289   .     A
C135   O157    1.300   .     A
C135   C137    1.476   .     S
C135   O156    1.294   .     A
C136   C621    1.416   1_554 S
C136   F668    1.356   1_554 S
C138   C139    1.384   .     A
C138   F166    1.358   .     S
C139   H147    1.083   .     S
C139   C644    1.386   .     S
C140   H146    1.079   .     S
C140   C618    1.416   1_554 S
C140   C643    1.386   1_554 S
Cu141  O150    1.960   .     S
Cu141  Cu142   2.677   .     S
Cu141  N148    2.012   .     S
Cu141  O152    1.961   .     S
Cu141  O156    1.947   .     S
Cu141  O154    1.960   .     S
Cu142  O157    1.961   .     S
Cu142  O153    1.947   .     S
Cu142  O151    1.960   .     S
Cu142  O155    1.960   .     S
Cu142  N149    2.011   .     S
F164   C640    1.356   .     S
C169   C185    1.448   .     S
C169   O206    1.291   .     A
C169   O207    1.289   .     A
C170   C171    1.415   .     A
C170   C676    1.419   .     S
C170   C700    1.416   .     S
C171   C178    1.424   .     A
C171   C175    1.417   .     A
C172   C176    1.405   .     A
C172   C674    1.419   1_554 S
C172   C677    1.421   1_554 S
C173   C174    1.414   .     A
C173   C676    1.421   .     S
C173   C696    1.416   .     S
C174   Br219   1.935   .     S
C174   C175    1.405   .     A
C175   Br223   1.935   .     S
C176   F221    1.358   .     S
C176   C193    1.405   .     A
C177   C192    1.395   .     A
C177   C193    1.402   .     A
C177   F214    1.358   .     S
C178   C194    1.408   .     A
C178   C180    1.471   .     S
C179   C185    1.411   .     A
C179   Br224   1.928   .     S
C179   C349    1.389   .     S
C180   O208    1.295   .     A
C180   O209    1.296   .     A
C181   C182    1.400   .     A
C181   F215    1.358   .     S
C182   C190    1.444   .     S
C182   C183    1.396   .     A
C183   H199    1.084   .     S
C184   F216    1.358   .     S
C184   C185    1.404   .     A
C184   C351    1.383   .     S
C186   N205    1.367   .     A
C186   H200    1.082   .     S
C186   C243    1.416   .     S
C187   N204    1.367   .     A
C187   H201    1.082   .     S
C187   C298    1.416   1_455 S
C188   F217    1.355   .     S
C188   N204    1.368   .     A
C188   C301    1.415   1_455 S
C189   F218    1.354   .     S
C189   N205    1.367   .     A
C189   C244    1.415   .     S
C190   O211    1.289   .     A
C190   O210    1.289   .     A
C191   O213    1.300   .     A
C191   C193    1.476   .     S
C191   O212    1.294   .     A
C192   C677    1.416   1_554 S
C192   F724    1.356   1_554 S
C194   C195    1.384   .     A
C194   F222    1.358   .     S
C195   H203    1.083   .     S
C195   C700    1.386   .     S
C196   H202    1.079   .     S
C196   C674    1.416   1_554 S
C196   C699    1.386   1_554 S
Cu197  O206    1.960   .     S
Cu197  Cu198   2.677   .     S
Cu197  N204    2.012   .     S
Cu197  O208    1.961   .     S
Cu197  O212    1.947   .     S
Cu197  O210    1.960   .     S
Cu198  O213    1.961   .     S
Cu198  O209    1.947   .     S
Cu198  O207    1.960   .     S
Cu198  O211    1.960   .     S
Cu198  N205    2.011   .     S
F220   C696    1.356   .     S
C225   C241    1.448   .     S
C225   O262    1.291   .     A
C225   O263    1.289   .     A
C226   C227    1.415   .     A
C226   C732    1.419   .     S
C226   C756    1.416   .     S
C227   C234    1.424   .     A
C227   C231    1.417   .     A
C228   C232    1.405   .     A
C228   C730    1.419   1_554 S
C228   C733    1.421   1_554 S
C229   C230    1.414   .     A
C229   C732    1.421   .     S
C229   C752    1.416   .     S
C230   Br275   1.935   .     S
C230   C231    1.405   .     A
C231   Br279   1.935   .     S
C232   F277    1.358   .     S
C232   C249    1.405   .     A
C233   C248    1.395   .     A
C233   C249    1.402   .     A
C233   F270    1.358   .     S
C234   C250    1.408   .     A
C234   C236    1.471   .     S
C235   C241    1.411   .     A
C235   Br280   1.928   .     S
C235   C405    1.389   .     S
C236   O264    1.295   .     A
C236   O265    1.296   .     A
C237   C238    1.400   .     A
C237   F271    1.358   .     S
C238   C246    1.444   .     S
C238   C239    1.396   .     A
C239   H255    1.084   .     S
C240   F272    1.358   .     S
C240   C241    1.404   .     A
C240   C407    1.383   .     S
C242   N261    1.367   .     A
C242   H256    1.082   .     S
C242   C299    1.416   .     S
C243   N260    1.367   .     A
C243   H257    1.082   .     S
C244   F273    1.355   .     S
C244   N260    1.368   .     A
C245   F274    1.354   .     S
C245   N261    1.367   .     A
C245   C300    1.415   .     S
C246   O267    1.289   .     A
C246   O266    1.289   .     A
C247   O269    1.300   .     A
C247   C249    1.476   .     S
C247   O268    1.294   .     A
C248   C733    1.416   1_554 S
C248   F780    1.356   1_554 S
C250   C251    1.384   .     A
C250   F278    1.358   .     S
C251   H259    1.083   .     S
C251   C756    1.386   .     S
C252   H258    1.079   .     S
C252   C730    1.416   1_554 S
C252   C755    1.386   1_554 S
Cu253  O262    1.960   .     S
Cu253  Cu254   2.677   .     S
Cu253  N260    2.012   .     S
Cu253  O264    1.961   .     S
Cu253  O268    1.947   .     S
Cu253  O266    1.960   .     S
Cu254  O269    1.961   .     S
Cu254  O265    1.947   .     S
Cu254  O263    1.960   .     S
Cu254  O267    1.960   .     S
Cu254  N261    2.011   .     S
F276   C752    1.356   .     S
C281   C297    1.448   .     S
C281   O318    1.291   .     A
C281   O319    1.289   .     A
C282   C283    1.415   .     A
C282   C788    1.419   .     S
C282   C812    1.416   .     S
C283   C290    1.424   .     A
C283   C287    1.417   .     A
C284   C288    1.405   .     A
C284   C786    1.419   1_554 S
C284   C789    1.421   1_554 S
C285   C286    1.414   .     A
C285   C788    1.421   .     S
C285   C808    1.416   .     S
C286   Br331   1.935   .     S
C286   C287    1.405   .     A
C287   Br335   1.935   .     S
C288   F333    1.358   .     S
C288   C305    1.405   .     A
C289   C304    1.395   .     A
C289   C305    1.402   .     A
C289   F326    1.358   .     S
C290   C306    1.408   .     A
C290   C292    1.471   .     S
C291   C297    1.411   .     A
C291   Br336   1.928   .     S
C291   C461    1.389   .     S
C292   O320    1.295   .     A
C292   O321    1.296   .     A
C293   C294    1.400   .     A
C293   F327    1.358   .     S
C294   C302    1.444   .     S
C294   C295    1.396   .     A
C295   H311    1.084   .     S
C296   F328    1.358   .     S
C296   C297    1.404   .     A
C296   C463    1.383   .     S
C298   N317    1.367   .     A
C298   H312    1.082   .     S
C298   C187    1.416   1_655 S
C299   N316    1.367   .     A
C299   H313    1.082   .     S
C300   F329    1.355   .     S
C300   N316    1.368   .     A
C301   F330    1.354   .     S
C301   N317    1.367   .     A
C301   C188    1.415   1_655 S
C302   O323    1.289   .     A
C302   O322    1.289   .     A
C303   O325    1.300   .     A
C303   C305    1.476   .     S
C303   O324    1.294   .     A
C304   C789    1.416   1_554 S
C304   F836    1.356   1_554 S
C306   C307    1.384   .     A
C306   F334    1.358   .     S
C307   H315    1.083   .     S
C307   C812    1.386   .     S
C308   H314    1.079   .     S
C308   C786    1.416   1_554 S
C308   C811    1.386   1_554 S
Cu309  O318    1.960   .     S
Cu309  Cu310   2.677   .     S
Cu309  N316    2.012   .     S
Cu309  O320    1.961   .     S
Cu309  O324    1.947   .     S
Cu309  O322    1.960   .     S
Cu310  O325    1.961   .     S
Cu310  O321    1.947   .     S
Cu310  O319    1.960   .     S
Cu310  O323    1.960   .     S
Cu310  N317    2.011   .     S
F332   C808    1.356   .     S
C337   C353    1.448   .     S
C337   O374    1.291   .     A
C337   O375    1.289   .     A
C338   C339    1.415   .     A
C338   C844    1.419   .     S
C338   C868    1.416   .     S
C339   C346    1.424   .     A
C339   C343    1.417   .     A
C340   C344    1.405   .     A
C340   C842    1.419   1_554 S
C340   C845    1.421   1_554 S
C341   C342    1.414   .     A
C341   C844    1.421   .     S
C341   C864    1.416   .     S
C342   Br387   1.935   .     S
C342   C343    1.405   .     A
C343   Br391   1.935   .     S
C344   F389    1.358   .     S
C344   C361    1.405   .     A
C345   C360    1.395   .     A
C345   C361    1.402   .     A
C345   F382    1.358   .     S
C346   C362    1.408   .     A
C346   C348    1.471   .     S
C347   C353    1.411   .     A
C347   Br392   1.928   .     S
C347   C13     1.389   1_565 S
C348   O376    1.295   .     A
C348   O377    1.296   .     A
C349   C350    1.400   .     A
C349   F383    1.358   .     S
C350   C358    1.444   .     S
C350   C351    1.396   .     A
C351   H367    1.084   .     S
C352   F384    1.358   .     S
C352   C353    1.404   .     A
C352   C15     1.383   1_565 S
C354   N373    1.367   .     A
C354   H368    1.082   .     S
C354   C411    1.416   .     S
C355   N372    1.367   .     A
C355   H369    1.082   .     S
C355   C466    1.416   1_455 S
C356   F385    1.355   .     S
C356   N372    1.368   .     A
C356   C469    1.415   1_455 S
C357   F386    1.354   .     S
C357   N373    1.367   .     A
C357   C412    1.415   .     S
C358   O379    1.289   .     A
C358   O378    1.289   .     A
C359   O381    1.300   .     A
C359   C361    1.476   .     S
C359   O380    1.294   .     A
C360   C845    1.416   1_554 S
C360   F892    1.356   1_554 S
C362   C363    1.384   .     A
C362   F390    1.358   .     S
C363   H371    1.083   .     S
C363   C868    1.386   .     S
C364   H370    1.079   .     S
C364   C842    1.416   1_554 S
C364   C867    1.386   1_554 S
Cu365  O374    1.960   .     S
Cu365  Cu366   2.677   .     S
Cu365  N372    2.012   .     S
Cu365  O376    1.961   .     S
Cu365  O380    1.947   .     S
Cu365  O378    1.960   .     S
Cu366  O381    1.961   .     S
Cu366  O377    1.947   .     S
Cu366  O375    1.960   .     S
Cu366  O379    1.960   .     S
Cu366  N373    2.011   .     S
F388   C864    1.356   .     S
C393   C409    1.448   .     S
C393   O430    1.291   .     A
C393   O431    1.289   .     A
C394   C395    1.415   .     A
C394   C900    1.419   .     S
C394   C924    1.416   .     S
C395   C402    1.424   .     A
C395   C399    1.417   .     A
C396   C400    1.405   .     A
C396   C898    1.419   1_554 S
C396   C901    1.421   1_554 S
C397   C398    1.414   .     A
C397   C900    1.421   .     S
C397   C920    1.416   .     S
C398   Br443   1.935   .     S
C398   C399    1.405   .     A
C399   Br447   1.935   .     S
C400   F445    1.358   .     S
C400   C417    1.405   .     A
C401   C416    1.395   .     A
C401   C417    1.402   .     A
C401   F438    1.358   .     S
C402   C418    1.408   .     A
C402   C404    1.471   .     S
C403   C409    1.411   .     A
C403   Br448   1.928   .     S
C403   C69     1.389   1_565 S
C404   O432    1.295   .     A
C404   O433    1.296   .     A
C405   C406    1.400   .     A
C405   F439    1.358   .     S
C406   C414    1.444   .     S
C406   C407    1.396   .     A
C407   H423    1.084   .     S
C408   F440    1.358   .     S
C408   C409    1.404   .     A
C408   C71     1.383   1_565 S
C410   N429    1.367   .     A
C410   H424    1.082   .     S
C410   C467    1.416   .     S
C411   N428    1.367   .     A
C411   H425    1.082   .     S
C412   F441    1.355   .     S
C412   N428    1.368   .     A
C413   F442    1.354   .     S
C413   N429    1.367   .     A
C413   C468    1.415   .     S
C414   O435    1.289   .     A
C414   O434    1.289   .     A
C415   O437    1.300   .     A
C415   C417    1.476   .     S
C415   O436    1.294   .     A
C416   C901    1.416   1_554 S
C416   F948    1.356   1_554 S
C418   C419    1.384   .     A
C418   F446    1.358   .     S
C419   H427    1.083   .     S
C419   C924    1.386   .     S
C420   H426    1.079   .     S
C420   C898    1.416   1_554 S
C420   C923    1.386   1_554 S
Cu421  O430    1.960   .     S
Cu421  Cu422   2.677   .     S
Cu421  N428    2.012   .     S
Cu421  O432    1.961   .     S
Cu421  O436    1.947   .     S
Cu421  O434    1.960   .     S
Cu422  O437    1.961   .     S
Cu422  O433    1.947   .     S
Cu422  O431    1.960   .     S
Cu422  O435    1.960   .     S
Cu422  N429    2.011   .     S
F444   C920    1.356   .     S
C449   C465    1.448   .     S
C449   O486    1.291   .     A
C449   O487    1.289   .     A
C450   C451    1.415   .     A
C450   C956    1.419   .     S
C450   C980    1.416   .     S
C451   C458    1.424   .     A
C451   C455    1.417   .     A
C452   C456    1.405   .     A
C452   C954    1.419   1_554 S
C452   C957    1.421   1_554 S
C453   C454    1.414   .     A
C453   C956    1.421   .     S
C453   C976    1.416   .     S
C454   Br499   1.935   .     S
C454   C455    1.405   .     A
C455   Br503   1.935   .     S
C456   F501    1.358   .     S
C456   C473    1.405   .     A
C457   C472    1.395   .     A
C457   C473    1.402   .     A
C457   F494    1.358   .     S
C458   C474    1.408   .     A
C458   C460    1.471   .     S
C459   C465    1.411   .     A
C459   Br504   1.928   .     S
C459   C125    1.389   1_565 S
C460   O488    1.295   .     A
C460   O489    1.296   .     A
C461   C462    1.400   .     A
C461   F495    1.358   .     S
C462   C470    1.444   .     S
C462   C463    1.396   .     A
C463   H479    1.084   .     S
C464   F496    1.358   .     S
C464   C465    1.404   .     A
C464   C127    1.383   1_565 S
C466   N485    1.367   .     A
C466   H480    1.082   .     S
C466   C355    1.416   1_655 S
C467   N484    1.367   .     A
C467   H481    1.082   .     S
C468   F497    1.355   .     S
C468   N484    1.368   .     A
C469   F498    1.354   .     S
C469   N485    1.367   .     A
C469   C356    1.415   1_655 S
C470   O491    1.289   .     A
C470   O490    1.289   .     A
C471   O493    1.300   .     A
C471   C473    1.476   .     S
C471   O492    1.294   .     A
C472   C957    1.416   1_554 S
C472   F1004   1.356   1_554 S
C474   C475    1.384   .     A
C474   F502    1.358   .     S
C475   H483    1.083   .     S
C475   C980    1.386   .     S
C476   H482    1.079   .     S
C476   C954    1.416   1_554 S
C476   C979    1.386   1_554 S
Cu477  O486    1.960   .     S
Cu477  Cu478   2.677   .     S
Cu477  N484    2.012   .     S
Cu477  O488    1.961   .     S
Cu477  O492    1.947   .     S
Cu477  O490    1.960   .     S
Cu478  O493    1.961   .     S
Cu478  O489    1.947   .     S
Cu478  O487    1.960   .     S
Cu478  O491    1.960   .     S
Cu478  N485    2.011   .     S
F500   C976    1.356   .     S
C505   C521    1.448   .     S
C505   O542    1.291   .     A
C505   O543    1.289   .     A
C506   C507    1.415   .     A
C506   C4      1.419   1_556 S
C506   C28     1.416   1_556 S
C507   C514    1.424   .     A
C507   C511    1.417   .     A
C508   C512    1.405   .     A
C509   C510    1.414   .     A
C509   C4      1.421   1_556 S
C509   C24     1.416   1_556 S
C510   Br555   1.935   .     S
C510   C511    1.405   .     A
C511   Br559   1.935   .     S
C512   F557    1.358   .     S
C512   C529    1.405   .     A
C513   C528    1.395   .     A
C513   C529    1.402   .     A
C513   F550    1.358   .     S
C514   C530    1.408   .     A
C514   C516    1.471   .     S
C515   C521    1.411   .     A
C515   Br560   1.928   .     S
C515   C685    1.389   .     S
C516   O544    1.295   .     A
C516   O545    1.296   .     A
C517   C518    1.400   .     A
C517   F551    1.358   .     S
C517   C851    1.389   1_545 S
C518   C526    1.444   .     S
C518   C519    1.396   .     A
C519   H535    1.084   .     S
C519   C856    1.383   1_545 S
C520   F552    1.358   .     S
C520   C521    1.404   .     A
C520   C687    1.383   .     S
C522   N541    1.367   .     A
C522   H536    1.082   .     S
C522   C579    1.416   .     S
C523   N540    1.367   .     A
C523   H537    1.082   .     S
C523   C634    1.416   1_455 S
C524   F553    1.355   .     S
C524   N540    1.368   .     A
C524   C637    1.415   1_455 S
C525   F554    1.354   .     S
C525   N541    1.367   .     A
C525   C580    1.415   .     S
C526   O547    1.289   .     A
C526   O546    1.289   .     A
C527   O549    1.300   .     A
C527   C529    1.476   .     S
C527   O548    1.294   .     A
C530   C531    1.384   .     A
C530   F558    1.358   .     S
C531   H539    1.083   .     S
C531   C28     1.386   1_556 S
C532   H538    1.079   .     S
Cu533  O542    1.960   .     S
Cu533  Cu534   2.677   .     S
Cu533  N540    2.012   .     S
Cu533  O544    1.961   .     S
Cu533  O548    1.947   .     S
Cu533  O546    1.960   .     S
Cu534  O549    1.961   .     S
Cu534  O545    1.947   .     S
Cu534  O543    1.960   .     S
Cu534  O547    1.960   .     S
Cu534  N541    2.011   .     S
F556   C24     1.356   1_556 S
C561   C577    1.448   .     S
C561   O598    1.291   .     A
C561   O599    1.289   .     A
C562   C563    1.415   .     A
C562   C60     1.419   1_556 S
C562   C84     1.416   1_556 S
C563   C570    1.424   .     A
C563   C567    1.417   .     A
C564   C568    1.405   .     A
C565   C566    1.414   .     A
C565   C60     1.421   1_556 S
C565   C80     1.416   1_556 S
C566   Br611   1.935   .     S
C566   C567    1.405   .     A
C567   Br615   1.935   .     S
C568   F613    1.358   .     S
C568   C585    1.405   .     A
C569   C584    1.395   .     A
C569   C585    1.402   .     A
C569   F606    1.358   .     S
C570   C586    1.408   .     A
C570   C572    1.471   .     S
C571   C577    1.411   .     A
C571   Br616   1.928   .     S
C571   C741    1.389   .     S
C572   O600    1.295   .     A
C572   O601    1.296   .     A
C573   C574    1.400   .     A
C573   F607    1.358   .     S
C573   C907    1.389   1_545 S
C574   C582    1.444   .     S
C574   C575    1.396   .     A
C575   H591    1.084   .     S
C575   C912    1.383   1_545 S
C576   F608    1.358   .     S
C576   C577    1.404   .     A
C576   C743    1.383   .     S
C578   N597    1.367   .     A
C578   H592    1.082   .     S
C578   C635    1.416   .     S
C579   N596    1.367   .     A
C579   H593    1.082   .     S
C580   F609    1.355   .     S
C580   N596    1.368   .     A
C581   F610    1.354   .     S
C581   N597    1.367   .     A
C581   C636    1.415   .     S
C582   O603    1.289   .     A
C582   O602    1.289   .     A
C583   O605    1.300   .     A
C583   C585    1.476   .     S
C583   O604    1.294   .     A
C586   C587    1.384   .     A
C586   F614    1.358   .     S
C587   H595    1.083   .     S
C587   C84     1.386   1_556 S
C588   H594    1.079   .     S
Cu589  O598    1.960   .     S
Cu589  Cu590   2.677   .     S
Cu589  N596    2.012   .     S
Cu589  O600    1.961   .     S
Cu589  O604    1.947   .     S
Cu589  O602    1.960   .     S
Cu590  O605    1.961   .     S
Cu590  O601    1.947   .     S
Cu590  O599    1.960   .     S
Cu590  O603    1.960   .     S
Cu590  N597    2.011   .     S
F612   C80     1.356   1_556 S
C617   C633    1.448   .     S
C617   O654    1.291   .     A
C617   O655    1.289   .     A
C618   C619    1.415   .     A
C618   C116    1.419   1_556 S
C618   C140    1.416   1_556 S
C619   C626    1.424   .     A
C619   C623    1.417   .     A
C620   C624    1.405   .     A
C621   C622    1.414   .     A
C621   C116    1.421   1_556 S
C621   C136    1.416   1_556 S
C622   Br667   1.935   .     S
C622   C623    1.405   .     A
C623   Br671   1.935   .     S
C624   F669    1.358   .     S
C624   C641    1.405   .     A
C625   C640    1.395   .     A
C625   C641    1.402   .     A
C625   F662    1.358   .     S
C626   C642    1.408   .     A
C626   C628    1.471   .     S
C627   C633    1.411   .     A
C627   Br672   1.928   .     S
C627   C797    1.389   .     S
C628   O656    1.295   .     A
C628   O657    1.296   .     A
C629   C630    1.400   .     A
C629   F663    1.358   .     S
C629   C963    1.389   1_545 S
C630   C638    1.444   .     S
C630   C631    1.396   .     A
C631   H647    1.084   .     S
C631   C968    1.383   1_545 S
C632   F664    1.358   .     S
C632   C633    1.404   .     A
C632   C799    1.383   .     S
C634   N653    1.367   .     A
C634   H648    1.082   .     S
C634   C523    1.416   1_655 S
C635   N652    1.367   .     A
C635   H649    1.082   .     S
C636   F665    1.355   .     S
C636   N652    1.368   .     A
C637   F666    1.354   .     S
C637   N653    1.367   .     A
C637   C524    1.415   1_655 S
C638   O659    1.289   .     A
C638   O658    1.289   .     A
C639   O661    1.300   .     A
C639   C641    1.476   .     S
C639   O660    1.294   .     A
C642   C643    1.384   .     A
C642   F670    1.358   .     S
C643   H651    1.083   .     S
C643   C140    1.386   1_556 S
C644   H650    1.079   .     S
Cu645  O654    1.960   .     S
Cu645  Cu646   2.677   .     S
Cu645  N652    2.012   .     S
Cu645  O656    1.961   .     S
Cu645  O660    1.947   .     S
Cu645  O658    1.960   .     S
Cu646  O661    1.961   .     S
Cu646  O657    1.947   .     S
Cu646  O655    1.960   .     S
Cu646  O659    1.960   .     S
Cu646  N653    2.011   .     S
F668   C136    1.356   1_556 S
C673   C689    1.448   .     S
C673   O710    1.291   .     A
C673   O711    1.289   .     A
C674   C675    1.415   .     A
C674   C172    1.419   1_556 S
C674   C196    1.416   1_556 S
C675   C682    1.424   .     A
C675   C679    1.417   .     A
C676   C680    1.405   .     A
C677   C678    1.414   .     A
C677   C172    1.421   1_556 S
C677   C192    1.416   1_556 S
C678   Br723   1.935   .     S
C678   C679    1.405   .     A
C679   Br727   1.935   .     S
C680   F725    1.358   .     S
C680   C697    1.405   .     A
C681   C696    1.395   .     A
C681   C697    1.402   .     A
C681   F718    1.358   .     S
C682   C698    1.408   .     A
C682   C684    1.471   .     S
C683   C689    1.411   .     A
C683   Br728   1.928   .     S
C683   C853    1.389   .     S
C684   O712    1.295   .     A
C684   O713    1.296   .     A
C685   C686    1.400   .     A
C685   F719    1.358   .     S
C686   C694    1.444   .     S
C686   C687    1.396   .     A
C687   H703    1.084   .     S
C688   F720    1.358   .     S
C688   C689    1.404   .     A
C688   C855    1.383   .     S
C690   N709    1.367   .     A
C690   H704    1.082   .     S
C690   C747    1.416   .     S
C691   N708    1.367   .     A
C691   H705    1.082   .     S
C691   C802    1.416   1_455 S
C692   F721    1.355   .     S
C692   N708    1.368   .     A
C692   C805    1.415   1_455 S
C693   F722    1.354   .     S
C693   N709    1.367   .     A
C693   C748    1.415   .     S
C694   O715    1.289   .     A
C694   O714    1.289   .     A
C695   O717    1.300   .     A
C695   C697    1.476   .     S
C695   O716    1.294   .     A
C698   C699    1.384   .     A
C698   F726    1.358   .     S
C699   H707    1.083   .     S
C699   C196    1.386   1_556 S
C700   H706    1.079   .     S
Cu701  O710    1.960   .     S
Cu701  Cu702   2.677   .     S
Cu701  N708    2.012   .     S
Cu701  O712    1.961   .     S
Cu701  O716    1.947   .     S
Cu701  O714    1.960   .     S
Cu702  O717    1.961   .     S
Cu702  O713    1.947   .     S
Cu702  O711    1.960   .     S
Cu702  O715    1.960   .     S
Cu702  N709    2.011   .     S
F724   C192    1.356   1_556 S
C729   C745    1.448   .     S
C729   O766    1.291   .     A
C729   O767    1.289   .     A
C730   C731    1.415   .     A
C730   C228    1.419   1_556 S
C730   C252    1.416   1_556 S
C731   C738    1.424   .     A
C731   C735    1.417   .     A
C732   C736    1.405   .     A
C733   C734    1.414   .     A
C733   C228    1.421   1_556 S
C733   C248    1.416   1_556 S
C734   Br779   1.935   .     S
C734   C735    1.405   .     A
C735   Br783   1.935   .     S
C736   F781    1.358   .     S
C736   C753    1.405   .     A
C737   C752    1.395   .     A
C737   C753    1.402   .     A
C737   F774    1.358   .     S
C738   C754    1.408   .     A
C738   C740    1.471   .     S
C739   C745    1.411   .     A
C739   Br784   1.928   .     S
C739   C909    1.389   .     S
C740   O768    1.295   .     A
C740   O769    1.296   .     A
C741   C742    1.400   .     A
C741   F775    1.358   .     S
C742   C750    1.444   .     S
C742   C743    1.396   .     A
C743   H759    1.084   .     S
C744   F776    1.358   .     S
C744   C745    1.404   .     A
C744   C911    1.383   .     S
C746   N765    1.367   .     A
C746   H760    1.082   .     S
C746   C803    1.416   .     S
C747   N764    1.367   .     A
C747   H761    1.082   .     S
C748   F777    1.355   .     S
C748   N764    1.368   .     A
C749   F778    1.354   .     S
C749   N765    1.367   .     A
C749   C804    1.415   .     S
C750   O771    1.289   .     A
C750   O770    1.289   .     A
C751   O773    1.300   .     A
C751   C753    1.476   .     S
C751   O772    1.294   .     A
C754   C755    1.384   .     A
C754   F782    1.358   .     S
C755   H763    1.083   .     S
C755   C252    1.386   1_556 S
C756   H762    1.079   .     S
Cu757  O766    1.960   .     S
Cu757  Cu758   2.677   .     S
Cu757  N764    2.012   .     S
Cu757  O768    1.961   .     S
Cu757  O772    1.947   .     S
Cu757  O770    1.960   .     S
Cu758  O773    1.961   .     S
Cu758  O769    1.947   .     S
Cu758  O767    1.960   .     S
Cu758  O771    1.960   .     S
Cu758  N765    2.011   .     S
F780   C248    1.356   1_556 S
C785   C801    1.448   .     S
C785   O822    1.291   .     A
C785   O823    1.289   .     A
C786   C787    1.415   .     A
C786   C284    1.419   1_556 S
C786   C308    1.416   1_556 S
C787   C794    1.424   .     A
C787   C791    1.417   .     A
C788   C792    1.405   .     A
C789   C790    1.414   .     A
C789   C284    1.421   1_556 S
C789   C304    1.416   1_556 S
C790   Br835   1.935   .     S
C790   C791    1.405   .     A
C791   Br839   1.935   .     S
C792   F837    1.358   .     S
C792   C809    1.405   .     A
C793   C808    1.395   .     A
C793   C809    1.402   .     A
C793   F830    1.358   .     S
C794   C810    1.408   .     A
C794   C796    1.471   .     S
C795   C801    1.411   .     A
C795   Br840   1.928   .     S
C795   C965    1.389   .     S
C796   O824    1.295   .     A
C796   O825    1.296   .     A
C797   C798    1.400   .     A
C797   F831    1.358   .     S
C798   C806    1.444   .     S
C798   C799    1.396   .     A
C799   H815    1.084   .     S
C800   F832    1.358   .     S
C800   C801    1.404   .     A
C800   C967    1.383   .     S
C802   N821    1.367   .     A
C802   H816    1.082   .     S
C802   C691    1.416   1_655 S
C803   N820    1.367   .     A
C803   H817    1.082   .     S
C804   F833    1.355   .     S
C804   N820    1.368   .     A
C805   F834    1.354   .     S
C805   N821    1.367   .     A
C805   C692    1.415   1_655 S
C806   O827    1.289   .     A
C806   O826    1.289   .     A
C807   O829    1.300   .     A
C807   C809    1.476   .     S
C807   O828    1.294   .     A
C810   C811    1.384   .     A
C810   F838    1.358   .     S
C811   H819    1.083   .     S
C811   C308    1.386   1_556 S
C812   H818    1.079   .     S
Cu813  O822    1.960   .     S
Cu813  Cu814   2.677   .     S
Cu813  N820    2.012   .     S
Cu813  O824    1.961   .     S
Cu813  O828    1.947   .     S
Cu813  O826    1.960   .     S
Cu814  O829    1.961   .     S
Cu814  O825    1.947   .     S
Cu814  O823    1.960   .     S
Cu814  O827    1.960   .     S
Cu814  N821    2.011   .     S
F836   C304    1.356   1_556 S
C841   C857    1.448   .     S
C841   O878    1.291   .     A
C841   O879    1.289   .     A
C842   C843    1.415   .     A
C842   C340    1.419   1_556 S
C842   C364    1.416   1_556 S
C843   C850    1.424   .     A
C843   C847    1.417   .     A
C844   C848    1.405   .     A
C845   C846    1.414   .     A
C845   C340    1.421   1_556 S
C845   C360    1.416   1_556 S
C846   Br891   1.935   .     S
C846   C847    1.405   .     A
C847   Br895   1.935   .     S
C848   F893    1.358   .     S
C848   C865    1.405   .     A
C849   C864    1.395   .     A
C849   C865    1.402   .     A
C849   F886    1.358   .     S
C850   C866    1.408   .     A
C850   C852    1.471   .     S
C851   C857    1.411   .     A
C851   Br896   1.928   .     S
C851   C517    1.389   1_565 S
C852   O880    1.295   .     A
C852   O881    1.296   .     A
C853   C854    1.400   .     A
C853   F887    1.358   .     S
C854   C862    1.444   .     S
C854   C855    1.396   .     A
C855   H871    1.084   .     S
C856   F888    1.358   .     S
C856   C857    1.404   .     A
C856   C519    1.383   1_565 S
C858   N877    1.367   .     A
C858   H872    1.082   .     S
C858   C915    1.416   .     S
C859   N876    1.367   .     A
C859   H873    1.082   .     S
C859   C970    1.416   1_455 S
C860   F889    1.355   .     S
C860   N876    1.368   .     A
C860   C973    1.415   1_455 S
C861   F890    1.354   .     S
C861   N877    1.367   .     A
C861   C916    1.415   .     S
C862   O883    1.289   .     A
C862   O882    1.289   .     A
C863   O885    1.300   .     A
C863   C865    1.476   .     S
C863   O884    1.294   .     A
C866   C867    1.384   .     A
C866   F894    1.358   .     S
C867   H875    1.083   .     S
C867   C364    1.386   1_556 S
C868   H874    1.079   .     S
Cu869  O878    1.960   .     S
Cu869  Cu870   2.677   .     S
Cu869  N876    2.012   .     S
Cu869  O880    1.961   .     S
Cu869  O884    1.947   .     S
Cu869  O882    1.960   .     S
Cu870  O885    1.961   .     S
Cu870  O881    1.947   .     S
Cu870  O879    1.960   .     S
Cu870  O883    1.960   .     S
Cu870  N877    2.011   .     S
F892   C360    1.356   1_556 S
C897   C913    1.448   .     S
C897   O934    1.291   .     A
C897   O935    1.289   .     A
C898   C899    1.415   .     A
C898   C396    1.419   1_556 S
C898   C420    1.416   1_556 S
C899   C906    1.424   .     A
C899   C903    1.417   .     A
C900   C904    1.405   .     A
C901   C902    1.414   .     A
C901   C396    1.421   1_556 S
C901   C416    1.416   1_556 S
C902   Br947   1.935   .     S
C902   C903    1.405   .     A
C903   Br951   1.935   .     S
C904   F949    1.358   .     S
C904   C921    1.405   .     A
C905   C920    1.395   .     A
C905   C921    1.402   .     A
C905   F942    1.358   .     S
C906   C922    1.408   .     A
C906   C908    1.471   .     S
C907   C913    1.411   .     A
C907   Br952   1.928   .     S
C907   C573    1.389   1_565 S
C908   O936    1.295   .     A
C908   O937    1.296   .     A
C909   C910    1.400   .     A
C909   F943    1.358   .     S
C910   C918    1.444   .     S
C910   C911    1.396   .     A
C911   H927    1.084   .     S
C912   F944    1.358   .     S
C912   C913    1.404   .     A
C912   C575    1.383   1_565 S
C914   N933    1.367   .     A
C914   H928    1.082   .     S
C914   C971    1.416   .     S
C915   N932    1.367   .     A
C915   H929    1.082   .     S
C916   F945    1.355   .     S
C916   N932    1.368   .     A
C917   F946    1.354   .     S
C917   N933    1.367   .     A
C917   C972    1.415   .     S
C918   O939    1.289   .     A
C918   O938    1.289   .     A
C919   O941    1.300   .     A
C919   C921    1.476   .     S
C919   O940    1.294   .     A
C922   C923    1.384   .     A
C922   F950    1.358   .     S
C923   H931    1.083   .     S
C923   C420    1.386   1_556 S
C924   H930    1.079   .     S
Cu925  O934    1.960   .     S
Cu925  Cu926   2.677   .     S
Cu925  N932    2.012   .     S
Cu925  O936    1.961   .     S
Cu925  O940    1.947   .     S
Cu925  O938    1.960   .     S
Cu926  O941    1.961   .     S
Cu926  O937    1.947   .     S
Cu926  O935    1.960   .     S
Cu926  O939    1.960   .     S
Cu926  N933    2.011   .     S
F948   C416    1.356   1_556 S
C953   C969    1.448   .     S
C953   O990    1.291   .     A
C953   O991    1.289   .     A
C954   C955    1.415   .     A
C954   C452    1.419   1_556 S
C954   C476    1.416   1_556 S
C955   C962    1.424   .     A
C955   C959    1.417   .     A
C956   C960    1.405   .     A
C957   C958    1.414   .     A
C957   C452    1.421   1_556 S
C957   C472    1.416   1_556 S
C958   Br1003  1.935   .     S
C958   C959    1.405   .     A
C959   Br1007  1.935   .     S
C960   F1005   1.358   .     S
C960   C977    1.405   .     A
C961   C976    1.395   .     A
C961   C977    1.402   .     A
C961   F998    1.358   .     S
C962   C978    1.408   .     A
C962   C964    1.471   .     S
C963   C969    1.411   .     A
C963   Br1008  1.928   .     S
C963   C629    1.389   1_565 S
C964   O992    1.295   .     A
C964   O993    1.296   .     A
C965   C966    1.400   .     A
C965   F999    1.358   .     S
C966   C974    1.444   .     S
C966   C967    1.396   .     A
C967   H983    1.084   .     S
C968   F1000   1.358   .     S
C968   C969    1.404   .     A
C968   C631    1.383   1_565 S
C970   N989    1.367   .     A
C970   H984    1.082   .     S
C970   C859    1.416   1_655 S
C971   N988    1.367   .     A
C971   H985    1.082   .     S
C972   F1001   1.355   .     S
C972   N988    1.368   .     A
C973   F1002   1.354   .     S
C973   N989    1.367   .     A
C973   C860    1.415   1_655 S
C974   O995    1.289   .     A
C974   O994    1.289   .     A
C975   O997    1.300   .     A
C975   C977    1.476   .     S
C975   O996    1.294   .     A
C978   C979    1.384   .     A
C978   F1006   1.358   .     S
C979   H987    1.083   .     S
C979   C476    1.386   1_556 S
C980   H986    1.079   .     S
Cu981  O990    1.960   .     S
Cu981  Cu982   2.677   .     S
Cu981  N988    2.012   .     S
Cu981  O992    1.961   .     S
Cu981  O996    1.947   .     S
Cu981  O994    1.960   .     S
Cu982  O997    1.961   .     S
Cu982  O993    1.947   .     S
Cu982  O991    1.960   .     S
Cu982  O995    1.960   .     S
Cu982  N989    2.011   .     S
F1004  C472    1.356   1_556 S
