data_str_m2_o1_o2_pcu_sym.72
_audit_creation_date              2020-01-03
_audit_creation_method            'Materials Studio'
_symmetry_space_group_name_H-M    'P1'
_symmetry_Int_Tables_number       1
_symmetry_cell_setting            triclinic
loop_
_symmetry_equiv_pos_as_xyz
  x,y,z
_cell_length_a                    32.4046
_cell_length_b                    28.5377
_cell_length_c                    30.3847
_cell_angle_alpha                 90.0466
_cell_angle_beta                  90.2542
_cell_angle_gamma                 90.0002
loop_
_atom_site_label
_atom_site_type_symbol
_atom_site_fract_x
_atom_site_fract_y
_atom_site_fract_z
_atom_site_U_iso_or_equiv
_atom_site_adp_type
_atom_site_occupancy
C1     C     0.08754   0.16666   0.24998   0.00000  Uiso   1.00
C2     C     0.31182   0.16824   0.29056   0.00000  Uiso   1.00
C3     C     0.31147   0.16494   0.20945   0.00000  Uiso   1.00
C4     C     0.02191   0.16679   0.29058   0.00000  Uiso   1.00
C5     C     0.14735   0.20298   0.04665   0.00000  Uiso   1.00
C6     C     0.14732   0.12978   0.45308   0.00000  Uiso   1.00
C7     C     0.18444   0.20316   0.45364   0.00000  Uiso   1.00
C8     C     0.18435   0.12951   0.04662   0.00000  Uiso   1.00
C9     C     0.14626   0.20312   0.09257   0.00000  Uiso   1.00
C10    C     0.14627   0.12968   0.40712   0.00000  Uiso   1.00
C11    C     0.18593   0.20341   0.40773   0.00000  Uiso   1.00
C12    C     0.24581   0.16666   0.25001   0.00000  Uiso   1.00
C13    C     0.18580   0.12932   0.09257   0.00000  Uiso   1.00
C14    C     0.16628   0.16637   0.11626   0.00000  Uiso   1.00
C15    C     0.16625   0.16659   0.38374   0.00000  Uiso   1.00
C16    C     0.16581   0.16627   0.02396   0.00000  Uiso   1.00
C17    C     0.16581   0.16641   0.47603   0.00000  Uiso   1.00
C18    C     0.29051   0.16664   0.25000   0.00000  Uiso   1.00
C19    C     0.04286   0.16664   0.24999   0.00000  Uiso   1.00
C20    C     0.12191   0.24070   0.11429   0.00000  Uiso   1.00
C21    C     0.12233   0.09171   0.38508   0.00000  Uiso   1.00
C22    C     0.21022   0.24127   0.38640   0.00000  Uiso   1.00
C23    C     0.16659   0.16660   0.16485   0.00000  Uiso   1.00
C24    C     0.20955   0.09099   0.11422   0.00000  Uiso   1.00
C25    C     0.04534   0.16885   0.16757   0.00000  Uiso   1.00
C26    C     0.28806   0.17246   0.33227   0.00000  Uiso   1.00
C27    C     0.28736   0.16055   0.16775   0.00000  Uiso   1.00
C28    C     0.04604   0.16418   0.33240   0.00000  Uiso   1.00
C29    C     0.16657   0.16666   0.33515   0.00000  Uiso   1.00
C30    C     0.13851   0.02481   0.22553   0.00000  Uiso   1.00
C31    C     0.19492   0.30858   0.27432   0.00000  Uiso   1.00
C32    C     0.19482   0.02485   0.27447   0.00000  Uiso   1.00
C33    C     0.13841   0.30854   0.22568   0.00000  Uiso   1.00
C34    C     0.02156   0.16639   0.20941   0.00000  Uiso   1.00
Cu35   Cu    0.16667   0.21355   0.25000   0.00000  Uiso   1.00
Cu36   Cu    0.16667   0.11978   0.25000   0.00000  Uiso   1.00
H37    H     0.11600   0.04350   0.20587   0.00000  Uiso   1.00
H38    H     0.10960   0.09634   0.35239   0.00000  Uiso   1.00
H39    H     0.22373   0.23624   0.35429   0.00000  Uiso   1.00
H40    H     0.22265   0.09536   0.14678   0.00000  Uiso   1.00
H41    H     0.07494   0.15137   0.16485   0.00000  Uiso   1.00
H42    H     0.25853   0.15496   0.33567   0.00000  Uiso   1.00
H43    H     0.25782   0.17807   0.16429   0.00000  Uiso   1.00
H44    H     0.07565   0.18168   0.33519   0.00000  Uiso   1.00
H45    H     0.21769   0.28998   0.29363   0.00000  Uiso   1.00
H46    H     0.21734   0.04357   0.29412   0.00000  Uiso   1.00
H47    H     0.11565   0.28991   0.20637   0.00000  Uiso   1.00
H48    H     0.13233   0.23066   0.02812   0.00000  Uiso   1.00
H49    H     0.13234   0.10204   0.47144   0.00000  Uiso   1.00
H50    H     0.19933   0.23080   0.47240   0.00000  Uiso   1.00
H51    H     0.19911   0.10176   0.02804   0.00000  Uiso   1.00
H52    H     0.10852   0.23532   0.14643   0.00000  Uiso   1.00
N53    N     0.16667   0.28402   0.25000   0.00000  Uiso   1.00
N54    N     0.16667   0.04931   0.25000   0.00000  Uiso   1.00
O55    O     0.10655   0.20625   0.24999   0.00000  Uiso   1.00
O56    O     0.11575   0.05461   0.40379   0.00000  Uiso   1.00
O57    O     0.21619   0.27859   0.40507   0.00000  Uiso   1.00
O58    O     0.21552   0.05382   0.09533   0.00000  Uiso   1.00
O59    O     0.03297   0.19205   0.13645   0.00000  Uiso   1.00
O60    O     0.30037   0.19709   0.36246   0.00000  Uiso   1.00
O61    O     0.29939   0.13576   0.13766   0.00000  Uiso   1.00
O62    O     0.03396   0.14082   0.36343   0.00000  Uiso   1.00
O63    O     0.22679   0.12709   0.25000   0.00000  Uiso   1.00
O64    O     0.22679   0.20625   0.25000   0.00000  Uiso   1.00
O65    O     0.10655   0.12709   0.24999   0.00000  Uiso   1.00
O66    O     0.16666   0.20626   0.18573   0.00000  Uiso   1.00
O67    O     0.16667   0.12707   0.31427   0.00000  Uiso   1.00
O68    O     0.16667   0.20626   0.31427   0.00000  Uiso   1.00
O69    O     0.16666   0.12707   0.18573   0.00000  Uiso   1.00
O70    O     0.11570   0.27812   0.09593   0.00000  Uiso   1.00
C71    C     0.42087   0.16666   0.24998   0.00000  Uiso   1.00
C72    C     0.64515   0.16824   0.29056   0.00000  Uiso   1.00
C73    C     0.64480   0.16494   0.20945   0.00000  Uiso   1.00
C74    C     0.35524   0.16679   0.29058   0.00000  Uiso   1.00
C75    C     0.48069   0.20298   0.04665   0.00000  Uiso   1.00
C76    C     0.48066   0.12978   0.45308   0.00000  Uiso   1.00
C77    C     0.51778   0.20316   0.45364   0.00000  Uiso   1.00
C78    C     0.51768   0.12951   0.04662   0.00000  Uiso   1.00
C79    C     0.47959   0.20312   0.09257   0.00000  Uiso   1.00
C80    C     0.47960   0.12968   0.40712   0.00000  Uiso   1.00
C81    C     0.51926   0.20341   0.40773   0.00000  Uiso   1.00
C82    C     0.57914   0.16666   0.25001   0.00000  Uiso   1.00
C83    C     0.51913   0.12932   0.09257   0.00000  Uiso   1.00
C84    C     0.49961   0.16637   0.11626   0.00000  Uiso   1.00
C85    C     0.49958   0.16659   0.38374   0.00000  Uiso   1.00
C86    C     0.49914   0.16627   0.02396   0.00000  Uiso   1.00
C87    C     0.49915   0.16641   0.47603   0.00000  Uiso   1.00
C88    C     0.62384   0.16664   0.25000   0.00000  Uiso   1.00
C89    C     0.37619   0.16664   0.24999   0.00000  Uiso   1.00
C90    C     0.45524   0.24070   0.11429   0.00000  Uiso   1.00
C91    C     0.45566   0.09171   0.38508   0.00000  Uiso   1.00
C92    C     0.54355   0.24127   0.38640   0.00000  Uiso   1.00
C93    C     0.49992   0.16660   0.16485   0.00000  Uiso   1.00
C94    C     0.54289   0.09099   0.11422   0.00000  Uiso   1.00
C95    C     0.37867   0.16885   0.16757   0.00000  Uiso   1.00
C96    C     0.62139   0.17246   0.33227   0.00000  Uiso   1.00
C97    C     0.62069   0.16055   0.16775   0.00000  Uiso   1.00
C98    C     0.37938   0.16418   0.33240   0.00000  Uiso   1.00
C99    C     0.49990   0.16666   0.33515   0.00000  Uiso   1.00
C100   C     0.47185   0.02481   0.22553   0.00000  Uiso   1.00
C101   C     0.52825   0.30858   0.27432   0.00000  Uiso   1.00
C102   C     0.52815   0.02485   0.27447   0.00000  Uiso   1.00
C103   C     0.47175   0.30854   0.22568   0.00000  Uiso   1.00
C104   C     0.35490   0.16639   0.20941   0.00000  Uiso   1.00
Cu105  Cu    0.50000   0.21355   0.25000   0.00000  Uiso   1.00
Cu106  Cu    0.50000   0.11978   0.25000   0.00000  Uiso   1.00
H107   H     0.44933   0.04350   0.20587   0.00000  Uiso   1.00
H108   H     0.44294   0.09634   0.35239   0.00000  Uiso   1.00
H109   H     0.55707   0.23624   0.35429   0.00000  Uiso   1.00
H110   H     0.55598   0.09536   0.14678   0.00000  Uiso   1.00
H111   H     0.40828   0.15137   0.16485   0.00000  Uiso   1.00
H112   H     0.59186   0.15496   0.33567   0.00000  Uiso   1.00
H113   H     0.59115   0.17807   0.16429   0.00000  Uiso   1.00
H114   H     0.40899   0.18168   0.33519   0.00000  Uiso   1.00
H115   H     0.55102   0.28998   0.29363   0.00000  Uiso   1.00
H116   H     0.55067   0.04357   0.29412   0.00000  Uiso   1.00
H117   H     0.44898   0.28991   0.20637   0.00000  Uiso   1.00
H118   H     0.46566   0.23066   0.02812   0.00000  Uiso   1.00
H119   H     0.46567   0.10204   0.47144   0.00000  Uiso   1.00
H120   H     0.53266   0.23080   0.47240   0.00000  Uiso   1.00
H121   H     0.53244   0.10176   0.02804   0.00000  Uiso   1.00
H122   H     0.44185   0.23532   0.14643   0.00000  Uiso   1.00
N123   N     0.50000   0.28402   0.25000   0.00000  Uiso   1.00
N124   N     0.50000   0.04931   0.25000   0.00000  Uiso   1.00
O125   O     0.43988   0.20625   0.24999   0.00000  Uiso   1.00
O126   O     0.44909   0.05461   0.40379   0.00000  Uiso   1.00
O127   O     0.54953   0.27859   0.40507   0.00000  Uiso   1.00
O128   O     0.54885   0.05382   0.09533   0.00000  Uiso   1.00
O129   O     0.36630   0.19205   0.13645   0.00000  Uiso   1.00
O130   O     0.63371   0.19709   0.36246   0.00000  Uiso   1.00
O131   O     0.63272   0.13576   0.13766   0.00000  Uiso   1.00
O132   O     0.36729   0.14082   0.36343   0.00000  Uiso   1.00
O133   O     0.56012   0.12709   0.25000   0.00000  Uiso   1.00
O134   O     0.56012   0.20625   0.25000   0.00000  Uiso   1.00
O135   O     0.43988   0.12709   0.24999   0.00000  Uiso   1.00
O136   O     0.50000   0.20626   0.18573   0.00000  Uiso   1.00
O137   O     0.50000   0.12707   0.31427   0.00000  Uiso   1.00
O138   O     0.50000   0.20626   0.31427   0.00000  Uiso   1.00
O139   O     0.50000   0.12707   0.18573   0.00000  Uiso   1.00
O140   O     0.44903   0.27812   0.09593   0.00000  Uiso   1.00
C141   C     0.75420   0.16666   0.24998   0.00000  Uiso   1.00
C142   C     0.97848   0.16824   0.29056   0.00000  Uiso   1.00
C143   C     0.97814   0.16494   0.20945   0.00000  Uiso   1.00
C144   C     0.68858   0.16679   0.29058   0.00000  Uiso   1.00
C145   C     0.81402   0.20298   0.04665   0.00000  Uiso   1.00
C146   C     0.81399   0.12978   0.45308   0.00000  Uiso   1.00
C147   C     0.85111   0.20316   0.45364   0.00000  Uiso   1.00
C148   C     0.85102   0.12951   0.04662   0.00000  Uiso   1.00
C149   C     0.81292   0.20312   0.09257   0.00000  Uiso   1.00
C150   C     0.81293   0.12968   0.40712   0.00000  Uiso   1.00
C151   C     0.85260   0.20341   0.40773   0.00000  Uiso   1.00
C152   C     0.91247   0.16666   0.25001   0.00000  Uiso   1.00
C153   C     0.85246   0.12932   0.09257   0.00000  Uiso   1.00
C154   C     0.83294   0.16637   0.11626   0.00000  Uiso   1.00
C155   C     0.83291   0.16659   0.38374   0.00000  Uiso   1.00
C156   C     0.83248   0.16627   0.02396   0.00000  Uiso   1.00
C157   C     0.83248   0.16641   0.47603   0.00000  Uiso   1.00
C158   C     0.95718   0.16664   0.25000   0.00000  Uiso   1.00
C159   C     0.70952   0.16664   0.24999   0.00000  Uiso   1.00
C160   C     0.78857   0.24070   0.11429   0.00000  Uiso   1.00
C161   C     0.78900   0.09171   0.38508   0.00000  Uiso   1.00
C162   C     0.87688   0.24127   0.38640   0.00000  Uiso   1.00
C163   C     0.83326   0.16660   0.16485   0.00000  Uiso   1.00
C164   C     0.87622   0.09099   0.11422   0.00000  Uiso   1.00
C165   C     0.71200   0.16885   0.16757   0.00000  Uiso   1.00
C166   C     0.95473   0.17246   0.33227   0.00000  Uiso   1.00
C167   C     0.95402   0.16055   0.16775   0.00000  Uiso   1.00
C168   C     0.71271   0.16418   0.33240   0.00000  Uiso   1.00
C169   C     0.83324   0.16666   0.33515   0.00000  Uiso   1.00
C170   C     0.80518   0.02481   0.22553   0.00000  Uiso   1.00
C171   C     0.86159   0.30858   0.27432   0.00000  Uiso   1.00
C172   C     0.86149   0.02485   0.27447   0.00000  Uiso   1.00
C173   C     0.80508   0.30854   0.22568   0.00000  Uiso   1.00
C174   C     0.68823   0.16639   0.20941   0.00000  Uiso   1.00
Cu175  Cu    0.83333   0.21355   0.25000   0.00000  Uiso   1.00
Cu176  Cu    0.83333   0.11978   0.25000   0.00000  Uiso   1.00
H177   H     0.78267   0.04350   0.20587   0.00000  Uiso   1.00
H178   H     0.77627   0.09634   0.35239   0.00000  Uiso   1.00
H179   H     0.89040   0.23624   0.35429   0.00000  Uiso   1.00
H180   H     0.88931   0.09536   0.14678   0.00000  Uiso   1.00
H181   H     0.74161   0.15137   0.16485   0.00000  Uiso   1.00
H182   H     0.92520   0.15496   0.33567   0.00000  Uiso   1.00
H183   H     0.92448   0.17807   0.16429   0.00000  Uiso   1.00
H184   H     0.74232   0.18168   0.33519   0.00000  Uiso   1.00
H185   H     0.88435   0.28998   0.29363   0.00000  Uiso   1.00
H186   H     0.88400   0.04357   0.29412   0.00000  Uiso   1.00
H187   H     0.78231   0.28991   0.20637   0.00000  Uiso   1.00
H188   H     0.79900   0.23066   0.02812   0.00000  Uiso   1.00
H189   H     0.79900   0.10204   0.47144   0.00000  Uiso   1.00
H190   H     0.86600   0.23080   0.47240   0.00000  Uiso   1.00
H191   H     0.86577   0.10176   0.02804   0.00000  Uiso   1.00
H192   H     0.77519   0.23532   0.14643   0.00000  Uiso   1.00
N193   N     0.83333   0.28402   0.25000   0.00000  Uiso   1.00
N194   N     0.83333   0.04931   0.25000   0.00000  Uiso   1.00
O195   O     0.77321   0.20625   0.24999   0.00000  Uiso   1.00
O196   O     0.78242   0.05461   0.40379   0.00000  Uiso   1.00
O197   O     0.88286   0.27859   0.40507   0.00000  Uiso   1.00
O198   O     0.88219   0.05382   0.09533   0.00000  Uiso   1.00
O199   O     0.69963   0.19205   0.13645   0.00000  Uiso   1.00
O200   O     0.96704   0.19709   0.36246   0.00000  Uiso   1.00
O201   O     0.96606   0.13576   0.13766   0.00000  Uiso   1.00
O202   O     0.70063   0.14082   0.36343   0.00000  Uiso   1.00
O203   O     0.89345   0.12709   0.25000   0.00000  Uiso   1.00
O204   O     0.89345   0.20625   0.25000   0.00000  Uiso   1.00
O205   O     0.77321   0.12709   0.24999   0.00000  Uiso   1.00
O206   O     0.83333   0.20626   0.18573   0.00000  Uiso   1.00
O207   O     0.83334   0.12707   0.31427   0.00000  Uiso   1.00
O208   O     0.83334   0.20626   0.31427   0.00000  Uiso   1.00
O209   O     0.83333   0.12707   0.18573   0.00000  Uiso   1.00
O210   O     0.78236   0.27812   0.09593   0.00000  Uiso   1.00
C211   C     0.08754   0.50000   0.24998   0.00000  Uiso   1.00
C212   C     0.31182   0.50157   0.29056   0.00000  Uiso   1.00
C213   C     0.31147   0.49827   0.20945   0.00000  Uiso   1.00
C214   C     0.02191   0.50012   0.29058   0.00000  Uiso   1.00
C215   C     0.14735   0.53631   0.04665   0.00000  Uiso   1.00
C216   C     0.14732   0.46311   0.45308   0.00000  Uiso   1.00
C217   C     0.18444   0.53650   0.45364   0.00000  Uiso   1.00
C218   C     0.18435   0.46284   0.04662   0.00000  Uiso   1.00
C219   C     0.14626   0.53646   0.09257   0.00000  Uiso   1.00
C220   C     0.14627   0.46301   0.40712   0.00000  Uiso   1.00
C221   C     0.18593   0.53674   0.40773   0.00000  Uiso   1.00
C222   C     0.24581   0.50000   0.25001   0.00000  Uiso   1.00
C223   C     0.18580   0.46265   0.09257   0.00000  Uiso   1.00
C224   C     0.16628   0.49971   0.11626   0.00000  Uiso   1.00
C225   C     0.16625   0.49993   0.38374   0.00000  Uiso   1.00
C226   C     0.16581   0.49961   0.02396   0.00000  Uiso   1.00
C227   C     0.16581   0.49975   0.47603   0.00000  Uiso   1.00
C228   C     0.29051   0.49997   0.25000   0.00000  Uiso   1.00
C229   C     0.04286   0.49998   0.24999   0.00000  Uiso   1.00
C230   C     0.12191   0.57403   0.11429   0.00000  Uiso   1.00
C231   C     0.12233   0.42505   0.38508   0.00000  Uiso   1.00
C232   C     0.21022   0.57460   0.38640   0.00000  Uiso   1.00
C233   C     0.16659   0.49994   0.16485   0.00000  Uiso   1.00
C234   C     0.20955   0.42433   0.11422   0.00000  Uiso   1.00
C235   C     0.04534   0.50218   0.16757   0.00000  Uiso   1.00
C236   C     0.28806   0.50579   0.33227   0.00000  Uiso   1.00
C237   C     0.28736   0.49389   0.16775   0.00000  Uiso   1.00
C238   C     0.04604   0.49752   0.33240   0.00000  Uiso   1.00
C239   C     0.16657   0.50000   0.33515   0.00000  Uiso   1.00
C240   C     0.13851   0.35814   0.22553   0.00000  Uiso   1.00
C241   C     0.19492   0.64191   0.27432   0.00000  Uiso   1.00
C242   C     0.19482   0.35818   0.27447   0.00000  Uiso   1.00
C243   C     0.13841   0.64187   0.22568   0.00000  Uiso   1.00
C244   C     0.02156   0.49973   0.20941   0.00000  Uiso   1.00
Cu245  Cu    0.16667   0.54689   0.25000   0.00000  Uiso   1.00
Cu246  Cu    0.16667   0.45311   0.25000   0.00000  Uiso   1.00
H247   H     0.11600   0.37683   0.20587   0.00000  Uiso   1.00
H248   H     0.10960   0.42968   0.35239   0.00000  Uiso   1.00
H249   H     0.22373   0.56957   0.35429   0.00000  Uiso   1.00
H250   H     0.22265   0.42869   0.14678   0.00000  Uiso   1.00
H251   H     0.07494   0.48470   0.16485   0.00000  Uiso   1.00
H252   H     0.25853   0.48829   0.33567   0.00000  Uiso   1.00
H253   H     0.25782   0.51140   0.16429   0.00000  Uiso   1.00
H254   H     0.07565   0.51501   0.33519   0.00000  Uiso   1.00
H255   H     0.21769   0.62331   0.29363   0.00000  Uiso   1.00
H256   H     0.21734   0.37690   0.29412   0.00000  Uiso   1.00
H257   H     0.11565   0.62324   0.20637   0.00000  Uiso   1.00
H258   H     0.13233   0.56400   0.02812   0.00000  Uiso   1.00
H259   H     0.13234   0.43538   0.47144   0.00000  Uiso   1.00
H260   H     0.19933   0.56413   0.47240   0.00000  Uiso   1.00
H261   H     0.19911   0.43509   0.02804   0.00000  Uiso   1.00
H262   H     0.10852   0.56866   0.14643   0.00000  Uiso   1.00
N263   N     0.16667   0.61736   0.25000   0.00000  Uiso   1.00
N264   N     0.16667   0.38264   0.25000   0.00000  Uiso   1.00
O265   O     0.10655   0.53958   0.24999   0.00000  Uiso   1.00
O266   O     0.11575   0.38794   0.40379   0.00000  Uiso   1.00
O267   O     0.21619   0.61193   0.40507   0.00000  Uiso   1.00
O268   O     0.21552   0.38716   0.09533   0.00000  Uiso   1.00
O269   O     0.03297   0.52538   0.13645   0.00000  Uiso   1.00
O270   O     0.30037   0.53042   0.36246   0.00000  Uiso   1.00
O271   O     0.29939   0.46909   0.13766   0.00000  Uiso   1.00
O272   O     0.03396   0.47416   0.36343   0.00000  Uiso   1.00
O273   O     0.22679   0.46042   0.25000   0.00000  Uiso   1.00
O274   O     0.22679   0.53958   0.25000   0.00000  Uiso   1.00
O275   O     0.10655   0.46042   0.24999   0.00000  Uiso   1.00
O276   O     0.16666   0.53959   0.18573   0.00000  Uiso   1.00
O277   O     0.16667   0.46041   0.31427   0.00000  Uiso   1.00
O278   O     0.16667   0.53959   0.31427   0.00000  Uiso   1.00
O279   O     0.16666   0.46041   0.18573   0.00000  Uiso   1.00
O280   O     0.11570   0.61145   0.09593   0.00000  Uiso   1.00
C281   C     0.42087   0.50000   0.24998   0.00000  Uiso   1.00
C282   C     0.64515   0.50157   0.29056   0.00000  Uiso   1.00
C283   C     0.64480   0.49827   0.20945   0.00000  Uiso   1.00
C284   C     0.35524   0.50012   0.29058   0.00000  Uiso   1.00
C285   C     0.48069   0.53631   0.04665   0.00000  Uiso   1.00
C286   C     0.48066   0.46311   0.45308   0.00000  Uiso   1.00
C287   C     0.51778   0.53650   0.45364   0.00000  Uiso   1.00
C288   C     0.51768   0.46284   0.04662   0.00000  Uiso   1.00
C289   C     0.47959   0.53646   0.09257   0.00000  Uiso   1.00
C290   C     0.47960   0.46301   0.40712   0.00000  Uiso   1.00
C291   C     0.51926   0.53674   0.40773   0.00000  Uiso   1.00
C292   C     0.57914   0.50000   0.25001   0.00000  Uiso   1.00
C293   C     0.51913   0.46265   0.09257   0.00000  Uiso   1.00
C294   C     0.49961   0.49971   0.11626   0.00000  Uiso   1.00
C295   C     0.49958   0.49993   0.38374   0.00000  Uiso   1.00
C296   C     0.49914   0.49961   0.02396   0.00000  Uiso   1.00
C297   C     0.49915   0.49975   0.47603   0.00000  Uiso   1.00
C298   C     0.62384   0.49997   0.25000   0.00000  Uiso   1.00
C299   C     0.37619   0.49998   0.24999   0.00000  Uiso   1.00
C300   C     0.45524   0.57403   0.11429   0.00000  Uiso   1.00
C301   C     0.45566   0.42505   0.38508   0.00000  Uiso   1.00
C302   C     0.54355   0.57460   0.38640   0.00000  Uiso   1.00
C303   C     0.49992   0.49994   0.16485   0.00000  Uiso   1.00
C304   C     0.54289   0.42433   0.11422   0.00000  Uiso   1.00
C305   C     0.37867   0.50218   0.16757   0.00000  Uiso   1.00
C306   C     0.62139   0.50579   0.33227   0.00000  Uiso   1.00
C307   C     0.62069   0.49389   0.16775   0.00000  Uiso   1.00
C308   C     0.37938   0.49752   0.33240   0.00000  Uiso   1.00
C309   C     0.49990   0.50000   0.33515   0.00000  Uiso   1.00
C310   C     0.47185   0.35814   0.22553   0.00000  Uiso   1.00
C311   C     0.52825   0.64191   0.27432   0.00000  Uiso   1.00
C312   C     0.52815   0.35818   0.27447   0.00000  Uiso   1.00
C313   C     0.47175   0.64187   0.22568   0.00000  Uiso   1.00
C314   C     0.35490   0.49973   0.20941   0.00000  Uiso   1.00
Cu315  Cu    0.50000   0.54689   0.25000   0.00000  Uiso   1.00
Cu316  Cu    0.50000   0.45311   0.25000   0.00000  Uiso   1.00
H317   H     0.44933   0.37683   0.20587   0.00000  Uiso   1.00
H318   H     0.44294   0.42968   0.35239   0.00000  Uiso   1.00
H319   H     0.55707   0.56957   0.35429   0.00000  Uiso   1.00
H320   H     0.55598   0.42869   0.14678   0.00000  Uiso   1.00
H321   H     0.40828   0.48470   0.16485   0.00000  Uiso   1.00
H322   H     0.59186   0.48829   0.33567   0.00000  Uiso   1.00
H323   H     0.59115   0.51140   0.16429   0.00000  Uiso   1.00
H324   H     0.40899   0.51501   0.33519   0.00000  Uiso   1.00
H325   H     0.55102   0.62331   0.29363   0.00000  Uiso   1.00
H326   H     0.55067   0.37690   0.29412   0.00000  Uiso   1.00
H327   H     0.44898   0.62324   0.20637   0.00000  Uiso   1.00
H328   H     0.46566   0.56400   0.02812   0.00000  Uiso   1.00
H329   H     0.46567   0.43538   0.47144   0.00000  Uiso   1.00
H330   H     0.53266   0.56413   0.47240   0.00000  Uiso   1.00
H331   H     0.53244   0.43509   0.02804   0.00000  Uiso   1.00
H332   H     0.44185   0.56866   0.14643   0.00000  Uiso   1.00
N333   N     0.50000   0.61736   0.25000   0.00000  Uiso   1.00
N334   N     0.50000   0.38264   0.25000   0.00000  Uiso   1.00
O335   O     0.43988   0.53958   0.24999   0.00000  Uiso   1.00
O336   O     0.44909   0.38794   0.40379   0.00000  Uiso   1.00
O337   O     0.54953   0.61193   0.40507   0.00000  Uiso   1.00
O338   O     0.54885   0.38716   0.09533   0.00000  Uiso   1.00
O339   O     0.36630   0.52538   0.13645   0.00000  Uiso   1.00
O340   O     0.63371   0.53042   0.36246   0.00000  Uiso   1.00
O341   O     0.63272   0.46909   0.13766   0.00000  Uiso   1.00
O342   O     0.36729   0.47416   0.36343   0.00000  Uiso   1.00
O343   O     0.56012   0.46042   0.25000   0.00000  Uiso   1.00
O344   O     0.56012   0.53958   0.25000   0.00000  Uiso   1.00
O345   O     0.43988   0.46042   0.24999   0.00000  Uiso   1.00
O346   O     0.50000   0.53959   0.18573   0.00000  Uiso   1.00
O347   O     0.50000   0.46041   0.31427   0.00000  Uiso   1.00
O348   O     0.50000   0.53959   0.31427   0.00000  Uiso   1.00
O349   O     0.50000   0.46041   0.18573   0.00000  Uiso   1.00
O350   O     0.44903   0.61145   0.09593   0.00000  Uiso   1.00
C351   C     0.75420   0.50000   0.24998   0.00000  Uiso   1.00
C352   C     0.97848   0.50157   0.29056   0.00000  Uiso   1.00
C353   C     0.97814   0.49827   0.20945   0.00000  Uiso   1.00
C354   C     0.68858   0.50012   0.29058   0.00000  Uiso   1.00
C355   C     0.81402   0.53631   0.04665   0.00000  Uiso   1.00
C356   C     0.81399   0.46311   0.45308   0.00000  Uiso   1.00
C357   C     0.85111   0.53650   0.45364   0.00000  Uiso   1.00
C358   C     0.85102   0.46284   0.04662   0.00000  Uiso   1.00
C359   C     0.81292   0.53646   0.09257   0.00000  Uiso   1.00
C360   C     0.81293   0.46301   0.40712   0.00000  Uiso   1.00
C361   C     0.85260   0.53674   0.40773   0.00000  Uiso   1.00
C362   C     0.91247   0.50000   0.25001   0.00000  Uiso   1.00
C363   C     0.85246   0.46265   0.09257   0.00000  Uiso   1.00
C364   C     0.83294   0.49971   0.11626   0.00000  Uiso   1.00
C365   C     0.83291   0.49993   0.38374   0.00000  Uiso   1.00
C366   C     0.83248   0.49961   0.02396   0.00000  Uiso   1.00
C367   C     0.83248   0.49975   0.47603   0.00000  Uiso   1.00
C368   C     0.95718   0.49997   0.25000   0.00000  Uiso   1.00
C369   C     0.70952   0.49998   0.24999   0.00000  Uiso   1.00
C370   C     0.78857   0.57403   0.11429   0.00000  Uiso   1.00
C371   C     0.78900   0.42505   0.38508   0.00000  Uiso   1.00
C372   C     0.87688   0.57460   0.38640   0.00000  Uiso   1.00
C373   C     0.83326   0.49994   0.16485   0.00000  Uiso   1.00
C374   C     0.87622   0.42433   0.11422   0.00000  Uiso   1.00
C375   C     0.71200   0.50218   0.16757   0.00000  Uiso   1.00
C376   C     0.95473   0.50579   0.33227   0.00000  Uiso   1.00
C377   C     0.95402   0.49389   0.16775   0.00000  Uiso   1.00
C378   C     0.71271   0.49752   0.33240   0.00000  Uiso   1.00
C379   C     0.83324   0.50000   0.33515   0.00000  Uiso   1.00
C380   C     0.80518   0.35814   0.22553   0.00000  Uiso   1.00
C381   C     0.86159   0.64191   0.27432   0.00000  Uiso   1.00
C382   C     0.86149   0.35818   0.27447   0.00000  Uiso   1.00
C383   C     0.80508   0.64187   0.22568   0.00000  Uiso   1.00
C384   C     0.68823   0.49973   0.20941   0.00000  Uiso   1.00
Cu385  Cu    0.83333   0.54689   0.25000   0.00000  Uiso   1.00
Cu386  Cu    0.83333   0.45311   0.25000   0.00000  Uiso   1.00
H387   H     0.78267   0.37683   0.20587   0.00000  Uiso   1.00
H388   H     0.77627   0.42968   0.35239   0.00000  Uiso   1.00
H389   H     0.89040   0.56957   0.35429   0.00000  Uiso   1.00
H390   H     0.88931   0.42869   0.14678   0.00000  Uiso   1.00
H391   H     0.74161   0.48470   0.16485   0.00000  Uiso   1.00
H392   H     0.92520   0.48829   0.33567   0.00000  Uiso   1.00
H393   H     0.92448   0.51140   0.16429   0.00000  Uiso   1.00
H394   H     0.74232   0.51501   0.33519   0.00000  Uiso   1.00
H395   H     0.88435   0.62331   0.29363   0.00000  Uiso   1.00
H396   H     0.88400   0.37690   0.29412   0.00000  Uiso   1.00
H397   H     0.78231   0.62324   0.20637   0.00000  Uiso   1.00
H398   H     0.79900   0.56400   0.02812   0.00000  Uiso   1.00
H399   H     0.79900   0.43538   0.47144   0.00000  Uiso   1.00
H400   H     0.86600   0.56413   0.47240   0.00000  Uiso   1.00
H401   H     0.86577   0.43509   0.02804   0.00000  Uiso   1.00
H402   H     0.77519   0.56866   0.14643   0.00000  Uiso   1.00
N403   N     0.83333   0.61736   0.25000   0.00000  Uiso   1.00
N404   N     0.83333   0.38264   0.25000   0.00000  Uiso   1.00
O405   O     0.77321   0.53958   0.24999   0.00000  Uiso   1.00
O406   O     0.78242   0.38794   0.40379   0.00000  Uiso   1.00
O407   O     0.88286   0.61193   0.40507   0.00000  Uiso   1.00
O408   O     0.88219   0.38716   0.09533   0.00000  Uiso   1.00
O409   O     0.69963   0.52538   0.13645   0.00000  Uiso   1.00
O410   O     0.96704   0.53042   0.36246   0.00000  Uiso   1.00
O411   O     0.96606   0.46909   0.13766   0.00000  Uiso   1.00
O412   O     0.70063   0.47416   0.36343   0.00000  Uiso   1.00
O413   O     0.89345   0.46042   0.25000   0.00000  Uiso   1.00
O414   O     0.89345   0.53958   0.25000   0.00000  Uiso   1.00
O415   O     0.77321   0.46042   0.24999   0.00000  Uiso   1.00
O416   O     0.83333   0.53959   0.18573   0.00000  Uiso   1.00
O417   O     0.83334   0.46041   0.31427   0.00000  Uiso   1.00
O418   O     0.83334   0.53959   0.31427   0.00000  Uiso   1.00
O419   O     0.83333   0.46041   0.18573   0.00000  Uiso   1.00
O420   O     0.78236   0.61145   0.09593   0.00000  Uiso   1.00
C421   C     0.08754   0.83333   0.24998   0.00000  Uiso   1.00
C422   C     0.31182   0.83491   0.29056   0.00000  Uiso   1.00
C423   C     0.31147   0.83161   0.20945   0.00000  Uiso   1.00
C424   C     0.02191   0.83346   0.29058   0.00000  Uiso   1.00
C425   C     0.14735   0.86964   0.04665   0.00000  Uiso   1.00
C426   C     0.14732   0.79644   0.45308   0.00000  Uiso   1.00
C427   C     0.18444   0.86983   0.45364   0.00000  Uiso   1.00
C428   C     0.18435   0.79617   0.04662   0.00000  Uiso   1.00
C429   C     0.14626   0.86979   0.09257   0.00000  Uiso   1.00
C430   C     0.14627   0.79635   0.40712   0.00000  Uiso   1.00
C431   C     0.18593   0.87007   0.40773   0.00000  Uiso   1.00
C432   C     0.24581   0.83333   0.25001   0.00000  Uiso   1.00
C433   C     0.18580   0.79598   0.09257   0.00000  Uiso   1.00
C434   C     0.16628   0.83304   0.11626   0.00000  Uiso   1.00
C435   C     0.16625   0.83326   0.38374   0.00000  Uiso   1.00
C436   C     0.16581   0.83294   0.02396   0.00000  Uiso   1.00
C437   C     0.16581   0.83308   0.47603   0.00000  Uiso   1.00
C438   C     0.29051   0.83331   0.25000   0.00000  Uiso   1.00
C439   C     0.04286   0.83331   0.24999   0.00000  Uiso   1.00
C440   C     0.12191   0.90737   0.11429   0.00000  Uiso   1.00
C441   C     0.12233   0.75838   0.38508   0.00000  Uiso   1.00
C442   C     0.21022   0.90793   0.38640   0.00000  Uiso   1.00
C443   C     0.16659   0.83327   0.16485   0.00000  Uiso   1.00
C444   C     0.20955   0.75766   0.11422   0.00000  Uiso   1.00
C445   C     0.04534   0.83551   0.16757   0.00000  Uiso   1.00
C446   C     0.28806   0.83912   0.33227   0.00000  Uiso   1.00
C447   C     0.28736   0.82722   0.16775   0.00000  Uiso   1.00
C448   C     0.04604   0.83085   0.33240   0.00000  Uiso   1.00
C449   C     0.16657   0.83333   0.33515   0.00000  Uiso   1.00
C450   C     0.13851   0.69147   0.22553   0.00000  Uiso   1.00
C451   C     0.19492   0.97524   0.27432   0.00000  Uiso   1.00
C452   C     0.19482   0.69151   0.27447   0.00000  Uiso   1.00
C453   C     0.13841   0.97520   0.22568   0.00000  Uiso   1.00
C454   C     0.02156   0.83306   0.20941   0.00000  Uiso   1.00
Cu455  Cu    0.16667   0.88022   0.25000   0.00000  Uiso   1.00
Cu456  Cu    0.16667   0.78645   0.25000   0.00000  Uiso   1.00
H457   H     0.11600   0.71017   0.20587   0.00000  Uiso   1.00
H458   H     0.10960   0.76301   0.35239   0.00000  Uiso   1.00
H459   H     0.22373   0.90291   0.35429   0.00000  Uiso   1.00
H460   H     0.22265   0.76202   0.14678   0.00000  Uiso   1.00
H461   H     0.07494   0.81803   0.16485   0.00000  Uiso   1.00
H462   H     0.25853   0.82162   0.33567   0.00000  Uiso   1.00
H463   H     0.25782   0.84474   0.16429   0.00000  Uiso   1.00
H464   H     0.07565   0.84835   0.33519   0.00000  Uiso   1.00
H465   H     0.21769   0.95664   0.29363   0.00000  Uiso   1.00
H466   H     0.21734   0.71024   0.29412   0.00000  Uiso   1.00
H467   H     0.11565   0.95657   0.20637   0.00000  Uiso   1.00
H468   H     0.13233   0.89733   0.02812   0.00000  Uiso   1.00
H469   H     0.13234   0.76871   0.47144   0.00000  Uiso   1.00
H470   H     0.19933   0.89747   0.47240   0.00000  Uiso   1.00
H471   H     0.19911   0.76842   0.02804   0.00000  Uiso   1.00
H472   H     0.10852   0.90199   0.14643   0.00000  Uiso   1.00
N473   N     0.16667   0.95069   0.25000   0.00000  Uiso   1.00
N474   N     0.16667   0.71598   0.25000   0.00000  Uiso   1.00
O475   O     0.10655   0.87291   0.24999   0.00000  Uiso   1.00
O476   O     0.11575   0.72127   0.40379   0.00000  Uiso   1.00
O477   O     0.21619   0.94526   0.40507   0.00000  Uiso   1.00
O478   O     0.21552   0.72049   0.09533   0.00000  Uiso   1.00
O479   O     0.03297   0.85872   0.13645   0.00000  Uiso   1.00
O480   O     0.30037   0.86376   0.36246   0.00000  Uiso   1.00
O481   O     0.29939   0.80242   0.13766   0.00000  Uiso   1.00
O482   O     0.03396   0.80749   0.36343   0.00000  Uiso   1.00
O483   O     0.22679   0.79375   0.25000   0.00000  Uiso   1.00
O484   O     0.22679   0.87291   0.25000   0.00000  Uiso   1.00
O485   O     0.10655   0.79375   0.24999   0.00000  Uiso   1.00
O486   O     0.16666   0.87293   0.18573   0.00000  Uiso   1.00
O487   O     0.16667   0.79374   0.31427   0.00000  Uiso   1.00
O488   O     0.16667   0.87293   0.31427   0.00000  Uiso   1.00
O489   O     0.16666   0.79374   0.18573   0.00000  Uiso   1.00
O490   O     0.11570   0.94479   0.09593   0.00000  Uiso   1.00
C491   C     0.42087   0.83333   0.24998   0.00000  Uiso   1.00
C492   C     0.64515   0.83491   0.29056   0.00000  Uiso   1.00
C493   C     0.64480   0.83161   0.20945   0.00000  Uiso   1.00
C494   C     0.35524   0.83346   0.29058   0.00000  Uiso   1.00
C495   C     0.48069   0.86964   0.04665   0.00000  Uiso   1.00
C496   C     0.48066   0.79644   0.45308   0.00000  Uiso   1.00
C497   C     0.51778   0.86983   0.45364   0.00000  Uiso   1.00
C498   C     0.51768   0.79617   0.04662   0.00000  Uiso   1.00
C499   C     0.47959   0.86979   0.09257   0.00000  Uiso   1.00
C500   C     0.47960   0.79635   0.40712   0.00000  Uiso   1.00
C501   C     0.51926   0.87007   0.40773   0.00000  Uiso   1.00
C502   C     0.57914   0.83333   0.25001   0.00000  Uiso   1.00
C503   C     0.51913   0.79598   0.09257   0.00000  Uiso   1.00
C504   C     0.49961   0.83304   0.11626   0.00000  Uiso   1.00
C505   C     0.49958   0.83326   0.38374   0.00000  Uiso   1.00
C506   C     0.49914   0.83294   0.02396   0.00000  Uiso   1.00
C507   C     0.49915   0.83308   0.47603   0.00000  Uiso   1.00
C508   C     0.62384   0.83331   0.25000   0.00000  Uiso   1.00
C509   C     0.37619   0.83331   0.24999   0.00000  Uiso   1.00
C510   C     0.45524   0.90737   0.11429   0.00000  Uiso   1.00
C511   C     0.45566   0.75838   0.38508   0.00000  Uiso   1.00
C512   C     0.54355   0.90793   0.38640   0.00000  Uiso   1.00
C513   C     0.49992   0.83327   0.16485   0.00000  Uiso   1.00
C514   C     0.54289   0.75766   0.11422   0.00000  Uiso   1.00
C515   C     0.37867   0.83551   0.16757   0.00000  Uiso   1.00
C516   C     0.62139   0.83912   0.33227   0.00000  Uiso   1.00
C517   C     0.62069   0.82722   0.16775   0.00000  Uiso   1.00
C518   C     0.37938   0.83085   0.33240   0.00000  Uiso   1.00
C519   C     0.49990   0.83333   0.33515   0.00000  Uiso   1.00
C520   C     0.47185   0.69147   0.22553   0.00000  Uiso   1.00
C521   C     0.52825   0.97524   0.27432   0.00000  Uiso   1.00
C522   C     0.52815   0.69151   0.27447   0.00000  Uiso   1.00
C523   C     0.47175   0.97520   0.22568   0.00000  Uiso   1.00
C524   C     0.35490   0.83306   0.20941   0.00000  Uiso   1.00
Cu525  Cu    0.50000   0.88022   0.25000   0.00000  Uiso   1.00
Cu526  Cu    0.50000   0.78645   0.25000   0.00000  Uiso   1.00
H527   H     0.44933   0.71017   0.20587   0.00000  Uiso   1.00
H528   H     0.44294   0.76301   0.35239   0.00000  Uiso   1.00
H529   H     0.55707   0.90291   0.35429   0.00000  Uiso   1.00
H530   H     0.55598   0.76202   0.14678   0.00000  Uiso   1.00
H531   H     0.40828   0.81803   0.16485   0.00000  Uiso   1.00
H532   H     0.59186   0.82162   0.33567   0.00000  Uiso   1.00
H533   H     0.59115   0.84474   0.16429   0.00000  Uiso   1.00
H534   H     0.40899   0.84835   0.33519   0.00000  Uiso   1.00
H535   H     0.55102   0.95664   0.29363   0.00000  Uiso   1.00
H536   H     0.55067   0.71024   0.29412   0.00000  Uiso   1.00
H537   H     0.44898   0.95657   0.20637   0.00000  Uiso   1.00
H538   H     0.46566   0.89733   0.02812   0.00000  Uiso   1.00
H539   H     0.46567   0.76871   0.47144   0.00000  Uiso   1.00
H540   H     0.53266   0.89747   0.47240   0.00000  Uiso   1.00
H541   H     0.53244   0.76842   0.02804   0.00000  Uiso   1.00
H542   H     0.44185   0.90199   0.14643   0.00000  Uiso   1.00
N543   N     0.50000   0.95069   0.25000   0.00000  Uiso   1.00
N544   N     0.50000   0.71598   0.25000   0.00000  Uiso   1.00
O545   O     0.43988   0.87291   0.24999   0.00000  Uiso   1.00
O546   O     0.44909   0.72127   0.40379   0.00000  Uiso   1.00
O547   O     0.54953   0.94526   0.40507   0.00000  Uiso   1.00
O548   O     0.54885   0.72049   0.09533   0.00000  Uiso   1.00
O549   O     0.36630   0.85872   0.13645   0.00000  Uiso   1.00
O550   O     0.63371   0.86376   0.36246   0.00000  Uiso   1.00
O551   O     0.63272   0.80242   0.13766   0.00000  Uiso   1.00
O552   O     0.36729   0.80749   0.36343   0.00000  Uiso   1.00
O553   O     0.56012   0.79375   0.25000   0.00000  Uiso   1.00
O554   O     0.56012   0.87291   0.25000   0.00000  Uiso   1.00
O555   O     0.43988   0.79375   0.24999   0.00000  Uiso   1.00
O556   O     0.50000   0.87293   0.18573   0.00000  Uiso   1.00
O557   O     0.50000   0.79374   0.31427   0.00000  Uiso   1.00
O558   O     0.50000   0.87293   0.31427   0.00000  Uiso   1.00
O559   O     0.50000   0.79374   0.18573   0.00000  Uiso   1.00
O560   O     0.44903   0.94479   0.09593   0.00000  Uiso   1.00
C561   C     0.75420   0.83333   0.24998   0.00000  Uiso   1.00
C562   C     0.97848   0.83491   0.29056   0.00000  Uiso   1.00
C563   C     0.97814   0.83161   0.20945   0.00000  Uiso   1.00
C564   C     0.68858   0.83346   0.29058   0.00000  Uiso   1.00
C565   C     0.81402   0.86964   0.04665   0.00000  Uiso   1.00
C566   C     0.81399   0.79644   0.45308   0.00000  Uiso   1.00
C567   C     0.85111   0.86983   0.45364   0.00000  Uiso   1.00
C568   C     0.85102   0.79617   0.04662   0.00000  Uiso   1.00
C569   C     0.81292   0.86979   0.09257   0.00000  Uiso   1.00
C570   C     0.81293   0.79635   0.40712   0.00000  Uiso   1.00
C571   C     0.85260   0.87007   0.40773   0.00000  Uiso   1.00
C572   C     0.91247   0.83333   0.25001   0.00000  Uiso   1.00
C573   C     0.85246   0.79598   0.09257   0.00000  Uiso   1.00
C574   C     0.83294   0.83304   0.11626   0.00000  Uiso   1.00
C575   C     0.83291   0.83326   0.38374   0.00000  Uiso   1.00
C576   C     0.83248   0.83294   0.02396   0.00000  Uiso   1.00
C577   C     0.83248   0.83308   0.47603   0.00000  Uiso   1.00
C578   C     0.95718   0.83331   0.25000   0.00000  Uiso   1.00
C579   C     0.70952   0.83331   0.24999   0.00000  Uiso   1.00
C580   C     0.78857   0.90737   0.11429   0.00000  Uiso   1.00
C581   C     0.78900   0.75838   0.38508   0.00000  Uiso   1.00
C582   C     0.87688   0.90793   0.38640   0.00000  Uiso   1.00
C583   C     0.83326   0.83327   0.16485   0.00000  Uiso   1.00
C584   C     0.87622   0.75766   0.11422   0.00000  Uiso   1.00
C585   C     0.71200   0.83551   0.16757   0.00000  Uiso   1.00
C586   C     0.95473   0.83912   0.33227   0.00000  Uiso   1.00
C587   C     0.95402   0.82722   0.16775   0.00000  Uiso   1.00
C588   C     0.71271   0.83085   0.33240   0.00000  Uiso   1.00
C589   C     0.83324   0.83333   0.33515   0.00000  Uiso   1.00
C590   C     0.80518   0.69147   0.22553   0.00000  Uiso   1.00
C591   C     0.86159   0.97524   0.27432   0.00000  Uiso   1.00
C592   C     0.86149   0.69151   0.27447   0.00000  Uiso   1.00
C593   C     0.80508   0.97520   0.22568   0.00000  Uiso   1.00
C594   C     0.68823   0.83306   0.20941   0.00000  Uiso   1.00
Cu595  Cu    0.83333   0.88022   0.25000   0.00000  Uiso   1.00
Cu596  Cu    0.83333   0.78645   0.25000   0.00000  Uiso   1.00
H597   H     0.78267   0.71017   0.20587   0.00000  Uiso   1.00
H598   H     0.77627   0.76301   0.35239   0.00000  Uiso   1.00
H599   H     0.89040   0.90291   0.35429   0.00000  Uiso   1.00
H600   H     0.88931   0.76202   0.14678   0.00000  Uiso   1.00
H601   H     0.74161   0.81803   0.16485   0.00000  Uiso   1.00
H602   H     0.92520   0.82162   0.33567   0.00000  Uiso   1.00
H603   H     0.92448   0.84474   0.16429   0.00000  Uiso   1.00
H604   H     0.74232   0.84835   0.33519   0.00000  Uiso   1.00
H605   H     0.88435   0.95664   0.29363   0.00000  Uiso   1.00
H606   H     0.88400   0.71024   0.29412   0.00000  Uiso   1.00
H607   H     0.78231   0.95657   0.20637   0.00000  Uiso   1.00
H608   H     0.79900   0.89733   0.02812   0.00000  Uiso   1.00
H609   H     0.79900   0.76871   0.47144   0.00000  Uiso   1.00
H610   H     0.86600   0.89747   0.47240   0.00000  Uiso   1.00
H611   H     0.86577   0.76842   0.02804   0.00000  Uiso   1.00
H612   H     0.77519   0.90199   0.14643   0.00000  Uiso   1.00
N613   N     0.83333   0.95069   0.25000   0.00000  Uiso   1.00
N614   N     0.83333   0.71598   0.25000   0.00000  Uiso   1.00
O615   O     0.77321   0.87291   0.24999   0.00000  Uiso   1.00
O616   O     0.78242   0.72127   0.40379   0.00000  Uiso   1.00
O617   O     0.88286   0.94526   0.40507   0.00000  Uiso   1.00
O618   O     0.88219   0.72049   0.09533   0.00000  Uiso   1.00
O619   O     0.69963   0.85872   0.13645   0.00000  Uiso   1.00
O620   O     0.96704   0.86376   0.36246   0.00000  Uiso   1.00
O621   O     0.96606   0.80242   0.13766   0.00000  Uiso   1.00
O622   O     0.70063   0.80749   0.36343   0.00000  Uiso   1.00
O623   O     0.89345   0.79375   0.25000   0.00000  Uiso   1.00
O624   O     0.89345   0.87291   0.25000   0.00000  Uiso   1.00
O625   O     0.77321   0.79375   0.24999   0.00000  Uiso   1.00
O626   O     0.83333   0.87293   0.18573   0.00000  Uiso   1.00
O627   O     0.83334   0.79374   0.31427   0.00000  Uiso   1.00
O628   O     0.83334   0.87293   0.31427   0.00000  Uiso   1.00
O629   O     0.83333   0.79374   0.18573   0.00000  Uiso   1.00
O630   O     0.78236   0.94479   0.09593   0.00000  Uiso   1.00
C631   C     0.08754   0.16666   0.74998   0.00000  Uiso   1.00
C632   C     0.31182   0.16824   0.79056   0.00000  Uiso   1.00
C633   C     0.31147   0.16494   0.70945   0.00000  Uiso   1.00
C634   C     0.02191   0.16679   0.79058   0.00000  Uiso   1.00
C635   C     0.14735   0.20298   0.54665   0.00000  Uiso   1.00
C636   C     0.14732   0.12978   0.95308   0.00000  Uiso   1.00
C637   C     0.18444   0.20316   0.95364   0.00000  Uiso   1.00
C638   C     0.18435   0.12951   0.54662   0.00000  Uiso   1.00
C639   C     0.14626   0.20312   0.59257   0.00000  Uiso   1.00
C640   C     0.14627   0.12968   0.90712   0.00000  Uiso   1.00
C641   C     0.18593   0.20341   0.90773   0.00000  Uiso   1.00
C642   C     0.24581   0.16666   0.75001   0.00000  Uiso   1.00
C643   C     0.18580   0.12932   0.59257   0.00000  Uiso   1.00
C644   C     0.16628   0.16637   0.61626   0.00000  Uiso   1.00
C645   C     0.16625   0.16659   0.88374   0.00000  Uiso   1.00
C646   C     0.16581   0.16627   0.52396   0.00000  Uiso   1.00
C647   C     0.16581   0.16641   0.97603   0.00000  Uiso   1.00
C648   C     0.29051   0.16664   0.75000   0.00000  Uiso   1.00
C649   C     0.04286   0.16664   0.74999   0.00000  Uiso   1.00
C650   C     0.12191   0.24070   0.61429   0.00000  Uiso   1.00
C651   C     0.12233   0.09171   0.88508   0.00000  Uiso   1.00
C652   C     0.21022   0.24127   0.88640   0.00000  Uiso   1.00
C653   C     0.16659   0.16660   0.66485   0.00000  Uiso   1.00
C654   C     0.20955   0.09099   0.61422   0.00000  Uiso   1.00
C655   C     0.04534   0.16885   0.66757   0.00000  Uiso   1.00
C656   C     0.28806   0.17246   0.83227   0.00000  Uiso   1.00
C657   C     0.28736   0.16055   0.66775   0.00000  Uiso   1.00
C658   C     0.04604   0.16418   0.83240   0.00000  Uiso   1.00
C659   C     0.16657   0.16666   0.83515   0.00000  Uiso   1.00
C660   C     0.13851   0.02481   0.72553   0.00000  Uiso   1.00
C661   C     0.19492   0.30858   0.77432   0.00000  Uiso   1.00
C662   C     0.19482   0.02485   0.77447   0.00000  Uiso   1.00
C663   C     0.13841   0.30854   0.72568   0.00000  Uiso   1.00
C664   C     0.02156   0.16639   0.70941   0.00000  Uiso   1.00
Cu665  Cu    0.16667   0.21355   0.75000   0.00000  Uiso   1.00
Cu666  Cu    0.16667   0.11978   0.75000   0.00000  Uiso   1.00
H667   H     0.11600   0.04350   0.70587   0.00000  Uiso   1.00
H668   H     0.10960   0.09634   0.85239   0.00000  Uiso   1.00
H669   H     0.22373   0.23624   0.85429   0.00000  Uiso   1.00
H670   H     0.22265   0.09536   0.64678   0.00000  Uiso   1.00
H671   H     0.07494   0.15137   0.66485   0.00000  Uiso   1.00
H672   H     0.25853   0.15496   0.83567   0.00000  Uiso   1.00
H673   H     0.25782   0.17807   0.66429   0.00000  Uiso   1.00
H674   H     0.07565   0.18168   0.83519   0.00000  Uiso   1.00
H675   H     0.21769   0.28998   0.79363   0.00000  Uiso   1.00
H676   H     0.21734   0.04357   0.79412   0.00000  Uiso   1.00
H677   H     0.11565   0.28991   0.70637   0.00000  Uiso   1.00
H678   H     0.13233   0.23066   0.52812   0.00000  Uiso   1.00
H679   H     0.13234   0.10204   0.97144   0.00000  Uiso   1.00
H680   H     0.19933   0.23080   0.97240   0.00000  Uiso   1.00
H681   H     0.19911   0.10176   0.52804   0.00000  Uiso   1.00
H682   H     0.10852   0.23532   0.64643   0.00000  Uiso   1.00
N683   N     0.16667   0.28402   0.75000   0.00000  Uiso   1.00
N684   N     0.16667   0.04931   0.75000   0.00000  Uiso   1.00
O685   O     0.10655   0.20625   0.74999   0.00000  Uiso   1.00
O686   O     0.11575   0.05461   0.90379   0.00000  Uiso   1.00
O687   O     0.21619   0.27859   0.90507   0.00000  Uiso   1.00
O688   O     0.21552   0.05382   0.59533   0.00000  Uiso   1.00
O689   O     0.03297   0.19205   0.63645   0.00000  Uiso   1.00
O690   O     0.30037   0.19709   0.86246   0.00000  Uiso   1.00
O691   O     0.29939   0.13576   0.63766   0.00000  Uiso   1.00
O692   O     0.03396   0.14082   0.86343   0.00000  Uiso   1.00
O693   O     0.22679   0.12709   0.75000   0.00000  Uiso   1.00
O694   O     0.22679   0.20625   0.75000   0.00000  Uiso   1.00
O695   O     0.10655   0.12709   0.74999   0.00000  Uiso   1.00
O696   O     0.16666   0.20626   0.68573   0.00000  Uiso   1.00
O697   O     0.16667   0.12707   0.81427   0.00000  Uiso   1.00
O698   O     0.16667   0.20626   0.81427   0.00000  Uiso   1.00
O699   O     0.16666   0.12707   0.68573   0.00000  Uiso   1.00
O700   O     0.11570   0.27812   0.59593   0.00000  Uiso   1.00
C701   C     0.42087   0.16666   0.74998   0.00000  Uiso   1.00
C702   C     0.64515   0.16824   0.79056   0.00000  Uiso   1.00
C703   C     0.64480   0.16494   0.70945   0.00000  Uiso   1.00
C704   C     0.35524   0.16679   0.79058   0.00000  Uiso   1.00
C705   C     0.48069   0.20298   0.54665   0.00000  Uiso   1.00
C706   C     0.48066   0.12978   0.95308   0.00000  Uiso   1.00
C707   C     0.51778   0.20316   0.95364   0.00000  Uiso   1.00
C708   C     0.51768   0.12951   0.54662   0.00000  Uiso   1.00
C709   C     0.47959   0.20312   0.59257   0.00000  Uiso   1.00
C710   C     0.47960   0.12968   0.90712   0.00000  Uiso   1.00
C711   C     0.51926   0.20341   0.90773   0.00000  Uiso   1.00
C712   C     0.57914   0.16666   0.75001   0.00000  Uiso   1.00
C713   C     0.51913   0.12932   0.59257   0.00000  Uiso   1.00
C714   C     0.49961   0.16637   0.61626   0.00000  Uiso   1.00
C715   C     0.49958   0.16659   0.88374   0.00000  Uiso   1.00
C716   C     0.49914   0.16627   0.52396   0.00000  Uiso   1.00
C717   C     0.49915   0.16641   0.97603   0.00000  Uiso   1.00
C718   C     0.62384   0.16664   0.75000   0.00000  Uiso   1.00
C719   C     0.37619   0.16664   0.74999   0.00000  Uiso   1.00
C720   C     0.45524   0.24070   0.61429   0.00000  Uiso   1.00
C721   C     0.45566   0.09171   0.88508   0.00000  Uiso   1.00
C722   C     0.54355   0.24127   0.88640   0.00000  Uiso   1.00
C723   C     0.49992   0.16660   0.66485   0.00000  Uiso   1.00
C724   C     0.54289   0.09099   0.61422   0.00000  Uiso   1.00
C725   C     0.37867   0.16885   0.66757   0.00000  Uiso   1.00
C726   C     0.62139   0.17246   0.83227   0.00000  Uiso   1.00
C727   C     0.62069   0.16055   0.66775   0.00000  Uiso   1.00
C728   C     0.37938   0.16418   0.83240   0.00000  Uiso   1.00
C729   C     0.49990   0.16666   0.83515   0.00000  Uiso   1.00
C730   C     0.47185   0.02481   0.72553   0.00000  Uiso   1.00
C731   C     0.52825   0.30858   0.77432   0.00000  Uiso   1.00
C732   C     0.52815   0.02485   0.77447   0.00000  Uiso   1.00
C733   C     0.47175   0.30854   0.72568   0.00000  Uiso   1.00
C734   C     0.35490   0.16639   0.70941   0.00000  Uiso   1.00
Cu735  Cu    0.50000   0.21355   0.75000   0.00000  Uiso   1.00
Cu736  Cu    0.50000   0.11978   0.75000   0.00000  Uiso   1.00
H737   H     0.44933   0.04350   0.70587   0.00000  Uiso   1.00
H738   H     0.44294   0.09634   0.85239   0.00000  Uiso   1.00
H739   H     0.55707   0.23624   0.85429   0.00000  Uiso   1.00
H740   H     0.55598   0.09536   0.64678   0.00000  Uiso   1.00
H741   H     0.40828   0.15137   0.66485   0.00000  Uiso   1.00
H742   H     0.59186   0.15496   0.83567   0.00000  Uiso   1.00
H743   H     0.59115   0.17807   0.66429   0.00000  Uiso   1.00
H744   H     0.40899   0.18168   0.83519   0.00000  Uiso   1.00
H745   H     0.55102   0.28998   0.79363   0.00000  Uiso   1.00
H746   H     0.55067   0.04357   0.79412   0.00000  Uiso   1.00
H747   H     0.44898   0.28991   0.70637   0.00000  Uiso   1.00
H748   H     0.46566   0.23066   0.52812   0.00000  Uiso   1.00
H749   H     0.46567   0.10204   0.97144   0.00000  Uiso   1.00
H750   H     0.53266   0.23080   0.97240   0.00000  Uiso   1.00
H751   H     0.53244   0.10176   0.52804   0.00000  Uiso   1.00
H752   H     0.44185   0.23532   0.64643   0.00000  Uiso   1.00
N753   N     0.50000   0.28402   0.75000   0.00000  Uiso   1.00
N754   N     0.50000   0.04931   0.75000   0.00000  Uiso   1.00
O755   O     0.43988   0.20625   0.74999   0.00000  Uiso   1.00
O756   O     0.44909   0.05461   0.90379   0.00000  Uiso   1.00
O757   O     0.54953   0.27859   0.90507   0.00000  Uiso   1.00
O758   O     0.54885   0.05382   0.59533   0.00000  Uiso   1.00
O759   O     0.36630   0.19205   0.63645   0.00000  Uiso   1.00
O760   O     0.63371   0.19709   0.86246   0.00000  Uiso   1.00
O761   O     0.63272   0.13576   0.63766   0.00000  Uiso   1.00
O762   O     0.36729   0.14082   0.86343   0.00000  Uiso   1.00
O763   O     0.56012   0.12709   0.75000   0.00000  Uiso   1.00
O764   O     0.56012   0.20625   0.75000   0.00000  Uiso   1.00
O765   O     0.43988   0.12709   0.74999   0.00000  Uiso   1.00
O766   O     0.50000   0.20626   0.68573   0.00000  Uiso   1.00
O767   O     0.50000   0.12707   0.81427   0.00000  Uiso   1.00
O768   O     0.50000   0.20626   0.81427   0.00000  Uiso   1.00
O769   O     0.50000   0.12707   0.68573   0.00000  Uiso   1.00
O770   O     0.44903   0.27812   0.59593   0.00000  Uiso   1.00
C771   C     0.75420   0.16666   0.74998   0.00000  Uiso   1.00
C772   C     0.97848   0.16824   0.79056   0.00000  Uiso   1.00
C773   C     0.97814   0.16494   0.70945   0.00000  Uiso   1.00
C774   C     0.68858   0.16679   0.79058   0.00000  Uiso   1.00
C775   C     0.81402   0.20298   0.54665   0.00000  Uiso   1.00
C776   C     0.81399   0.12978   0.95308   0.00000  Uiso   1.00
C777   C     0.85111   0.20316   0.95364   0.00000  Uiso   1.00
C778   C     0.85102   0.12951   0.54662   0.00000  Uiso   1.00
C779   C     0.81292   0.20312   0.59257   0.00000  Uiso   1.00
C780   C     0.81293   0.12968   0.90712   0.00000  Uiso   1.00
C781   C     0.85260   0.20341   0.90773   0.00000  Uiso   1.00
C782   C     0.91247   0.16666   0.75001   0.00000  Uiso   1.00
C783   C     0.85246   0.12932   0.59257   0.00000  Uiso   1.00
C784   C     0.83294   0.16637   0.61626   0.00000  Uiso   1.00
C785   C     0.83291   0.16659   0.88374   0.00000  Uiso   1.00
C786   C     0.83248   0.16627   0.52396   0.00000  Uiso   1.00
C787   C     0.83248   0.16641   0.97603   0.00000  Uiso   1.00
C788   C     0.95718   0.16664   0.75000   0.00000  Uiso   1.00
C789   C     0.70952   0.16664   0.74999   0.00000  Uiso   1.00
C790   C     0.78857   0.24070   0.61429   0.00000  Uiso   1.00
C791   C     0.78900   0.09171   0.88508   0.00000  Uiso   1.00
C792   C     0.87688   0.24127   0.88640   0.00000  Uiso   1.00
C793   C     0.83326   0.16660   0.66485   0.00000  Uiso   1.00
C794   C     0.87622   0.09099   0.61422   0.00000  Uiso   1.00
C795   C     0.71200   0.16885   0.66757   0.00000  Uiso   1.00
C796   C     0.95473   0.17246   0.83227   0.00000  Uiso   1.00
C797   C     0.95402   0.16055   0.66775   0.00000  Uiso   1.00
C798   C     0.71271   0.16418   0.83240   0.00000  Uiso   1.00
C799   C     0.83324   0.16666   0.83515   0.00000  Uiso   1.00
C800   C     0.80518   0.02481   0.72553   0.00000  Uiso   1.00
C801   C     0.86159   0.30858   0.77432   0.00000  Uiso   1.00
C802   C     0.86149   0.02485   0.77447   0.00000  Uiso   1.00
C803   C     0.80508   0.30854   0.72568   0.00000  Uiso   1.00
C804   C     0.68823   0.16639   0.70941   0.00000  Uiso   1.00
Cu805  Cu    0.83333   0.21355   0.75000   0.00000  Uiso   1.00
Cu806  Cu    0.83333   0.11978   0.75000   0.00000  Uiso   1.00
H807   H     0.78267   0.04350   0.70587   0.00000  Uiso   1.00
H808   H     0.77627   0.09634   0.85239   0.00000  Uiso   1.00
H809   H     0.89040   0.23624   0.85429   0.00000  Uiso   1.00
H810   H     0.88931   0.09536   0.64678   0.00000  Uiso   1.00
H811   H     0.74161   0.15137   0.66485   0.00000  Uiso   1.00
H812   H     0.92520   0.15496   0.83567   0.00000  Uiso   1.00
H813   H     0.92448   0.17807   0.66429   0.00000  Uiso   1.00
H814   H     0.74232   0.18168   0.83519   0.00000  Uiso   1.00
H815   H     0.88435   0.28998   0.79363   0.00000  Uiso   1.00
H816   H     0.88400   0.04357   0.79412   0.00000  Uiso   1.00
H817   H     0.78231   0.28991   0.70637   0.00000  Uiso   1.00
H818   H     0.79900   0.23066   0.52812   0.00000  Uiso   1.00
H819   H     0.79900   0.10204   0.97144   0.00000  Uiso   1.00
H820   H     0.86600   0.23080   0.97240   0.00000  Uiso   1.00
H821   H     0.86577   0.10176   0.52804   0.00000  Uiso   1.00
H822   H     0.77519   0.23532   0.64643   0.00000  Uiso   1.00
N823   N     0.83333   0.28402   0.75000   0.00000  Uiso   1.00
N824   N     0.83333   0.04931   0.75000   0.00000  Uiso   1.00
O825   O     0.77321   0.20625   0.74999   0.00000  Uiso   1.00
O826   O     0.78242   0.05461   0.90379   0.00000  Uiso   1.00
O827   O     0.88286   0.27859   0.90507   0.00000  Uiso   1.00
O828   O     0.88219   0.05382   0.59533   0.00000  Uiso   1.00
O829   O     0.69963   0.19205   0.63645   0.00000  Uiso   1.00
O830   O     0.96704   0.19709   0.86246   0.00000  Uiso   1.00
O831   O     0.96606   0.13576   0.63766   0.00000  Uiso   1.00
O832   O     0.70063   0.14082   0.86343   0.00000  Uiso   1.00
O833   O     0.89345   0.12709   0.75000   0.00000  Uiso   1.00
O834   O     0.89345   0.20625   0.75000   0.00000  Uiso   1.00
O835   O     0.77321   0.12709   0.74999   0.00000  Uiso   1.00
O836   O     0.83333   0.20626   0.68573   0.00000  Uiso   1.00
O837   O     0.83334   0.12707   0.81427   0.00000  Uiso   1.00
O838   O     0.83334   0.20626   0.81427   0.00000  Uiso   1.00
O839   O     0.83333   0.12707   0.68573   0.00000  Uiso   1.00
O840   O     0.78236   0.27812   0.59593   0.00000  Uiso   1.00
C841   C     0.08754   0.50000   0.74998   0.00000  Uiso   1.00
C842   C     0.31182   0.50157   0.79056   0.00000  Uiso   1.00
C843   C     0.31147   0.49827   0.70945   0.00000  Uiso   1.00
C844   C     0.02191   0.50012   0.79058   0.00000  Uiso   1.00
C845   C     0.14735   0.53631   0.54665   0.00000  Uiso   1.00
C846   C     0.14732   0.46311   0.95308   0.00000  Uiso   1.00
C847   C     0.18444   0.53650   0.95364   0.00000  Uiso   1.00
C848   C     0.18435   0.46284   0.54662   0.00000  Uiso   1.00
C849   C     0.14626   0.53646   0.59257   0.00000  Uiso   1.00
C850   C     0.14627   0.46301   0.90712   0.00000  Uiso   1.00
C851   C     0.18593   0.53674   0.90773   0.00000  Uiso   1.00
C852   C     0.24581   0.50000   0.75001   0.00000  Uiso   1.00
C853   C     0.18580   0.46265   0.59257   0.00000  Uiso   1.00
C854   C     0.16628   0.49971   0.61626   0.00000  Uiso   1.00
C855   C     0.16625   0.49993   0.88374   0.00000  Uiso   1.00
C856   C     0.16581   0.49961   0.52396   0.00000  Uiso   1.00
C857   C     0.16581   0.49975   0.97603   0.00000  Uiso   1.00
C858   C     0.29051   0.49997   0.75000   0.00000  Uiso   1.00
C859   C     0.04286   0.49998   0.74999   0.00000  Uiso   1.00
C860   C     0.12191   0.57403   0.61429   0.00000  Uiso   1.00
C861   C     0.12233   0.42505   0.88508   0.00000  Uiso   1.00
C862   C     0.21022   0.57460   0.88640   0.00000  Uiso   1.00
C863   C     0.16659   0.49994   0.66485   0.00000  Uiso   1.00
C864   C     0.20955   0.42433   0.61422   0.00000  Uiso   1.00
C865   C     0.04534   0.50218   0.66757   0.00000  Uiso   1.00
C866   C     0.28806   0.50579   0.83227   0.00000  Uiso   1.00
C867   C     0.28736   0.49389   0.66775   0.00000  Uiso   1.00
C868   C     0.04604   0.49752   0.83240   0.00000  Uiso   1.00
C869   C     0.16657   0.50000   0.83515   0.00000  Uiso   1.00
C870   C     0.13851   0.35814   0.72553   0.00000  Uiso   1.00
C871   C     0.19492   0.64191   0.77432   0.00000  Uiso   1.00
C872   C     0.19482   0.35818   0.77447   0.00000  Uiso   1.00
C873   C     0.13841   0.64187   0.72568   0.00000  Uiso   1.00
C874   C     0.02156   0.49973   0.70941   0.00000  Uiso   1.00
Cu875  Cu    0.16667   0.54689   0.75000   0.00000  Uiso   1.00
Cu876  Cu    0.16667   0.45311   0.75000   0.00000  Uiso   1.00
H877   H     0.11600   0.37683   0.70587   0.00000  Uiso   1.00
H878   H     0.10960   0.42968   0.85239   0.00000  Uiso   1.00
H879   H     0.22373   0.56957   0.85429   0.00000  Uiso   1.00
H880   H     0.22265   0.42869   0.64678   0.00000  Uiso   1.00
H881   H     0.07494   0.48470   0.66485   0.00000  Uiso   1.00
H882   H     0.25853   0.48829   0.83567   0.00000  Uiso   1.00
H883   H     0.25782   0.51140   0.66429   0.00000  Uiso   1.00
H884   H     0.07565   0.51501   0.83519   0.00000  Uiso   1.00
H885   H     0.21769   0.62331   0.79363   0.00000  Uiso   1.00
H886   H     0.21734   0.37690   0.79412   0.00000  Uiso   1.00
H887   H     0.11565   0.62324   0.70637   0.00000  Uiso   1.00
H888   H     0.13233   0.56400   0.52812   0.00000  Uiso   1.00
H889   H     0.13234   0.43538   0.97144   0.00000  Uiso   1.00
H890   H     0.19933   0.56413   0.97240   0.00000  Uiso   1.00
H891   H     0.19911   0.43509   0.52804   0.00000  Uiso   1.00
H892   H     0.10852   0.56866   0.64643   0.00000  Uiso   1.00
N893   N     0.16667   0.61736   0.75000   0.00000  Uiso   1.00
N894   N     0.16667   0.38264   0.75000   0.00000  Uiso   1.00
O895   O     0.10655   0.53958   0.74999   0.00000  Uiso   1.00
O896   O     0.11575   0.38794   0.90379   0.00000  Uiso   1.00
O897   O     0.21619   0.61193   0.90507   0.00000  Uiso   1.00
O898   O     0.21552   0.38716   0.59533   0.00000  Uiso   1.00
O899   O     0.03297   0.52538   0.63645   0.00000  Uiso   1.00
O900   O     0.30037   0.53042   0.86246   0.00000  Uiso   1.00
O901   O     0.29939   0.46909   0.63766   0.00000  Uiso   1.00
O902   O     0.03396   0.47416   0.86343   0.00000  Uiso   1.00
O903   O     0.22679   0.46042   0.75000   0.00000  Uiso   1.00
O904   O     0.22679   0.53958   0.75000   0.00000  Uiso   1.00
O905   O     0.10655   0.46042   0.74999   0.00000  Uiso   1.00
O906   O     0.16666   0.53959   0.68573   0.00000  Uiso   1.00
O907   O     0.16667   0.46041   0.81427   0.00000  Uiso   1.00
O908   O     0.16667   0.53959   0.81427   0.00000  Uiso   1.00
O909   O     0.16666   0.46041   0.68573   0.00000  Uiso   1.00
O910   O     0.11570   0.61145   0.59593   0.00000  Uiso   1.00
C911   C     0.42087   0.50000   0.74998   0.00000  Uiso   1.00
C912   C     0.64515   0.50157   0.79056   0.00000  Uiso   1.00
C913   C     0.64480   0.49827   0.70945   0.00000  Uiso   1.00
C914   C     0.35524   0.50012   0.79058   0.00000  Uiso   1.00
C915   C     0.48069   0.53631   0.54665   0.00000  Uiso   1.00
C916   C     0.48066   0.46311   0.95308   0.00000  Uiso   1.00
C917   C     0.51778   0.53650   0.95364   0.00000  Uiso   1.00
C918   C     0.51768   0.46284   0.54662   0.00000  Uiso   1.00
C919   C     0.47959   0.53646   0.59257   0.00000  Uiso   1.00
C920   C     0.47960   0.46301   0.90712   0.00000  Uiso   1.00
C921   C     0.51926   0.53674   0.90773   0.00000  Uiso   1.00
C922   C     0.57914   0.50000   0.75001   0.00000  Uiso   1.00
C923   C     0.51913   0.46265   0.59257   0.00000  Uiso   1.00
C924   C     0.49961   0.49971   0.61626   0.00000  Uiso   1.00
C925   C     0.49958   0.49993   0.88374   0.00000  Uiso   1.00
C926   C     0.49914   0.49961   0.52396   0.00000  Uiso   1.00
C927   C     0.49915   0.49975   0.97603   0.00000  Uiso   1.00
C928   C     0.62384   0.49997   0.75000   0.00000  Uiso   1.00
C929   C     0.37619   0.49998   0.74999   0.00000  Uiso   1.00
C930   C     0.45524   0.57403   0.61429   0.00000  Uiso   1.00
C931   C     0.45566   0.42505   0.88508   0.00000  Uiso   1.00
C932   C     0.54355   0.57460   0.88640   0.00000  Uiso   1.00
C933   C     0.49992   0.49994   0.66485   0.00000  Uiso   1.00
C934   C     0.54289   0.42433   0.61422   0.00000  Uiso   1.00
C935   C     0.37867   0.50218   0.66757   0.00000  Uiso   1.00
C936   C     0.62139   0.50579   0.83227   0.00000  Uiso   1.00
C937   C     0.62069   0.49389   0.66775   0.00000  Uiso   1.00
C938   C     0.37938   0.49752   0.83240   0.00000  Uiso   1.00
C939   C     0.49990   0.50000   0.83515   0.00000  Uiso   1.00
C940   C     0.47185   0.35814   0.72553   0.00000  Uiso   1.00
C941   C     0.52825   0.64191   0.77432   0.00000  Uiso   1.00
C942   C     0.52815   0.35818   0.77447   0.00000  Uiso   1.00
C943   C     0.47175   0.64187   0.72568   0.00000  Uiso   1.00
C944   C     0.35490   0.49973   0.70941   0.00000  Uiso   1.00
Cu945  Cu    0.50000   0.54689   0.75000   0.00000  Uiso   1.00
Cu946  Cu    0.50000   0.45311   0.75000   0.00000  Uiso   1.00
H947   H     0.44933   0.37683   0.70587   0.00000  Uiso   1.00
H948   H     0.44294   0.42968   0.85239   0.00000  Uiso   1.00
H949   H     0.55707   0.56957   0.85429   0.00000  Uiso   1.00
H950   H     0.55598   0.42869   0.64678   0.00000  Uiso   1.00
H951   H     0.40828   0.48470   0.66485   0.00000  Uiso   1.00
H952   H     0.59186   0.48829   0.83567   0.00000  Uiso   1.00
H953   H     0.59115   0.51140   0.66429   0.00000  Uiso   1.00
H954   H     0.40899   0.51501   0.83519   0.00000  Uiso   1.00
H955   H     0.55102   0.62331   0.79363   0.00000  Uiso   1.00
H956   H     0.55067   0.37690   0.79412   0.00000  Uiso   1.00
H957   H     0.44898   0.62324   0.70637   0.00000  Uiso   1.00
H958   H     0.46566   0.56400   0.52812   0.00000  Uiso   1.00
H959   H     0.46567   0.43538   0.97144   0.00000  Uiso   1.00
H960   H     0.53266   0.56413   0.97240   0.00000  Uiso   1.00
H961   H     0.53244   0.43509   0.52804   0.00000  Uiso   1.00
H962   H     0.44185   0.56866   0.64643   0.00000  Uiso   1.00
N963   N     0.50000   0.61736   0.75000   0.00000  Uiso   1.00
N964   N     0.50000   0.38264   0.75000   0.00000  Uiso   1.00
O965   O     0.43988   0.53958   0.74999   0.00000  Uiso   1.00
O966   O     0.44909   0.38794   0.90379   0.00000  Uiso   1.00
O967   O     0.54953   0.61193   0.90507   0.00000  Uiso   1.00
O968   O     0.54885   0.38716   0.59533   0.00000  Uiso   1.00
O969   O     0.36630   0.52538   0.63645   0.00000  Uiso   1.00
O970   O     0.63371   0.53042   0.86246   0.00000  Uiso   1.00
O971   O     0.63272   0.46909   0.63766   0.00000  Uiso   1.00
O972   O     0.36729   0.47416   0.86343   0.00000  Uiso   1.00
O973   O     0.56012   0.46042   0.75000   0.00000  Uiso   1.00
O974   O     0.56012   0.53958   0.75000   0.00000  Uiso   1.00
O975   O     0.43988   0.46042   0.74999   0.00000  Uiso   1.00
O976   O     0.50000   0.53959   0.68573   0.00000  Uiso   1.00
O977   O     0.50000   0.46041   0.81427   0.00000  Uiso   1.00
O978   O     0.50000   0.53959   0.81427   0.00000  Uiso   1.00
O979   O     0.50000   0.46041   0.68573   0.00000  Uiso   1.00
O980   O     0.44903   0.61145   0.59593   0.00000  Uiso   1.00
C981   C     0.75420   0.50000   0.74998   0.00000  Uiso   1.00
C982   C     0.97848   0.50157   0.79056   0.00000  Uiso   1.00
C983   C     0.97814   0.49827   0.70945   0.00000  Uiso   1.00
C984   C     0.68858   0.50012   0.79058   0.00000  Uiso   1.00
C985   C     0.81402   0.53631   0.54665   0.00000  Uiso   1.00
C986   C     0.81399   0.46311   0.95308   0.00000  Uiso   1.00
C987   C     0.85111   0.53650   0.95364   0.00000  Uiso   1.00
C988   C     0.85102   0.46284   0.54662   0.00000  Uiso   1.00
C989   C     0.81292   0.53646   0.59257   0.00000  Uiso   1.00
C990   C     0.81293   0.46301   0.90712   0.00000  Uiso   1.00
C991   C     0.85260   0.53674   0.90773   0.00000  Uiso   1.00
C992   C     0.91247   0.50000   0.75001   0.00000  Uiso   1.00
C993   C     0.85246   0.46265   0.59257   0.00000  Uiso   1.00
C994   C     0.83294   0.49971   0.61626   0.00000  Uiso   1.00
C995   C     0.83291   0.49993   0.88374   0.00000  Uiso   1.00
C996   C     0.83248   0.49961   0.52396   0.00000  Uiso   1.00
C997   C     0.83248   0.49975   0.97603   0.00000  Uiso   1.00
C998   C     0.95718   0.49997   0.75000   0.00000  Uiso   1.00
C999   C     0.70952   0.49998   0.74999   0.00000  Uiso   1.00
C1000  C     0.78857   0.57403   0.61429   0.00000  Uiso   1.00
C1001  C     0.78900   0.42505   0.88508   0.00000  Uiso   1.00
C1002  C     0.87688   0.57460   0.88640   0.00000  Uiso   1.00
C1003  C     0.83326   0.49994   0.66485   0.00000  Uiso   1.00
C1004  C     0.87622   0.42433   0.61422   0.00000  Uiso   1.00
C1005  C     0.71200   0.50218   0.66757   0.00000  Uiso   1.00
C1006  C     0.95473   0.50579   0.83227   0.00000  Uiso   1.00
C1007  C     0.95402   0.49389   0.66775   0.00000  Uiso   1.00
C1008  C     0.71271   0.49752   0.83240   0.00000  Uiso   1.00
C1009  C     0.83324   0.50000   0.83515   0.00000  Uiso   1.00
C1010  C     0.80518   0.35814   0.72553   0.00000  Uiso   1.00
C1011  C     0.86159   0.64191   0.77432   0.00000  Uiso   1.00
C1012  C     0.86149   0.35818   0.77447   0.00000  Uiso   1.00
C1013  C     0.80508   0.64187   0.72568   0.00000  Uiso   1.00
C1014  C     0.68823   0.49973   0.70941   0.00000  Uiso   1.00
Cu1015 Cu    0.83333   0.54689   0.75000   0.00000  Uiso   1.00
Cu1016 Cu    0.83333   0.45311   0.75000   0.00000  Uiso   1.00
H1017  H     0.78267   0.37683   0.70587   0.00000  Uiso   1.00
H1018  H     0.77627   0.42968   0.85239   0.00000  Uiso   1.00
H1019  H     0.89040   0.56957   0.85429   0.00000  Uiso   1.00
H1020  H     0.88931   0.42869   0.64678   0.00000  Uiso   1.00
H1021  H     0.74161   0.48470   0.66485   0.00000  Uiso   1.00
H1022  H     0.92520   0.48829   0.83567   0.00000  Uiso   1.00
H1023  H     0.92448   0.51140   0.66429   0.00000  Uiso   1.00
H1024  H     0.74232   0.51501   0.83519   0.00000  Uiso   1.00
H1025  H     0.88435   0.62331   0.79363   0.00000  Uiso   1.00
H1026  H     0.88400   0.37690   0.79412   0.00000  Uiso   1.00
H1027  H     0.78231   0.62324   0.70637   0.00000  Uiso   1.00
H1028  H     0.79900   0.56400   0.52812   0.00000  Uiso   1.00
H1029  H     0.79900   0.43538   0.97144   0.00000  Uiso   1.00
H1030  H     0.86600   0.56413   0.97240   0.00000  Uiso   1.00
H1031  H     0.86577   0.43509   0.52804   0.00000  Uiso   1.00
H1032  H     0.77519   0.56866   0.64643   0.00000  Uiso   1.00
N1033  N     0.83333   0.61736   0.75000   0.00000  Uiso   1.00
N1034  N     0.83333   0.38264   0.75000   0.00000  Uiso   1.00
O1035  O     0.77321   0.53958   0.74999   0.00000  Uiso   1.00
O1036  O     0.78242   0.38794   0.90379   0.00000  Uiso   1.00
O1037  O     0.88286   0.61193   0.90507   0.00000  Uiso   1.00
O1038  O     0.88219   0.38716   0.59533   0.00000  Uiso   1.00
O1039  O     0.69963   0.52538   0.63645   0.00000  Uiso   1.00
O1040  O     0.96704   0.53042   0.86246   0.00000  Uiso   1.00
O1041  O     0.96606   0.46909   0.63766   0.00000  Uiso   1.00
O1042  O     0.70063   0.47416   0.86343   0.00000  Uiso   1.00
O1043  O     0.89345   0.46042   0.75000   0.00000  Uiso   1.00
O1044  O     0.89345   0.53958   0.75000   0.00000  Uiso   1.00
O1045  O     0.77321   0.46042   0.74999   0.00000  Uiso   1.00
O1046  O     0.83333   0.53959   0.68573   0.00000  Uiso   1.00
O1047  O     0.83334   0.46041   0.81427   0.00000  Uiso   1.00
O1048  O     0.83334   0.53959   0.81427   0.00000  Uiso   1.00
O1049  O     0.83333   0.46041   0.68573   0.00000  Uiso   1.00
O1050  O     0.78236   0.61145   0.59593   0.00000  Uiso   1.00
C1051  C     0.08754   0.83333   0.74998   0.00000  Uiso   1.00
C1052  C     0.31182   0.83491   0.79056   0.00000  Uiso   1.00
C1053  C     0.31147   0.83161   0.70945   0.00000  Uiso   1.00
C1054  C     0.02191   0.83346   0.79058   0.00000  Uiso   1.00
C1055  C     0.14735   0.86964   0.54665   0.00000  Uiso   1.00
C1056  C     0.14732   0.79644   0.95308   0.00000  Uiso   1.00
C1057  C     0.18444   0.86983   0.95364   0.00000  Uiso   1.00
C1058  C     0.18435   0.79617   0.54662   0.00000  Uiso   1.00
C1059  C     0.14626   0.86979   0.59257   0.00000  Uiso   1.00
C1060  C     0.14627   0.79635   0.90712   0.00000  Uiso   1.00
C1061  C     0.18593   0.87007   0.90773   0.00000  Uiso   1.00
C1062  C     0.24581   0.83333   0.75001   0.00000  Uiso   1.00
C1063  C     0.18580   0.79598   0.59257   0.00000  Uiso   1.00
C1064  C     0.16628   0.83304   0.61626   0.00000  Uiso   1.00
C1065  C     0.16625   0.83326   0.88374   0.00000  Uiso   1.00
C1066  C     0.16581   0.83294   0.52396   0.00000  Uiso   1.00
C1067  C     0.16581   0.83308   0.97603   0.00000  Uiso   1.00
C1068  C     0.29051   0.83331   0.75000   0.00000  Uiso   1.00
C1069  C     0.04286   0.83331   0.74999   0.00000  Uiso   1.00
C1070  C     0.12191   0.90737   0.61429   0.00000  Uiso   1.00
C1071  C     0.12233   0.75838   0.88508   0.00000  Uiso   1.00
C1072  C     0.21022   0.90793   0.88640   0.00000  Uiso   1.00
C1073  C     0.16659   0.83327   0.66485   0.00000  Uiso   1.00
C1074  C     0.20955   0.75766   0.61422   0.00000  Uiso   1.00
C1075  C     0.04534   0.83551   0.66757   0.00000  Uiso   1.00
C1076  C     0.28806   0.83912   0.83227   0.00000  Uiso   1.00
C1077  C     0.28736   0.82722   0.66775   0.00000  Uiso   1.00
C1078  C     0.04604   0.83085   0.83240   0.00000  Uiso   1.00
C1079  C     0.16657   0.83333   0.83515   0.00000  Uiso   1.00
C1080  C     0.13851   0.69147   0.72553   0.00000  Uiso   1.00
C1081  C     0.19492   0.97524   0.77432   0.00000  Uiso   1.00
C1082  C     0.19482   0.69151   0.77447   0.00000  Uiso   1.00
C1083  C     0.13841   0.97520   0.72568   0.00000  Uiso   1.00
C1084  C     0.02156   0.83306   0.70941   0.00000  Uiso   1.00
Cu1085 Cu    0.16667   0.88022   0.75000   0.00000  Uiso   1.00
Cu1086 Cu    0.16667   0.78645   0.75000   0.00000  Uiso   1.00
H1087  H     0.11600   0.71017   0.70587   0.00000  Uiso   1.00
H1088  H     0.10960   0.76301   0.85239   0.00000  Uiso   1.00
H1089  H     0.22373   0.90291   0.85429   0.00000  Uiso   1.00
H1090  H     0.22265   0.76202   0.64678   0.00000  Uiso   1.00
H1091  H     0.07494   0.81803   0.66485   0.00000  Uiso   1.00
H1092  H     0.25853   0.82162   0.83567   0.00000  Uiso   1.00
H1093  H     0.25782   0.84474   0.66429   0.00000  Uiso   1.00
H1094  H     0.07565   0.84835   0.83519   0.00000  Uiso   1.00
H1095  H     0.21769   0.95664   0.79363   0.00000  Uiso   1.00
H1096  H     0.21734   0.71024   0.79412   0.00000  Uiso   1.00
H1097  H     0.11565   0.95657   0.70637   0.00000  Uiso   1.00
H1098  H     0.13233   0.89733   0.52812   0.00000  Uiso   1.00
H1099  H     0.13234   0.76871   0.97144   0.00000  Uiso   1.00
H1100  H     0.19933   0.89747   0.97240   0.00000  Uiso   1.00
H1101  H     0.19911   0.76842   0.52804   0.00000  Uiso   1.00
H1102  H     0.10852   0.90199   0.64643   0.00000  Uiso   1.00
N1103  N     0.16667   0.95069   0.75000   0.00000  Uiso   1.00
N1104  N     0.16667   0.71598   0.75000   0.00000  Uiso   1.00
O1105  O     0.10655   0.87291   0.74999   0.00000  Uiso   1.00
O1106  O     0.11575   0.72127   0.90379   0.00000  Uiso   1.00
O1107  O     0.21619   0.94526   0.90507   0.00000  Uiso   1.00
O1108  O     0.21552   0.72049   0.59533   0.00000  Uiso   1.00
O1109  O     0.03297   0.85872   0.63645   0.00000  Uiso   1.00
O1110  O     0.30037   0.86376   0.86246   0.00000  Uiso   1.00
O1111  O     0.29939   0.80242   0.63766   0.00000  Uiso   1.00
O1112  O     0.03396   0.80749   0.86343   0.00000  Uiso   1.00
O1113  O     0.22679   0.79375   0.75000   0.00000  Uiso   1.00
O1114  O     0.22679   0.87291   0.75000   0.00000  Uiso   1.00
O1115  O     0.10655   0.79375   0.74999   0.00000  Uiso   1.00
O1116  O     0.16666   0.87293   0.68573   0.00000  Uiso   1.00
O1117  O     0.16667   0.79374   0.81427   0.00000  Uiso   1.00
O1118  O     0.16667   0.87293   0.81427   0.00000  Uiso   1.00
O1119  O     0.16666   0.79374   0.68573   0.00000  Uiso   1.00
O1120  O     0.11570   0.94479   0.59593   0.00000  Uiso   1.00
C1121  C     0.42087   0.83333   0.74998   0.00000  Uiso   1.00
C1122  C     0.64515   0.83491   0.79056   0.00000  Uiso   1.00
C1123  C     0.64480   0.83161   0.70945   0.00000  Uiso   1.00
C1124  C     0.35524   0.83346   0.79058   0.00000  Uiso   1.00
C1125  C     0.48069   0.86964   0.54665   0.00000  Uiso   1.00
C1126  C     0.48066   0.79644   0.95308   0.00000  Uiso   1.00
C1127  C     0.51778   0.86983   0.95364   0.00000  Uiso   1.00
C1128  C     0.51768   0.79617   0.54662   0.00000  Uiso   1.00
C1129  C     0.47959   0.86979   0.59257   0.00000  Uiso   1.00
C1130  C     0.47960   0.79635   0.90712   0.00000  Uiso   1.00
C1131  C     0.51926   0.87007   0.90773   0.00000  Uiso   1.00
C1132  C     0.57914   0.83333   0.75001   0.00000  Uiso   1.00
C1133  C     0.51913   0.79598   0.59257   0.00000  Uiso   1.00
C1134  C     0.49961   0.83304   0.61626   0.00000  Uiso   1.00
C1135  C     0.49958   0.83326   0.88374   0.00000  Uiso   1.00
C1136  C     0.49914   0.83294   0.52396   0.00000  Uiso   1.00
C1137  C     0.49915   0.83308   0.97603   0.00000  Uiso   1.00
C1138  C     0.62384   0.83331   0.75000   0.00000  Uiso   1.00
C1139  C     0.37619   0.83331   0.74999   0.00000  Uiso   1.00
C1140  C     0.45524   0.90737   0.61429   0.00000  Uiso   1.00
C1141  C     0.45566   0.75838   0.88508   0.00000  Uiso   1.00
C1142  C     0.54355   0.90793   0.88640   0.00000  Uiso   1.00
C1143  C     0.49992   0.83327   0.66485   0.00000  Uiso   1.00
C1144  C     0.54289   0.75766   0.61422   0.00000  Uiso   1.00
C1145  C     0.37867   0.83551   0.66757   0.00000  Uiso   1.00
C1146  C     0.62139   0.83912   0.83227   0.00000  Uiso   1.00
C1147  C     0.62069   0.82722   0.66775   0.00000  Uiso   1.00
C1148  C     0.37938   0.83085   0.83240   0.00000  Uiso   1.00
C1149  C     0.49990   0.83333   0.83515   0.00000  Uiso   1.00
C1150  C     0.47185   0.69147   0.72553   0.00000  Uiso   1.00
C1151  C     0.52825   0.97524   0.77432   0.00000  Uiso   1.00
C1152  C     0.52815   0.69151   0.77447   0.00000  Uiso   1.00
C1153  C     0.47175   0.97520   0.72568   0.00000  Uiso   1.00
C1154  C     0.35490   0.83306   0.70941   0.00000  Uiso   1.00
Cu1155 Cu    0.50000   0.88022   0.75000   0.00000  Uiso   1.00
Cu1156 Cu    0.50000   0.78645   0.75000   0.00000  Uiso   1.00
H1157  H     0.44933   0.71017   0.70587   0.00000  Uiso   1.00
H1158  H     0.44294   0.76301   0.85239   0.00000  Uiso   1.00
H1159  H     0.55707   0.90291   0.85429   0.00000  Uiso   1.00
H1160  H     0.55598   0.76202   0.64678   0.00000  Uiso   1.00
H1161  H     0.40828   0.81803   0.66485   0.00000  Uiso   1.00
H1162  H     0.59186   0.82162   0.83567   0.00000  Uiso   1.00
H1163  H     0.59115   0.84474   0.66429   0.00000  Uiso   1.00
H1164  H     0.40899   0.84835   0.83519   0.00000  Uiso   1.00
H1165  H     0.55102   0.95664   0.79363   0.00000  Uiso   1.00
H1166  H     0.55067   0.71024   0.79412   0.00000  Uiso   1.00
H1167  H     0.44898   0.95657   0.70637   0.00000  Uiso   1.00
H1168  H     0.46566   0.89733   0.52812   0.00000  Uiso   1.00
H1169  H     0.46567   0.76871   0.97144   0.00000  Uiso   1.00
H1170  H     0.53266   0.89747   0.97240   0.00000  Uiso   1.00
H1171  H     0.53244   0.76842   0.52804   0.00000  Uiso   1.00
H1172  H     0.44185   0.90199   0.64643   0.00000  Uiso   1.00
N1173  N     0.50000   0.95069   0.75000   0.00000  Uiso   1.00
N1174  N     0.50000   0.71598   0.75000   0.00000  Uiso   1.00
O1175  O     0.43988   0.87291   0.74999   0.00000  Uiso   1.00
O1176  O     0.44909   0.72127   0.90379   0.00000  Uiso   1.00
O1177  O     0.54953   0.94526   0.90507   0.00000  Uiso   1.00
O1178  O     0.54885   0.72049   0.59533   0.00000  Uiso   1.00
O1179  O     0.36630   0.85872   0.63645   0.00000  Uiso   1.00
O1180  O     0.63371   0.86376   0.86246   0.00000  Uiso   1.00
O1181  O     0.63272   0.80242   0.63766   0.00000  Uiso   1.00
O1182  O     0.36729   0.80749   0.86343   0.00000  Uiso   1.00
O1183  O     0.56012   0.79375   0.75000   0.00000  Uiso   1.00
O1184  O     0.56012   0.87291   0.75000   0.00000  Uiso   1.00
O1185  O     0.43988   0.79375   0.74999   0.00000  Uiso   1.00
O1186  O     0.50000   0.87293   0.68573   0.00000  Uiso   1.00
O1187  O     0.50000   0.79374   0.81427   0.00000  Uiso   1.00
O1188  O     0.50000   0.87293   0.81427   0.00000  Uiso   1.00
O1189  O     0.50000   0.79374   0.68573   0.00000  Uiso   1.00
O1190  O     0.44903   0.94479   0.59593   0.00000  Uiso   1.00
C1191  C     0.75420   0.83333   0.74998   0.00000  Uiso   1.00
C1192  C     0.97848   0.83491   0.79056   0.00000  Uiso   1.00
C1193  C     0.97814   0.83161   0.70945   0.00000  Uiso   1.00
C1194  C     0.68858   0.83346   0.79058   0.00000  Uiso   1.00
C1195  C     0.81402   0.86964   0.54665   0.00000  Uiso   1.00
C1196  C     0.81399   0.79644   0.95308   0.00000  Uiso   1.00
C1197  C     0.85111   0.86983   0.95364   0.00000  Uiso   1.00
C1198  C     0.85102   0.79617   0.54662   0.00000  Uiso   1.00
C1199  C     0.81292   0.86979   0.59257   0.00000  Uiso   1.00
C1200  C     0.81293   0.79635   0.90712   0.00000  Uiso   1.00
C1201  C     0.85260   0.87007   0.90773   0.00000  Uiso   1.00
C1202  C     0.91247   0.83333   0.75001   0.00000  Uiso   1.00
C1203  C     0.85246   0.79598   0.59257   0.00000  Uiso   1.00
C1204  C     0.83294   0.83304   0.61626   0.00000  Uiso   1.00
C1205  C     0.83291   0.83326   0.88374   0.00000  Uiso   1.00
C1206  C     0.83248   0.83294   0.52396   0.00000  Uiso   1.00
C1207  C     0.83248   0.83308   0.97603   0.00000  Uiso   1.00
C1208  C     0.95718   0.83331   0.75000   0.00000  Uiso   1.00
C1209  C     0.70952   0.83331   0.74999   0.00000  Uiso   1.00
C1210  C     0.78857   0.90737   0.61429   0.00000  Uiso   1.00
C1211  C     0.78900   0.75838   0.88508   0.00000  Uiso   1.00
C1212  C     0.87688   0.90793   0.88640   0.00000  Uiso   1.00
C1213  C     0.83326   0.83327   0.66485   0.00000  Uiso   1.00
C1214  C     0.87622   0.75766   0.61422   0.00000  Uiso   1.00
C1215  C     0.71200   0.83551   0.66757   0.00000  Uiso   1.00
C1216  C     0.95473   0.83912   0.83227   0.00000  Uiso   1.00
C1217  C     0.95402   0.82722   0.66775   0.00000  Uiso   1.00
C1218  C     0.71271   0.83085   0.83240   0.00000  Uiso   1.00
C1219  C     0.83324   0.83333   0.83515   0.00000  Uiso   1.00
C1220  C     0.80518   0.69147   0.72553   0.00000  Uiso   1.00
C1221  C     0.86159   0.97524   0.77432   0.00000  Uiso   1.00
C1222  C     0.86149   0.69151   0.77447   0.00000  Uiso   1.00
C1223  C     0.80508   0.97520   0.72568   0.00000  Uiso   1.00
C1224  C     0.68823   0.83306   0.70941   0.00000  Uiso   1.00
Cu1225 Cu    0.83333   0.88022   0.75000   0.00000  Uiso   1.00
Cu1226 Cu    0.83333   0.78645   0.75000   0.00000  Uiso   1.00
H1227  H     0.78267   0.71017   0.70587   0.00000  Uiso   1.00
H1228  H     0.77627   0.76301   0.85239   0.00000  Uiso   1.00
H1229  H     0.89040   0.90291   0.85429   0.00000  Uiso   1.00
H1230  H     0.88931   0.76202   0.64678   0.00000  Uiso   1.00
H1231  H     0.74161   0.81803   0.66485   0.00000  Uiso   1.00
H1232  H     0.92520   0.82162   0.83567   0.00000  Uiso   1.00
H1233  H     0.92448   0.84474   0.66429   0.00000  Uiso   1.00
H1234  H     0.74232   0.84835   0.83519   0.00000  Uiso   1.00
H1235  H     0.88435   0.95664   0.79363   0.00000  Uiso   1.00
H1236  H     0.88400   0.71024   0.79412   0.00000  Uiso   1.00
H1237  H     0.78231   0.95657   0.70637   0.00000  Uiso   1.00
H1238  H     0.79900   0.89733   0.52812   0.00000  Uiso   1.00
H1239  H     0.79900   0.76871   0.97144   0.00000  Uiso   1.00
H1240  H     0.86600   0.89747   0.97240   0.00000  Uiso   1.00
H1241  H     0.86577   0.76842   0.52804   0.00000  Uiso   1.00
H1242  H     0.77519   0.90199   0.64643   0.00000  Uiso   1.00
N1243  N     0.83333   0.95069   0.75000   0.00000  Uiso   1.00
N1244  N     0.83333   0.71598   0.75000   0.00000  Uiso   1.00
O1245  O     0.77321   0.87291   0.74999   0.00000  Uiso   1.00
O1246  O     0.78242   0.72127   0.90379   0.00000  Uiso   1.00
O1247  O     0.88286   0.94526   0.90507   0.00000  Uiso   1.00
O1248  O     0.88219   0.72049   0.59533   0.00000  Uiso   1.00
O1249  O     0.69963   0.85872   0.63645   0.00000  Uiso   1.00
O1250  O     0.96704   0.86376   0.86246   0.00000  Uiso   1.00
O1251  O     0.96606   0.80242   0.63766   0.00000  Uiso   1.00
O1252  O     0.70063   0.80749   0.86343   0.00000  Uiso   1.00
O1253  O     0.89345   0.79375   0.75000   0.00000  Uiso   1.00
O1254  O     0.89345   0.87291   0.75000   0.00000  Uiso   1.00
O1255  O     0.77321   0.79375   0.74999   0.00000  Uiso   1.00
O1256  O     0.83333   0.87293   0.68573   0.00000  Uiso   1.00
O1257  O     0.83334   0.79374   0.81427   0.00000  Uiso   1.00
O1258  O     0.83334   0.87293   0.81427   0.00000  Uiso   1.00
O1259  O     0.83333   0.79374   0.68573   0.00000  Uiso   1.00
O1260  O     0.78236   0.94479   0.59593   0.00000  Uiso   1.00
loop_
_geom_bond_atom_site_label_1
_geom_bond_atom_site_label_2
_geom_bond_distance
_geom_bond_site_symmetry_2
_ccdc_geom_bond_type
C1     O65     1.287   .     A
C1     O55     1.287   .     A
C1     C19     1.448   .     S
C2     C18     1.410   .     A
C2     C26     1.491   .     S
C2     C74     1.408   .     S
C3     C27     1.491   .     S
C3     C18     1.411   .     A
C3     C104    1.408   .     S
C4     C28     1.491   .     S
C4     C19     1.410   .     A
C4     C142    1.408   1_455 S
C5     C9      1.396   .     A
C5     H48     1.085   .     S
C5     C16     1.390   .     A
C6     C10     1.397   .     A
C6     C17     1.390   .     A
C6     H49     1.085   .     S
C7     C11     1.396   .     A
C7     H50     1.085   .     S
C7     C17     1.390   .     A
C8     C13     1.397   .     A
C8     H51     1.085   .     S
C8     C16     1.390   .     A
C9     C14     1.427   .     A
C9     C20     1.487   .     S
C10    C15     1.428   .     A
C10    C21     1.489   .     S
C11    C22     1.487   .     S
C11    C15     1.427   .     A
C12    O64     1.287   .     A
C12    O63     1.287   .     A
C12    C18     1.449   .     S
C13    C14     1.428   .     A
C13    C24     1.489   .     S
C14    C23     1.477   .     S
C15    C29     1.477   .     S
C16    C647    1.457   1_554 S
C17    C646    1.457   .     S
C19    C34     1.410   .     A
C20    H52     1.081   .     S
C20    O70     1.222   .     D
C21    O56     1.222   .     D
C21    H38     1.082   .     S
C22    O57     1.222   .     D
C22    H39     1.081   .     S
C23    O69     1.295   .     A
C23    O66     1.297   .     A
C24    H40     1.082   .     S
C24    O58     1.222   .     D
C25    O59     1.221   .     D
C25    C34     1.491   .     S
C25    H41     1.085   .     S
C26    O60     1.221   .     D
C26    H42     1.085   .     S
C27    H43     1.085   .     S
C27    O61     1.221   .     D
C28    H44     1.085   .     S
C28    O62     1.221   .     D
C29    O67     1.295   .     A
C29    O68     1.296   .     A
C30    N54     1.366   .     A
C30    H37     1.082   .     S
C30    C453    1.416   1_545 S
C31    N53     1.367   .     A
C31    H45     1.080   .     S
C31    C242    1.416   .     S
C32    N54     1.366   .     A
C32    H46     1.082   .     S
C32    C451    1.416   1_545 S
C33    H47     1.080   .     S
C33    N53     1.367   .     A
C33    C240    1.416   .     S
C34    C143    1.408   1_455 S
Cu35   Cu36    2.676   .     S
Cu35   O64     1.959   .     S
Cu35   O68     1.964   .     S
Cu35   N53     2.011   .     S
Cu35   O66     1.964   .     S
Cu35   O55     1.959   .     S
Cu36   O63     1.959   .     S
Cu36   O67     1.964   .     S
Cu36   N54     2.011   .     S
Cu36   O69     1.964   .     S
Cu36   O65     1.959   .     S
C71    O135    1.287   .     A
C71    O125    1.287   .     A
C71    C89     1.448   .     S
C72    C88     1.410   .     A
C72    C96     1.491   .     S
C72    C144    1.408   .     S
C73    C97     1.491   .     S
C73    C88     1.411   .     A
C73    C174    1.408   .     S
C74    C98     1.491   .     S
C74    C89     1.410   .     A
C75    C79     1.396   .     A
C75    H118    1.085   .     S
C75    C86     1.390   .     A
C76    C80     1.397   .     A
C76    C87     1.390   .     A
C76    H119    1.085   .     S
C77    C81     1.396   .     A
C77    H120    1.085   .     S
C77    C87     1.390   .     A
C78    C83     1.397   .     A
C78    H121    1.085   .     S
C78    C86     1.390   .     A
C79    C84     1.427   .     A
C79    C90     1.487   .     S
C80    C85     1.428   .     A
C80    C91     1.489   .     S
C81    C92     1.487   .     S
C81    C85     1.427   .     A
C82    O134    1.287   .     A
C82    O133    1.287   .     A
C82    C88     1.449   .     S
C83    C84     1.428   .     A
C83    C94     1.489   .     S
C84    C93     1.477   .     S
C85    C99     1.477   .     S
C86    C717    1.457   1_554 S
C87    C716    1.457   .     S
C89    C104    1.410   .     A
C90    H122    1.081   .     S
C90    O140    1.222   .     D
C91    O126    1.222   .     D
C91    H108    1.082   .     S
C92    O127    1.222   .     D
C92    H109    1.081   .     S
C93    O139    1.295   .     A
C93    O136    1.297   .     A
C94    H110    1.082   .     S
C94    O128    1.222   .     D
C95    O129    1.221   .     D
C95    C104    1.491   .     S
C95    H111    1.085   .     S
C96    O130    1.221   .     D
C96    H112    1.085   .     S
C97    H113    1.085   .     S
C97    O131    1.221   .     D
C98    H114    1.085   .     S
C98    O132    1.221   .     D
C99    O137    1.295   .     A
C99    O138    1.296   .     A
C100   N124    1.366   .     A
C100   H107    1.082   .     S
C100   C523    1.416   1_545 S
C101   N123    1.367   .     A
C101   H115    1.080   .     S
C101   C312    1.416   .     S
C102   N124    1.366   .     A
C102   H116    1.082   .     S
C102   C521    1.416   1_545 S
C103   H117    1.080   .     S
C103   N123    1.367   .     A
C103   C310    1.416   .     S
Cu105  Cu106   2.676   .     S
Cu105  O134    1.959   .     S
Cu105  O138    1.964   .     S
Cu105  N123    2.011   .     S
Cu105  O136    1.964   .     S
Cu105  O125    1.959   .     S
Cu106  O133    1.959   .     S
Cu106  O137    1.964   .     S
Cu106  N124    2.011   .     S
Cu106  O139    1.964   .     S
Cu106  O135    1.959   .     S
C141   O205    1.287   .     A
C141   O195    1.287   .     A
C141   C159    1.448   .     S
C142   C158    1.410   .     A
C142   C166    1.491   .     S
C142   C4      1.408   1_655 S
C143   C167    1.491   .     S
C143   C158    1.411   .     A
C143   C34     1.408   1_655 S
C144   C168    1.491   .     S
C144   C159    1.410   .     A
C145   C149    1.396   .     A
C145   H188    1.085   .     S
C145   C156    1.390   .     A
C146   C150    1.397   .     A
C146   C157    1.390   .     A
C146   H189    1.085   .     S
C147   C151    1.396   .     A
C147   H190    1.085   .     S
C147   C157    1.390   .     A
C148   C153    1.397   .     A
C148   H191    1.085   .     S
C148   C156    1.390   .     A
C149   C154    1.427   .     A
C149   C160    1.487   .     S
C150   C155    1.428   .     A
C150   C161    1.489   .     S
C151   C162    1.487   .     S
C151   C155    1.427   .     A
C152   O204    1.287   .     A
C152   O203    1.287   .     A
C152   C158    1.449   .     S
C153   C154    1.428   .     A
C153   C164    1.489   .     S
C154   C163    1.477   .     S
C155   C169    1.477   .     S
C156   C787    1.457   1_554 S
C157   C786    1.457   .     S
C159   C174    1.410   .     A
C160   H192    1.081   .     S
C160   O210    1.222   .     D
C161   O196    1.222   .     D
C161   H178    1.082   .     S
C162   O197    1.222   .     D
C162   H179    1.081   .     S
C163   O209    1.295   .     A
C163   O206    1.297   .     A
C164   H180    1.082   .     S
C164   O198    1.222   .     D
C165   O199    1.221   .     D
C165   C174    1.491   .     S
C165   H181    1.085   .     S
C166   O200    1.221   .     D
C166   H182    1.085   .     S
C167   H183    1.085   .     S
C167   O201    1.221   .     D
C168   H184    1.085   .     S
C168   O202    1.221   .     D
C169   O207    1.295   .     A
C169   O208    1.296   .     A
C170   N194    1.366   .     A
C170   H177    1.082   .     S
C170   C593    1.416   1_545 S
C171   N193    1.367   .     A
C171   H185    1.080   .     S
C171   C382    1.416   .     S
C172   N194    1.366   .     A
C172   H186    1.082   .     S
C172   C591    1.416   1_545 S
C173   H187    1.080   .     S
C173   N193    1.367   .     A
C173   C380    1.416   .     S
Cu175  Cu176   2.676   .     S
Cu175  O204    1.959   .     S
Cu175  O208    1.964   .     S
Cu175  N193    2.011   .     S
Cu175  O206    1.964   .     S
Cu175  O195    1.959   .     S
Cu176  O203    1.959   .     S
Cu176  O207    1.964   .     S
Cu176  N194    2.011   .     S
Cu176  O209    1.964   .     S
Cu176  O205    1.959   .     S
C211   O275    1.287   .     A
C211   O265    1.287   .     A
C211   C229    1.448   .     S
C212   C228    1.410   .     A
C212   C236    1.491   .     S
C212   C284    1.408   .     S
C213   C237    1.491   .     S
C213   C228    1.411   .     A
C213   C314    1.408   .     S
C214   C238    1.491   .     S
C214   C229    1.410   .     A
C214   C352    1.408   1_455 S
C215   C219    1.396   .     A
C215   H258    1.085   .     S
C215   C226    1.390   .     A
C216   C220    1.397   .     A
C216   C227    1.390   .     A
C216   H259    1.085   .     S
C217   C221    1.396   .     A
C217   H260    1.085   .     S
C217   C227    1.390   .     A
C218   C223    1.397   .     A
C218   H261    1.085   .     S
C218   C226    1.390   .     A
C219   C224    1.427   .     A
C219   C230    1.487   .     S
C220   C225    1.428   .     A
C220   C231    1.489   .     S
C221   C232    1.487   .     S
C221   C225    1.427   .     A
C222   O274    1.287   .     A
C222   O273    1.287   .     A
C222   C228    1.449   .     S
C223   C224    1.428   .     A
C223   C234    1.489   .     S
C224   C233    1.477   .     S
C225   C239    1.477   .     S
C226   C857    1.457   1_554 S
C227   C856    1.457   .     S
C229   C244    1.410   .     A
C230   H262    1.081   .     S
C230   O280    1.222   .     D
C231   O266    1.222   .     D
C231   H248    1.082   .     S
C232   O267    1.222   .     D
C232   H249    1.081   .     S
C233   O279    1.295   .     A
C233   O276    1.297   .     A
C234   H250    1.082   .     S
C234   O268    1.222   .     D
C235   O269    1.221   .     D
C235   C244    1.491   .     S
C235   H251    1.085   .     S
C236   O270    1.221   .     D
C236   H252    1.085   .     S
C237   H253    1.085   .     S
C237   O271    1.221   .     D
C238   H254    1.085   .     S
C238   O272    1.221   .     D
C239   O277    1.295   .     A
C239   O278    1.296   .     A
C240   N264    1.366   .     A
C240   H247    1.082   .     S
C241   N263    1.367   .     A
C241   H255    1.080   .     S
C241   C452    1.416   .     S
C242   N264    1.366   .     A
C242   H256    1.082   .     S
C243   H257    1.080   .     S
C243   N263    1.367   .     A
C243   C450    1.416   .     S
C244   C353    1.408   1_455 S
Cu245  Cu246   2.676   .     S
Cu245  O274    1.959   .     S
Cu245  O278    1.964   .     S
Cu245  N263    2.011   .     S
Cu245  O276    1.964   .     S
Cu245  O265    1.959   .     S
Cu246  O273    1.959   .     S
Cu246  O277    1.964   .     S
Cu246  N264    2.011   .     S
Cu246  O279    1.964   .     S
Cu246  O275    1.959   .     S
C281   O345    1.287   .     A
C281   O335    1.287   .     A
C281   C299    1.448   .     S
C282   C298    1.410   .     A
C282   C306    1.491   .     S
C282   C354    1.408   .     S
C283   C307    1.491   .     S
C283   C298    1.411   .     A
C283   C384    1.408   .     S
C284   C308    1.491   .     S
C284   C299    1.410   .     A
C285   C289    1.396   .     A
C285   H328    1.085   .     S
C285   C296    1.390   .     A
C286   C290    1.397   .     A
C286   C297    1.390   .     A
C286   H329    1.085   .     S
C287   C291    1.396   .     A
C287   H330    1.085   .     S
C287   C297    1.390   .     A
C288   C293    1.397   .     A
C288   H331    1.085   .     S
C288   C296    1.390   .     A
C289   C294    1.427   .     A
C289   C300    1.487   .     S
C290   C295    1.428   .     A
C290   C301    1.489   .     S
C291   C302    1.487   .     S
C291   C295    1.427   .     A
C292   O344    1.287   .     A
C292   O343    1.287   .     A
C292   C298    1.449   .     S
C293   C294    1.428   .     A
C293   C304    1.489   .     S
C294   C303    1.477   .     S
C295   C309    1.477   .     S
C296   C927    1.457   1_554 S
C297   C926    1.457   .     S
C299   C314    1.410   .     A
C300   H332    1.081   .     S
C300   O350    1.222   .     D
C301   O336    1.222   .     D
C301   H318    1.082   .     S
C302   O337    1.222   .     D
C302   H319    1.081   .     S
C303   O349    1.295   .     A
C303   O346    1.297   .     A
C304   H320    1.082   .     S
C304   O338    1.222   .     D
C305   O339    1.221   .     D
C305   C314    1.491   .     S
C305   H321    1.085   .     S
C306   O340    1.221   .     D
C306   H322    1.085   .     S
C307   H323    1.085   .     S
C307   O341    1.221   .     D
C308   H324    1.085   .     S
C308   O342    1.221   .     D
C309   O347    1.295   .     A
C309   O348    1.296   .     A
C310   N334    1.366   .     A
C310   H317    1.082   .     S
C311   N333    1.367   .     A
C311   H325    1.080   .     S
C311   C522    1.416   .     S
C312   N334    1.366   .     A
C312   H326    1.082   .     S
C313   H327    1.080   .     S
C313   N333    1.367   .     A
C313   C520    1.416   .     S
Cu315  Cu316   2.676   .     S
Cu315  O344    1.959   .     S
Cu315  O348    1.964   .     S
Cu315  N333    2.011   .     S
Cu315  O346    1.964   .     S
Cu315  O335    1.959   .     S
Cu316  O343    1.959   .     S
Cu316  O347    1.964   .     S
Cu316  N334    2.011   .     S
Cu316  O349    1.964   .     S
Cu316  O345    1.959   .     S
C351   O415    1.287   .     A
C351   O405    1.287   .     A
C351   C369    1.448   .     S
C352   C368    1.410   .     A
C352   C376    1.491   .     S
C352   C214    1.408   1_655 S
C353   C377    1.491   .     S
C353   C368    1.411   .     A
C353   C244    1.408   1_655 S
C354   C378    1.491   .     S
C354   C369    1.410   .     A
C355   C359    1.396   .     A
C355   H398    1.085   .     S
C355   C366    1.390   .     A
C356   C360    1.397   .     A
C356   C367    1.390   .     A
C356   H399    1.085   .     S
C357   C361    1.396   .     A
C357   H400    1.085   .     S
C357   C367    1.390   .     A
C358   C363    1.397   .     A
C358   H401    1.085   .     S
C358   C366    1.390   .     A
C359   C364    1.427   .     A
C359   C370    1.487   .     S
C360   C365    1.428   .     A
C360   C371    1.489   .     S
C361   C372    1.487   .     S
C361   C365    1.427   .     A
C362   O414    1.287   .     A
C362   O413    1.287   .     A
C362   C368    1.449   .     S
C363   C364    1.428   .     A
C363   C374    1.489   .     S
C364   C373    1.477   .     S
C365   C379    1.477   .     S
C366   C997    1.457   1_554 S
C367   C996    1.457   .     S
C369   C384    1.410   .     A
C370   H402    1.081   .     S
C370   O420    1.222   .     D
C371   O406    1.222   .     D
C371   H388    1.082   .     S
C372   O407    1.222   .     D
C372   H389    1.081   .     S
C373   O419    1.295   .     A
C373   O416    1.297   .     A
C374   H390    1.082   .     S
C374   O408    1.222   .     D
C375   O409    1.221   .     D
C375   C384    1.491   .     S
C375   H391    1.085   .     S
C376   O410    1.221   .     D
C376   H392    1.085   .     S
C377   H393    1.085   .     S
C377   O411    1.221   .     D
C378   H394    1.085   .     S
C378   O412    1.221   .     D
C379   O417    1.295   .     A
C379   O418    1.296   .     A
C380   N404    1.366   .     A
C380   H387    1.082   .     S
C381   N403    1.367   .     A
C381   H395    1.080   .     S
C381   C592    1.416   .     S
C382   N404    1.366   .     A
C382   H396    1.082   .     S
C383   H397    1.080   .     S
C383   N403    1.367   .     A
C383   C590    1.416   .     S
Cu385  Cu386   2.676   .     S
Cu385  O414    1.959   .     S
Cu385  O418    1.964   .     S
Cu385  N403    2.011   .     S
Cu385  O416    1.964   .     S
Cu385  O405    1.959   .     S
Cu386  O413    1.959   .     S
Cu386  O417    1.964   .     S
Cu386  N404    2.011   .     S
Cu386  O419    1.964   .     S
Cu386  O415    1.959   .     S
C421   O485    1.287   .     A
C421   O475    1.287   .     A
C421   C439    1.448   .     S
C422   C438    1.410   .     A
C422   C446    1.491   .     S
C422   C494    1.408   .     S
C423   C447    1.491   .     S
C423   C438    1.411   .     A
C423   C524    1.408   .     S
C424   C448    1.491   .     S
C424   C439    1.410   .     A
C424   C562    1.408   1_455 S
C425   C429    1.396   .     A
C425   H468    1.085   .     S
C425   C436    1.390   .     A
C426   C430    1.397   .     A
C426   C437    1.390   .     A
C426   H469    1.085   .     S
C427   C431    1.396   .     A
C427   H470    1.085   .     S
C427   C437    1.390   .     A
C428   C433    1.397   .     A
C428   H471    1.085   .     S
C428   C436    1.390   .     A
C429   C434    1.427   .     A
C429   C440    1.487   .     S
C430   C435    1.428   .     A
C430   C441    1.489   .     S
C431   C442    1.487   .     S
C431   C435    1.427   .     A
C432   O484    1.287   .     A
C432   O483    1.287   .     A
C432   C438    1.449   .     S
C433   C434    1.428   .     A
C433   C444    1.489   .     S
C434   C443    1.477   .     S
C435   C449    1.477   .     S
C436   C1067   1.457   1_554 S
C437   C1066   1.457   .     S
C439   C454    1.410   .     A
C440   H472    1.081   .     S
C440   O490    1.222   .     D
C441   O476    1.222   .     D
C441   H458    1.082   .     S
C442   O477    1.222   .     D
C442   H459    1.081   .     S
C443   O489    1.295   .     A
C443   O486    1.297   .     A
C444   H460    1.082   .     S
C444   O478    1.222   .     D
C445   O479    1.221   .     D
C445   C454    1.491   .     S
C445   H461    1.085   .     S
C446   O480    1.221   .     D
C446   H462    1.085   .     S
C447   H463    1.085   .     S
C447   O481    1.221   .     D
C448   H464    1.085   .     S
C448   O482    1.221   .     D
C449   O487    1.295   .     A
C449   O488    1.296   .     A
C450   N474    1.366   .     A
C450   H457    1.082   .     S
C451   N473    1.367   .     A
C451   H465    1.080   .     S
C451   C32     1.416   1_565 S
C452   N474    1.366   .     A
C452   H466    1.082   .     S
C453   H467    1.080   .     S
C453   N473    1.367   .     A
C453   C30     1.416   1_565 S
C454   C563    1.408   1_455 S
Cu455  Cu456   2.676   .     S
Cu455  O484    1.959   .     S
Cu455  O488    1.964   .     S
Cu455  N473    2.011   .     S
Cu455  O486    1.964   .     S
Cu455  O475    1.959   .     S
Cu456  O483    1.959   .     S
Cu456  O487    1.964   .     S
Cu456  N474    2.011   .     S
Cu456  O489    1.964   .     S
Cu456  O485    1.959   .     S
C491   O555    1.287   .     A
C491   O545    1.287   .     A
C491   C509    1.448   .     S
C492   C508    1.410   .     A
C492   C516    1.491   .     S
C492   C564    1.408   .     S
C493   C517    1.491   .     S
C493   C508    1.411   .     A
C493   C594    1.408   .     S
C494   C518    1.491   .     S
C494   C509    1.410   .     A
C495   C499    1.396   .     A
C495   H538    1.085   .     S
C495   C506    1.390   .     A
C496   C500    1.397   .     A
C496   C507    1.390   .     A
C496   H539    1.085   .     S
C497   C501    1.396   .     A
C497   H540    1.085   .     S
C497   C507    1.390   .     A
C498   C503    1.397   .     A
C498   H541    1.085   .     S
C498   C506    1.390   .     A
C499   C504    1.427   .     A
C499   C510    1.487   .     S
C500   C505    1.428   .     A
C500   C511    1.489   .     S
C501   C512    1.487   .     S
C501   C505    1.427   .     A
C502   O554    1.287   .     A
C502   O553    1.287   .     A
C502   C508    1.449   .     S
C503   C504    1.428   .     A
C503   C514    1.489   .     S
C504   C513    1.477   .     S
C505   C519    1.477   .     S
C506   C1137   1.457   1_554 S
C507   C1136   1.457   .     S
C509   C524    1.410   .     A
C510   H542    1.081   .     S
C510   O560    1.222   .     D
C511   O546    1.222   .     D
C511   H528    1.082   .     S
C512   O547    1.222   .     D
C512   H529    1.081   .     S
C513   O559    1.295   .     A
C513   O556    1.297   .     A
C514   H530    1.082   .     S
C514   O548    1.222   .     D
C515   O549    1.221   .     D
C515   C524    1.491   .     S
C515   H531    1.085   .     S
C516   O550    1.221   .     D
C516   H532    1.085   .     S
C517   H533    1.085   .     S
C517   O551    1.221   .     D
C518   H534    1.085   .     S
C518   O552    1.221   .     D
C519   O557    1.295   .     A
C519   O558    1.296   .     A
C520   N544    1.366   .     A
C520   H527    1.082   .     S
C521   N543    1.367   .     A
C521   H535    1.080   .     S
C521   C102    1.416   1_565 S
C522   N544    1.366   .     A
C522   H536    1.082   .     S
C523   H537    1.080   .     S
C523   N543    1.367   .     A
C523   C100    1.416   1_565 S
Cu525  Cu526   2.676   .     S
Cu525  O554    1.959   .     S
Cu525  O558    1.964   .     S
Cu525  N543    2.011   .     S
Cu525  O556    1.964   .     S
Cu525  O545    1.959   .     S
Cu526  O553    1.959   .     S
Cu526  O557    1.964   .     S
Cu526  N544    2.011   .     S
Cu526  O559    1.964   .     S
Cu526  O555    1.959   .     S
C561   O625    1.287   .     A
C561   O615    1.287   .     A
C561   C579    1.448   .     S
C562   C578    1.410   .     A
C562   C586    1.491   .     S
C562   C424    1.408   1_655 S
C563   C587    1.491   .     S
C563   C578    1.411   .     A
C563   C454    1.408   1_655 S
C564   C588    1.491   .     S
C564   C579    1.410   .     A
C565   C569    1.396   .     A
C565   H608    1.085   .     S
C565   C576    1.390   .     A
C566   C570    1.397   .     A
C566   C577    1.390   .     A
C566   H609    1.085   .     S
C567   C571    1.396   .     A
C567   H610    1.085   .     S
C567   C577    1.390   .     A
C568   C573    1.397   .     A
C568   H611    1.085   .     S
C568   C576    1.390   .     A
C569   C574    1.427   .     A
C569   C580    1.487   .     S
C570   C575    1.428   .     A
C570   C581    1.489   .     S
C571   C582    1.487   .     S
C571   C575    1.427   .     A
C572   O624    1.287   .     A
C572   O623    1.287   .     A
C572   C578    1.449   .     S
C573   C574    1.428   .     A
C573   C584    1.489   .     S
C574   C583    1.477   .     S
C575   C589    1.477   .     S
C576   C1207   1.457   1_554 S
C577   C1206   1.457   .     S
C579   C594    1.410   .     A
C580   H612    1.081   .     S
C580   O630    1.222   .     D
C581   O616    1.222   .     D
C581   H598    1.082   .     S
C582   O617    1.222   .     D
C582   H599    1.081   .     S
C583   O629    1.295   .     A
C583   O626    1.297   .     A
C584   H600    1.082   .     S
C584   O618    1.222   .     D
C585   O619    1.221   .     D
C585   C594    1.491   .     S
C585   H601    1.085   .     S
C586   O620    1.221   .     D
C586   H602    1.085   .     S
C587   H603    1.085   .     S
C587   O621    1.221   .     D
C588   H604    1.085   .     S
C588   O622    1.221   .     D
C589   O627    1.295   .     A
C589   O628    1.296   .     A
C590   N614    1.366   .     A
C590   H597    1.082   .     S
C591   N613    1.367   .     A
C591   H605    1.080   .     S
C591   C172    1.416   1_565 S
C592   N614    1.366   .     A
C592   H606    1.082   .     S
C593   H607    1.080   .     S
C593   N613    1.367   .     A
C593   C170    1.416   1_565 S
Cu595  Cu596   2.676   .     S
Cu595  O624    1.959   .     S
Cu595  O628    1.964   .     S
Cu595  N613    2.011   .     S
Cu595  O626    1.964   .     S
Cu595  O615    1.959   .     S
Cu596  O623    1.959   .     S
Cu596  O627    1.964   .     S
Cu596  N614    2.011   .     S
Cu596  O629    1.964   .     S
Cu596  O625    1.959   .     S
C631   O695    1.287   .     A
C631   O685    1.287   .     A
C631   C649    1.448   .     S
C632   C648    1.410   .     A
C632   C656    1.491   .     S
C632   C704    1.408   .     S
C633   C657    1.491   .     S
C633   C648    1.411   .     A
C633   C734    1.408   .     S
C634   C658    1.491   .     S
C634   C649    1.410   .     A
C634   C772    1.408   1_455 S
C635   C639    1.396   .     A
C635   H678    1.085   .     S
C635   C646    1.390   .     A
C636   C640    1.397   .     A
C636   C647    1.390   .     A
C636   H679    1.085   .     S
C637   C641    1.396   .     A
C637   H680    1.085   .     S
C637   C647    1.390   .     A
C638   C643    1.397   .     A
C638   H681    1.085   .     S
C638   C646    1.390   .     A
C639   C644    1.427   .     A
C639   C650    1.487   .     S
C640   C645    1.428   .     A
C640   C651    1.489   .     S
C641   C652    1.487   .     S
C641   C645    1.427   .     A
C642   O694    1.287   .     A
C642   O693    1.287   .     A
C642   C648    1.449   .     S
C643   C644    1.428   .     A
C643   C654    1.489   .     S
C644   C653    1.477   .     S
C645   C659    1.477   .     S
C647   C16     1.457   1_556 S
C649   C664    1.410   .     A
C650   H682    1.081   .     S
C650   O700    1.222   .     D
C651   O686    1.222   .     D
C651   H668    1.082   .     S
C652   O687    1.222   .     D
C652   H669    1.081   .     S
C653   O699    1.295   .     A
C653   O696    1.297   .     A
C654   H670    1.082   .     S
C654   O688    1.222   .     D
C655   O689    1.221   .     D
C655   C664    1.491   .     S
C655   H671    1.085   .     S
C656   O690    1.221   .     D
C656   H672    1.085   .     S
C657   H673    1.085   .     S
C657   O691    1.221   .     D
C658   H674    1.085   .     S
C658   O692    1.221   .     D
C659   O697    1.295   .     A
C659   O698    1.296   .     A
C660   N684    1.366   .     A
C660   H667    1.082   .     S
C660   C1083   1.416   1_545 S
C661   N683    1.367   .     A
C661   H675    1.080   .     S
C661   C872    1.416   .     S
C662   N684    1.366   .     A
C662   H676    1.082   .     S
C662   C1081   1.416   1_545 S
C663   H677    1.080   .     S
C663   N683    1.367   .     A
C663   C870    1.416   .     S
C664   C773    1.408   1_455 S
Cu665  Cu666   2.676   .     S
Cu665  O694    1.959   .     S
Cu665  O698    1.964   .     S
Cu665  N683    2.011   .     S
Cu665  O696    1.964   .     S
Cu665  O685    1.959   .     S
Cu666  O693    1.959   .     S
Cu666  O697    1.964   .     S
Cu666  N684    2.011   .     S
Cu666  O699    1.964   .     S
Cu666  O695    1.959   .     S
C701   O765    1.287   .     A
C701   O755    1.287   .     A
C701   C719    1.448   .     S
C702   C718    1.410   .     A
C702   C726    1.491   .     S
C702   C774    1.408   .     S
C703   C727    1.491   .     S
C703   C718    1.411   .     A
C703   C804    1.408   .     S
C704   C728    1.491   .     S
C704   C719    1.410   .     A
C705   C709    1.396   .     A
C705   H748    1.085   .     S
C705   C716    1.390   .     A
C706   C710    1.397   .     A
C706   C717    1.390   .     A
C706   H749    1.085   .     S
C707   C711    1.396   .     A
C707   H750    1.085   .     S
C707   C717    1.390   .     A
C708   C713    1.397   .     A
C708   H751    1.085   .     S
C708   C716    1.390   .     A
C709   C714    1.427   .     A
C709   C720    1.487   .     S
C710   C715    1.428   .     A
C710   C721    1.489   .     S
C711   C722    1.487   .     S
C711   C715    1.427   .     A
C712   O764    1.287   .     A
C712   O763    1.287   .     A
C712   C718    1.449   .     S
C713   C714    1.428   .     A
C713   C724    1.489   .     S
C714   C723    1.477   .     S
C715   C729    1.477   .     S
C717   C86     1.457   1_556 S
C719   C734    1.410   .     A
C720   H752    1.081   .     S
C720   O770    1.222   .     D
C721   O756    1.222   .     D
C721   H738    1.082   .     S
C722   O757    1.222   .     D
C722   H739    1.081   .     S
C723   O769    1.295   .     A
C723   O766    1.297   .     A
C724   H740    1.082   .     S
C724   O758    1.222   .     D
C725   O759    1.221   .     D
C725   C734    1.491   .     S
C725   H741    1.085   .     S
C726   O760    1.221   .     D
C726   H742    1.085   .     S
C727   H743    1.085   .     S
C727   O761    1.221   .     D
C728   H744    1.085   .     S
C728   O762    1.221   .     D
C729   O767    1.295   .     A
C729   O768    1.296   .     A
C730   N754    1.366   .     A
C730   H737    1.082   .     S
C730   C1153   1.416   1_545 S
C731   N753    1.367   .     A
C731   H745    1.080   .     S
C731   C942    1.416   .     S
C732   N754    1.366   .     A
C732   H746    1.082   .     S
C732   C1151   1.416   1_545 S
C733   H747    1.080   .     S
C733   N753    1.367   .     A
C733   C940    1.416   .     S
Cu735  Cu736   2.676   .     S
Cu735  O764    1.959   .     S
Cu735  O768    1.964   .     S
Cu735  N753    2.011   .     S
Cu735  O766    1.964   .     S
Cu735  O755    1.959   .     S
Cu736  O763    1.959   .     S
Cu736  O767    1.964   .     S
Cu736  N754    2.011   .     S
Cu736  O769    1.964   .     S
Cu736  O765    1.959   .     S
C771   O835    1.287   .     A
C771   O825    1.287   .     A
C771   C789    1.448   .     S
C772   C788    1.410   .     A
C772   C796    1.491   .     S
C772   C634    1.408   1_655 S
C773   C797    1.491   .     S
C773   C788    1.411   .     A
C773   C664    1.408   1_655 S
C774   C798    1.491   .     S
C774   C789    1.410   .     A
C775   C779    1.396   .     A
C775   H818    1.085   .     S
C775   C786    1.390   .     A
C776   C780    1.397   .     A
C776   C787    1.390   .     A
C776   H819    1.085   .     S
C777   C781    1.396   .     A
C777   H820    1.085   .     S
C777   C787    1.390   .     A
C778   C783    1.397   .     A
C778   H821    1.085   .     S
C778   C786    1.390   .     A
C779   C784    1.427   .     A
C779   C790    1.487   .     S
C780   C785    1.428   .     A
C780   C791    1.489   .     S
C781   C792    1.487   .     S
C781   C785    1.427   .     A
C782   O834    1.287   .     A
C782   O833    1.287   .     A
C782   C788    1.449   .     S
C783   C784    1.428   .     A
C783   C794    1.489   .     S
C784   C793    1.477   .     S
C785   C799    1.477   .     S
C787   C156    1.457   1_556 S
C789   C804    1.410   .     A
C790   H822    1.081   .     S
C790   O840    1.222   .     D
C791   O826    1.222   .     D
C791   H808    1.082   .     S
C792   O827    1.222   .     D
C792   H809    1.081   .     S
C793   O839    1.295   .     A
C793   O836    1.297   .     A
C794   H810    1.082   .     S
C794   O828    1.222   .     D
C795   O829    1.221   .     D
C795   C804    1.491   .     S
C795   H811    1.085   .     S
C796   O830    1.221   .     D
C796   H812    1.085   .     S
C797   H813    1.085   .     S
C797   O831    1.221   .     D
C798   H814    1.085   .     S
C798   O832    1.221   .     D
C799   O837    1.295   .     A
C799   O838    1.296   .     A
C800   N824    1.366   .     A
C800   H807    1.082   .     S
C800   C1223   1.416   1_545 S
C801   N823    1.367   .     A
C801   H815    1.080   .     S
C801   C1012   1.416   .     S
C802   N824    1.366   .     A
C802   H816    1.082   .     S
C802   C1221   1.416   1_545 S
C803   H817    1.080   .     S
C803   N823    1.367   .     A
C803   C1010   1.416   .     S
Cu805  Cu806   2.676   .     S
Cu805  O834    1.959   .     S
Cu805  O838    1.964   .     S
Cu805  N823    2.011   .     S
Cu805  O836    1.964   .     S
Cu805  O825    1.959   .     S
Cu806  O833    1.959   .     S
Cu806  O837    1.964   .     S
Cu806  N824    2.011   .     S
Cu806  O839    1.964   .     S
Cu806  O835    1.959   .     S
C841   O905    1.287   .     A
C841   O895    1.287   .     A
C841   C859    1.448   .     S
C842   C858    1.410   .     A
C842   C866    1.491   .     S
C842   C914    1.408   .     S
C843   C867    1.491   .     S
C843   C858    1.411   .     A
C843   C944    1.408   .     S
C844   C868    1.491   .     S
C844   C859    1.410   .     A
C844   C982    1.408   1_455 S
C845   C849    1.396   .     A
C845   H888    1.085   .     S
C845   C856    1.390   .     A
C846   C850    1.397   .     A
C846   C857    1.390   .     A
C846   H889    1.085   .     S
C847   C851    1.396   .     A
C847   H890    1.085   .     S
C847   C857    1.390   .     A
C848   C853    1.397   .     A
C848   H891    1.085   .     S
C848   C856    1.390   .     A
C849   C854    1.427   .     A
C849   C860    1.487   .     S
C850   C855    1.428   .     A
C850   C861    1.489   .     S
C851   C862    1.487   .     S
C851   C855    1.427   .     A
C852   O904    1.287   .     A
C852   O903    1.287   .     A
C852   C858    1.449   .     S
C853   C854    1.428   .     A
C853   C864    1.489   .     S
C854   C863    1.477   .     S
C855   C869    1.477   .     S
C857   C226    1.457   1_556 S
C859   C874    1.410   .     A
C860   H892    1.081   .     S
C860   O910    1.222   .     D
C861   O896    1.222   .     D
C861   H878    1.082   .     S
C862   O897    1.222   .     D
C862   H879    1.081   .     S
C863   O909    1.295   .     A
C863   O906    1.297   .     A
C864   H880    1.082   .     S
C864   O898    1.222   .     D
C865   O899    1.221   .     D
C865   C874    1.491   .     S
C865   H881    1.085   .     S
C866   O900    1.221   .     D
C866   H882    1.085   .     S
C867   H883    1.085   .     S
C867   O901    1.221   .     D
C868   H884    1.085   .     S
C868   O902    1.221   .     D
C869   O907    1.295   .     A
C869   O908    1.296   .     A
C870   N894    1.366   .     A
C870   H877    1.082   .     S
C871   N893    1.367   .     A
C871   H885    1.080   .     S
C871   C1082   1.416   .     S
C872   N894    1.366   .     A
C872   H886    1.082   .     S
C873   H887    1.080   .     S
C873   N893    1.367   .     A
C873   C1080   1.416   .     S
C874   C983    1.408   1_455 S
Cu875  Cu876   2.676   .     S
Cu875  O904    1.959   .     S
Cu875  O908    1.964   .     S
Cu875  N893    2.011   .     S
Cu875  O906    1.964   .     S
Cu875  O895    1.959   .     S
Cu876  O903    1.959   .     S
Cu876  O907    1.964   .     S
Cu876  N894    2.011   .     S
Cu876  O909    1.964   .     S
Cu876  O905    1.959   .     S
C911   O975    1.287   .     A
C911   O965    1.287   .     A
C911   C929    1.448   .     S
C912   C928    1.410   .     A
C912   C936    1.491   .     S
C912   C984    1.408   .     S
C913   C937    1.491   .     S
C913   C928    1.411   .     A
C913   C1014   1.408   .     S
C914   C938    1.491   .     S
C914   C929    1.410   .     A
C915   C919    1.396   .     A
C915   H958    1.085   .     S
C915   C926    1.390   .     A
C916   C920    1.397   .     A
C916   C927    1.390   .     A
C916   H959    1.085   .     S
C917   C921    1.396   .     A
C917   H960    1.085   .     S
C917   C927    1.390   .     A
C918   C923    1.397   .     A
C918   H961    1.085   .     S
C918   C926    1.390   .     A
C919   C924    1.427   .     A
C919   C930    1.487   .     S
C920   C925    1.428   .     A
C920   C931    1.489   .     S
C921   C932    1.487   .     S
C921   C925    1.427   .     A
C922   O974    1.287   .     A
C922   O973    1.287   .     A
C922   C928    1.449   .     S
C923   C924    1.428   .     A
C923   C934    1.489   .     S
C924   C933    1.477   .     S
C925   C939    1.477   .     S
C927   C296    1.457   1_556 S
C929   C944    1.410   .     A
C930   H962    1.081   .     S
C930   O980    1.222   .     D
C931   O966    1.222   .     D
C931   H948    1.082   .     S
C932   O967    1.222   .     D
C932   H949    1.081   .     S
C933   O979    1.295   .     A
C933   O976    1.297   .     A
C934   H950    1.082   .     S
C934   O968    1.222   .     D
C935   O969    1.221   .     D
C935   C944    1.491   .     S
C935   H951    1.085   .     S
C936   O970    1.221   .     D
C936   H952    1.085   .     S
C937   H953    1.085   .     S
C937   O971    1.221   .     D
C938   H954    1.085   .     S
C938   O972    1.221   .     D
C939   O977    1.295   .     A
C939   O978    1.296   .     A
C940   N964    1.366   .     A
C940   H947    1.082   .     S
C941   N963    1.367   .     A
C941   H955    1.080   .     S
C941   C1152   1.416   .     S
C942   N964    1.366   .     A
C942   H956    1.082   .     S
C943   H957    1.080   .     S
C943   N963    1.367   .     A
C943   C1150   1.416   .     S
Cu945  Cu946   2.676   .     S
Cu945  O974    1.959   .     S
Cu945  O978    1.964   .     S
Cu945  N963    2.011   .     S
Cu945  O976    1.964   .     S
Cu945  O965    1.959   .     S
Cu946  O973    1.959   .     S
Cu946  O977    1.964   .     S
Cu946  N964    2.011   .     S
Cu946  O979    1.964   .     S
Cu946  O975    1.959   .     S
C981   O1045   1.287   .     A
C981   O1035   1.287   .     A
C981   C999    1.448   .     S
C982   C998    1.410   .     A
C982   C1006   1.491   .     S
C982   C844    1.408   1_655 S
C983   C1007   1.491   .     S
C983   C998    1.411   .     A
C983   C874    1.408   1_655 S
C984   C1008   1.491   .     S
C984   C999    1.410   .     A
C985   C989    1.396   .     A
C985   H1028   1.085   .     S
C985   C996    1.390   .     A
C986   C990    1.397   .     A
C986   C997    1.390   .     A
C986   H1029   1.085   .     S
C987   C991    1.396   .     A
C987   H1030   1.085   .     S
C987   C997    1.390   .     A
C988   C993    1.397   .     A
C988   H1031   1.085   .     S
C988   C996    1.390   .     A
C989   C994    1.427   .     A
C989   C1000   1.487   .     S
C990   C995    1.428   .     A
C990   C1001   1.489   .     S
C991   C1002   1.487   .     S
C991   C995    1.427   .     A
C992   O1044   1.287   .     A
C992   O1043   1.287   .     A
C992   C998    1.449   .     S
C993   C994    1.428   .     A
C993   C1004   1.489   .     S
C994   C1003   1.477   .     S
C995   C1009   1.477   .     S
C997   C366    1.457   1_556 S
C999   C1014   1.410   .     A
C1000  H1032   1.081   .     S
C1000  O1050   1.222   .     D
C1001  O1036   1.222   .     D
C1001  H1018   1.082   .     S
C1002  O1037   1.222   .     D
C1002  H1019   1.081   .     S
C1003  O1049   1.295   .     A
C1003  O1046   1.297   .     A
C1004  H1020   1.082   .     S
C1004  O1038   1.222   .     D
C1005  O1039   1.221   .     D
C1005  C1014   1.491   .     S
C1005  H1021   1.085   .     S
C1006  O1040   1.221   .     D
C1006  H1022   1.085   .     S
C1007  H1023   1.085   .     S
C1007  O1041   1.221   .     D
C1008  H1024   1.085   .     S
C1008  O1042   1.221   .     D
C1009  O1047   1.295   .     A
C1009  O1048   1.296   .     A
C1010  N1034   1.366   .     A
C1010  H1017   1.082   .     S
C1011  N1033   1.367   .     A
C1011  H1025   1.080   .     S
C1011  C1222   1.416   .     S
C1012  N1034   1.366   .     A
C1012  H1026   1.082   .     S
C1013  H1027   1.080   .     S
C1013  N1033   1.367   .     A
C1013  C1220   1.416   .     S
Cu1015 Cu1016  2.676   .     S
Cu1015 O1044   1.959   .     S
Cu1015 O1048   1.964   .     S
Cu1015 N1033   2.011   .     S
Cu1015 O1046   1.964   .     S
Cu1015 O1035   1.959   .     S
Cu1016 O1043   1.959   .     S
Cu1016 O1047   1.964   .     S
Cu1016 N1034   2.011   .     S
Cu1016 O1049   1.964   .     S
Cu1016 O1045   1.959   .     S
C1051  O1115   1.287   .     A
C1051  O1105   1.287   .     A
C1051  C1069   1.448   .     S
C1052  C1068   1.410   .     A
C1052  C1076   1.491   .     S
C1052  C1124   1.408   .     S
C1053  C1077   1.491   .     S
C1053  C1068   1.411   .     A
C1053  C1154   1.408   .     S
C1054  C1078   1.491   .     S
C1054  C1069   1.410   .     A
C1054  C1192   1.408   1_455 S
C1055  C1059   1.396   .     A
C1055  H1098   1.085   .     S
C1055  C1066   1.390   .     A
C1056  C1060   1.397   .     A
C1056  C1067   1.390   .     A
C1056  H1099   1.085   .     S
C1057  C1061   1.396   .     A
C1057  H1100   1.085   .     S
C1057  C1067   1.390   .     A
C1058  C1063   1.397   .     A
C1058  H1101   1.085   .     S
C1058  C1066   1.390   .     A
C1059  C1064   1.427   .     A
C1059  C1070   1.487   .     S
C1060  C1065   1.428   .     A
C1060  C1071   1.489   .     S
C1061  C1072   1.487   .     S
C1061  C1065   1.427   .     A
C1062  O1114   1.287   .     A
C1062  O1113   1.287   .     A
C1062  C1068   1.449   .     S
C1063  C1064   1.428   .     A
C1063  C1074   1.489   .     S
C1064  C1073   1.477   .     S
C1065  C1079   1.477   .     S
C1067  C436    1.457   1_556 S
C1069  C1084   1.410   .     A
C1070  H1102   1.081   .     S
C1070  O1120   1.222   .     D
C1071  O1106   1.222   .     D
C1071  H1088   1.082   .     S
C1072  O1107   1.222   .     D
C1072  H1089   1.081   .     S
C1073  O1119   1.295   .     A
C1073  O1116   1.297   .     A
C1074  H1090   1.082   .     S
C1074  O1108   1.222   .     D
C1075  O1109   1.221   .     D
C1075  C1084   1.491   .     S
C1075  H1091   1.085   .     S
C1076  O1110   1.221   .     D
C1076  H1092   1.085   .     S
C1077  H1093   1.085   .     S
C1077  O1111   1.221   .     D
C1078  H1094   1.085   .     S
C1078  O1112   1.221   .     D
C1079  O1117   1.295   .     A
C1079  O1118   1.296   .     A
C1080  N1104   1.366   .     A
C1080  H1087   1.082   .     S
C1081  N1103   1.367   .     A
C1081  H1095   1.080   .     S
C1081  C662    1.416   1_565 S
C1082  N1104   1.366   .     A
C1082  H1096   1.082   .     S
C1083  H1097   1.080   .     S
C1083  N1103   1.367   .     A
C1083  C660    1.416   1_565 S
C1084  C1193   1.408   1_455 S
Cu1085 Cu1086  2.676   .     S
Cu1085 O1114   1.959   .     S
Cu1085 O1118   1.964   .     S
Cu1085 N1103   2.011   .     S
Cu1085 O1116   1.964   .     S
Cu1085 O1105   1.959   .     S
Cu1086 O1113   1.959   .     S
Cu1086 O1117   1.964   .     S
Cu1086 N1104   2.011   .     S
Cu1086 O1119   1.964   .     S
Cu1086 O1115   1.959   .     S
C1121  O1185   1.287   .     A
C1121  O1175   1.287   .     A
C1121  C1139   1.448   .     S
C1122  C1138   1.410   .     A
C1122  C1146   1.491   .     S
C1122  C1194   1.408   .     S
C1123  C1147   1.491   .     S
C1123  C1138   1.411   .     A
C1123  C1224   1.408   .     S
C1124  C1148   1.491   .     S
C1124  C1139   1.410   .     A
C1125  C1129   1.396   .     A
C1125  H1168   1.085   .     S
C1125  C1136   1.390   .     A
C1126  C1130   1.397   .     A
C1126  C1137   1.390   .     A
C1126  H1169   1.085   .     S
C1127  C1131   1.396   .     A
C1127  H1170   1.085   .     S
C1127  C1137   1.390   .     A
C1128  C1133   1.397   .     A
C1128  H1171   1.085   .     S
C1128  C1136   1.390   .     A
C1129  C1134   1.427   .     A
C1129  C1140   1.487   .     S
C1130  C1135   1.428   .     A
C1130  C1141   1.489   .     S
C1131  C1142   1.487   .     S
C1131  C1135   1.427   .     A
C1132  O1184   1.287   .     A
C1132  O1183   1.287   .     A
C1132  C1138   1.449   .     S
C1133  C1134   1.428   .     A
C1133  C1144   1.489   .     S
C1134  C1143   1.477   .     S
C1135  C1149   1.477   .     S
C1137  C506    1.457   1_556 S
C1139  C1154   1.410   .     A
C1140  H1172   1.081   .     S
C1140  O1190   1.222   .     D
C1141  O1176   1.222   .     D
C1141  H1158   1.082   .     S
C1142  O1177   1.222   .     D
C1142  H1159   1.081   .     S
C1143  O1189   1.295   .     A
C1143  O1186   1.297   .     A
C1144  H1160   1.082   .     S
C1144  O1178   1.222   .     D
C1145  O1179   1.221   .     D
C1145  C1154   1.491   .     S
C1145  H1161   1.085   .     S
C1146  O1180   1.221   .     D
C1146  H1162   1.085   .     S
C1147  H1163   1.085   .     S
C1147  O1181   1.221   .     D
C1148  H1164   1.085   .     S
C1148  O1182   1.221   .     D
C1149  O1187   1.295   .     A
C1149  O1188   1.296   .     A
C1150  N1174   1.366   .     A
C1150  H1157   1.082   .     S
C1151  N1173   1.367   .     A
C1151  H1165   1.080   .     S
C1151  C732    1.416   1_565 S
C1152  N1174   1.366   .     A
C1152  H1166   1.082   .     S
C1153  H1167   1.080   .     S
C1153  N1173   1.367   .     A
C1153  C730    1.416   1_565 S
Cu1155 Cu1156  2.676   .     S
Cu1155 O1184   1.959   .     S
Cu1155 O1188   1.964   .     S
Cu1155 N1173   2.011   .     S
Cu1155 O1186   1.964   .     S
Cu1155 O1175   1.959   .     S
Cu1156 O1183   1.959   .     S
Cu1156 O1187   1.964   .     S
Cu1156 N1174   2.011   .     S
Cu1156 O1189   1.964   .     S
Cu1156 O1185   1.959   .     S
C1191  O1255   1.287   .     A
C1191  O1245   1.287   .     A
C1191  C1209   1.448   .     S
C1192  C1208   1.410   .     A
C1192  C1216   1.491   .     S
C1192  C1054   1.408   1_655 S
C1193  C1217   1.491   .     S
C1193  C1208   1.411   .     A
C1193  C1084   1.408   1_655 S
C1194  C1218   1.491   .     S
C1194  C1209   1.410   .     A
C1195  C1199   1.396   .     A
C1195  H1238   1.085   .     S
C1195  C1206   1.390   .     A
C1196  C1200   1.397   .     A
C1196  C1207   1.390   .     A
C1196  H1239   1.085   .     S
C1197  C1201   1.396   .     A
C1197  H1240   1.085   .     S
C1197  C1207   1.390   .     A
C1198  C1203   1.397   .     A
C1198  H1241   1.085   .     S
C1198  C1206   1.390   .     A
C1199  C1204   1.427   .     A
C1199  C1210   1.487   .     S
C1200  C1205   1.428   .     A
C1200  C1211   1.489   .     S
C1201  C1212   1.487   .     S
C1201  C1205   1.427   .     A
C1202  O1254   1.287   .     A
C1202  O1253   1.287   .     A
C1202  C1208   1.449   .     S
C1203  C1204   1.428   .     A
C1203  C1214   1.489   .     S
C1204  C1213   1.477   .     S
C1205  C1219   1.477   .     S
C1207  C576    1.457   1_556 S
C1209  C1224   1.410   .     A
C1210  H1242   1.081   .     S
C1210  O1260   1.222   .     D
C1211  O1246   1.222   .     D
C1211  H1228   1.082   .     S
C1212  O1247   1.222   .     D
C1212  H1229   1.081   .     S
C1213  O1259   1.295   .     A
C1213  O1256   1.297   .     A
C1214  H1230   1.082   .     S
C1214  O1248   1.222   .     D
C1215  O1249   1.221   .     D
C1215  C1224   1.491   .     S
C1215  H1231   1.085   .     S
C1216  O1250   1.221   .     D
C1216  H1232   1.085   .     S
C1217  H1233   1.085   .     S
C1217  O1251   1.221   .     D
C1218  H1234   1.085   .     S
C1218  O1252   1.221   .     D
C1219  O1257   1.295   .     A
C1219  O1258   1.296   .     A
C1220  N1244   1.366   .     A
C1220  H1227   1.082   .     S
C1221  N1243   1.367   .     A
C1221  H1235   1.080   .     S
C1221  C802    1.416   1_565 S
C1222  N1244   1.366   .     A
C1222  H1236   1.082   .     S
C1223  H1237   1.080   .     S
C1223  N1243   1.367   .     A
C1223  C800    1.416   1_565 S
Cu1225 Cu1226  2.676   .     S
Cu1225 O1254   1.959   .     S
Cu1225 O1258   1.964   .     S
Cu1225 N1243   2.011   .     S
Cu1225 O1256   1.964   .     S
Cu1225 O1245   1.959   .     S
Cu1226 O1253   1.959   .     S
Cu1226 O1257   1.964   .     S
Cu1226 N1244   2.011   .     S
Cu1226 O1259   1.964   .     S
Cu1226 O1255   1.959   .     S
