data_str_m2_o1_o10_pcu_sym.16
_audit_creation_date              2020-01-03
_audit_creation_method            'Materials Studio'
_symmetry_space_group_name_H-M    'P1'
_symmetry_Int_Tables_number       1
_symmetry_cell_setting            triclinic
loop_
_symmetry_equiv_pos_as_xyz
  x,y,z
_cell_length_a                    26.1472
_cell_length_b                    32.2574
_cell_length_c                    28.9089
_cell_angle_alpha                 89.6374
_cell_angle_beta                  97.7565
_cell_angle_gamma                 92.1425
loop_
_atom_site_label
_atom_site_type_symbol
_atom_site_fract_x
_atom_site_fract_y
_atom_site_fract_z
_atom_site_U_iso_or_equiv
_atom_site_adp_type
_atom_site_occupancy
C1     C     0.16751   0.08762   0.16686   0.00000  Uiso   1.00
C2     C     0.12736   0.02113   0.18354   0.00000  Uiso   1.00
C3     C     0.16488   0.29036   0.16621   0.00000  Uiso   1.00
C4     C     0.16846   0.04297   0.16712   0.00000  Uiso   1.00
C5     C     0.13159   0.14239   0.02071   0.00000  Uiso   1.00
C6     C     0.20175   0.19094   0.31263   0.00000  Uiso   1.00
C7     C     0.13168   0.14227   0.30456   0.00000  Uiso   1.00
C8     C     0.20165   0.19106   0.02877   0.00000  Uiso   1.00
C9     C     0.25384   0.04472   0.13457   0.00000  Uiso   1.00
C10    C     0.07949   0.28862   0.19877   0.00000  Uiso   1.00
C11    C     0.09437   0.11478   0.04124   0.00000  Uiso   1.00
C12    C     0.16582   0.24572   0.16648   0.00000  Uiso   1.00
C13    C     0.23897   0.21855   0.29209   0.00000  Uiso   1.00
C14    C     0.09518   0.11374   0.27582   0.00000  Uiso   1.00
C15    C     0.23815   0.21959   0.05751   0.00000  Uiso   1.00
C16    C     0.06806   0.16610   0.15472   0.00000  Uiso   1.00
C17    C     0.26528   0.16723   0.17862   0.00000  Uiso   1.00
C18    C     0.01269   0.16418   0.14840   0.00000  Uiso   1.00
C19    C     0.32065   0.16915   0.18494   0.00000  Uiso   1.00
C20    C     0.20853   0.02209   0.15016   0.00000  Uiso   1.00
C21    C     0.12481   0.31125   0.18317   0.00000  Uiso   1.00
C22    C     0.20597   0.31220   0.14980   0.00000  Uiso   1.00
Cu23   Cu    0.16667   0.16667   0.21355   0.00000  Uiso   1.00
Cu24   Cu    0.16667   0.16666   0.11978   0.00000  Uiso   1.00
H25    H     0.32608   0.15785   0.11360   0.00000  Uiso   1.00
H26    H     0.22427   0.24609   0.07397   0.00000  Uiso   1.00
H27    H     0.00726   0.17548   0.21973   0.00000  Uiso   1.00
H28    H     0.23677   0.29526   0.13791   0.00000  Uiso   1.00
H29    H     0.09657   0.03807   0.19543   0.00000  Uiso   1.00
H30    H     0.25870   0.07810   0.13820   0.00000  Uiso   1.00
H31    H     0.07463   0.25523   0.19513   0.00000  Uiso   1.00
H32    H     0.10695   0.08646   0.05879   0.00000  Uiso   1.00
H33    H     0.22639   0.24688   0.27455   0.00000  Uiso   1.00
H34    H     0.10906   0.08724   0.25936   0.00000  Uiso   1.00
N35    N     0.16668   0.16668   0.28403   0.00000  Uiso   1.00
N36    N     0.16665   0.16666   0.04931   0.00000  Uiso   1.00
O37    O     0.16666   0.10655   0.20625   0.00000  Uiso   1.00
O38    O     0.04656   0.30713   0.21565   0.00000  Uiso   1.00
O39    O     0.04874   0.12288   0.03708   0.00000  Uiso   1.00
O40    O     0.28460   0.21046   0.29626   0.00000  Uiso   1.00
O41    O     0.04875   0.11841   0.27254   0.00000  Uiso   1.00
O42    O     0.28458   0.21492   0.06079   0.00000  Uiso   1.00
O43    O     0.16667   0.22678   0.12709   0.00000  Uiso   1.00
O44    O     0.16666   0.10654   0.12706   0.00000  Uiso   1.00
O45    O     0.16667   0.22679   0.20628   0.00000  Uiso   1.00
O46    O     0.09161   0.16667   0.19712   0.00000  Uiso   1.00
O47    O     0.24172   0.16666   0.13621   0.00000  Uiso   1.00
O48    O     0.09161   0.16666   0.11793   0.00000  Uiso   1.00
O49    O     0.24172   0.16667   0.21540   0.00000  Uiso   1.00
O50    O     0.28678   0.02620   0.11769   0.00000  Uiso   1.00
C51    C     0.50084   0.08762   0.16686   0.00000  Uiso   1.00
C52    C     0.46070   0.02113   0.18354   0.00000  Uiso   1.00
C53    C     0.49821   0.29036   0.16621   0.00000  Uiso   1.00
C54    C     0.50179   0.04297   0.16712   0.00000  Uiso   1.00
C55    C     0.46492   0.14239   0.02071   0.00000  Uiso   1.00
C56    C     0.53508   0.19094   0.31263   0.00000  Uiso   1.00
C57    C     0.46502   0.14227   0.30456   0.00000  Uiso   1.00
C58    C     0.53498   0.19106   0.02877   0.00000  Uiso   1.00
C59    C     0.58718   0.04472   0.13457   0.00000  Uiso   1.00
C60    C     0.41282   0.28862   0.19877   0.00000  Uiso   1.00
C61    C     0.42770   0.11478   0.04124   0.00000  Uiso   1.00
C62    C     0.49916   0.24572   0.16648   0.00000  Uiso   1.00
C63    C     0.57230   0.21855   0.29209   0.00000  Uiso   1.00
C64    C     0.42852   0.11374   0.27582   0.00000  Uiso   1.00
C65    C     0.57148   0.21959   0.05751   0.00000  Uiso   1.00
C66    C     0.40139   0.16610   0.15472   0.00000  Uiso   1.00
C67    C     0.59861   0.16723   0.17862   0.00000  Uiso   1.00
C68    C     0.34602   0.16418   0.14840   0.00000  Uiso   1.00
C69    C     0.65398   0.16915   0.18494   0.00000  Uiso   1.00
C70    C     0.54186   0.02209   0.15016   0.00000  Uiso   1.00
C71    C     0.45814   0.31125   0.18317   0.00000  Uiso   1.00
C72    C     0.53930   0.31220   0.14980   0.00000  Uiso   1.00
Cu73   Cu    0.50000   0.16667   0.21355   0.00000  Uiso   1.00
Cu74   Cu    0.50000   0.16666   0.11978   0.00000  Uiso   1.00
H75    H     0.65941   0.15785   0.11360   0.00000  Uiso   1.00
H76    H     0.55761   0.24609   0.07397   0.00000  Uiso   1.00
H77    H     0.34059   0.17548   0.21973   0.00000  Uiso   1.00
H78    H     0.57010   0.29526   0.13791   0.00000  Uiso   1.00
H79    H     0.42990   0.03807   0.19543   0.00000  Uiso   1.00
H80    H     0.59203   0.07810   0.13820   0.00000  Uiso   1.00
H81    H     0.40797   0.25523   0.19513   0.00000  Uiso   1.00
H82    H     0.44028   0.08646   0.05879   0.00000  Uiso   1.00
H83    H     0.55972   0.24688   0.27455   0.00000  Uiso   1.00
H84    H     0.44239   0.08724   0.25936   0.00000  Uiso   1.00
N85    N     0.50001   0.16668   0.28403   0.00000  Uiso   1.00
N86    N     0.49999   0.16666   0.04931   0.00000  Uiso   1.00
O87    O     0.50000   0.10655   0.20625   0.00000  Uiso   1.00
O88    O     0.37989   0.30713   0.21565   0.00000  Uiso   1.00
O89    O     0.38207   0.12288   0.03708   0.00000  Uiso   1.00
O90    O     0.61793   0.21046   0.29626   0.00000  Uiso   1.00
O91    O     0.38208   0.11841   0.27254   0.00000  Uiso   1.00
O92    O     0.61792   0.21492   0.06079   0.00000  Uiso   1.00
O93    O     0.50000   0.22678   0.12709   0.00000  Uiso   1.00
O94    O     0.50000   0.10654   0.12706   0.00000  Uiso   1.00
O95    O     0.50000   0.22679   0.20628   0.00000  Uiso   1.00
O96    O     0.42495   0.16667   0.19712   0.00000  Uiso   1.00
O97    O     0.57505   0.16666   0.13621   0.00000  Uiso   1.00
O98    O     0.42494   0.16666   0.11793   0.00000  Uiso   1.00
O99    O     0.57506   0.16667   0.21540   0.00000  Uiso   1.00
O100   O     0.62012   0.02620   0.11769   0.00000  Uiso   1.00
C101   C     0.83418   0.08762   0.16686   0.00000  Uiso   1.00
C102   C     0.79403   0.02113   0.18354   0.00000  Uiso   1.00
C103   C     0.83154   0.29036   0.16621   0.00000  Uiso   1.00
C104   C     0.83512   0.04297   0.16712   0.00000  Uiso   1.00
C105   C     0.79825   0.14239   0.02071   0.00000  Uiso   1.00
C106   C     0.86841   0.19094   0.31263   0.00000  Uiso   1.00
C107   C     0.79835   0.14227   0.30456   0.00000  Uiso   1.00
C108   C     0.86832   0.19106   0.02877   0.00000  Uiso   1.00
C109   C     0.92051   0.04472   0.13457   0.00000  Uiso   1.00
C110   C     0.74616   0.28862   0.19877   0.00000  Uiso   1.00
C111   C     0.76103   0.11478   0.04124   0.00000  Uiso   1.00
C112   C     0.83249   0.24572   0.16648   0.00000  Uiso   1.00
C113   C     0.90563   0.21855   0.29209   0.00000  Uiso   1.00
C114   C     0.76185   0.11374   0.27582   0.00000  Uiso   1.00
C115   C     0.90482   0.21959   0.05751   0.00000  Uiso   1.00
C116   C     0.73472   0.16610   0.15472   0.00000  Uiso   1.00
C117   C     0.93194   0.16723   0.17862   0.00000  Uiso   1.00
C118   C     0.67935   0.16418   0.14840   0.00000  Uiso   1.00
C119   C     0.98731   0.16915   0.18494   0.00000  Uiso   1.00
C120   C     0.87519   0.02209   0.15016   0.00000  Uiso   1.00
C121   C     0.79147   0.31125   0.18317   0.00000  Uiso   1.00
C122   C     0.87264   0.31220   0.14980   0.00000  Uiso   1.00
Cu123  Cu    0.83333   0.16667   0.21355   0.00000  Uiso   1.00
Cu124  Cu    0.83333   0.16666   0.11978   0.00000  Uiso   1.00
H125   H     0.99274   0.15785   0.11360   0.00000  Uiso   1.00
H126   H     0.89094   0.24609   0.07397   0.00000  Uiso   1.00
H127   H     0.67392   0.17548   0.21973   0.00000  Uiso   1.00
H128   H     0.90343   0.29526   0.13791   0.00000  Uiso   1.00
H129   H     0.76323   0.03807   0.19543   0.00000  Uiso   1.00
H130   H     0.92537   0.07810   0.13820   0.00000  Uiso   1.00
H131   H     0.74130   0.25523   0.19513   0.00000  Uiso   1.00
H132   H     0.77361   0.08646   0.05879   0.00000  Uiso   1.00
H133   H     0.89305   0.24688   0.27455   0.00000  Uiso   1.00
H134   H     0.77573   0.08724   0.25936   0.00000  Uiso   1.00
N135   N     0.83335   0.16668   0.28403   0.00000  Uiso   1.00
N136   N     0.83332   0.16666   0.04931   0.00000  Uiso   1.00
O137   O     0.83333   0.10655   0.20625   0.00000  Uiso   1.00
O138   O     0.71322   0.30713   0.21565   0.00000  Uiso   1.00
O139   O     0.71540   0.12288   0.03708   0.00000  Uiso   1.00
O140   O     0.95126   0.21046   0.29626   0.00000  Uiso   1.00
O141   O     0.71542   0.11841   0.27254   0.00000  Uiso   1.00
O142   O     0.95125   0.21492   0.06079   0.00000  Uiso   1.00
O143   O     0.83334   0.22678   0.12709   0.00000  Uiso   1.00
O144   O     0.83333   0.10654   0.12706   0.00000  Uiso   1.00
O145   O     0.83334   0.22679   0.20628   0.00000  Uiso   1.00
O146   O     0.75828   0.16667   0.19712   0.00000  Uiso   1.00
O147   O     0.90839   0.16666   0.13621   0.00000  Uiso   1.00
O148   O     0.75828   0.16666   0.11793   0.00000  Uiso   1.00
O149   O     0.90839   0.16667   0.21540   0.00000  Uiso   1.00
O150   O     0.95345   0.02620   0.11769   0.00000  Uiso   1.00
C151   C     0.16751   0.42095   0.16686   0.00000  Uiso   1.00
C152   C     0.12736   0.35447   0.18354   0.00000  Uiso   1.00
C153   C     0.16488   0.62369   0.16621   0.00000  Uiso   1.00
C154   C     0.16846   0.37631   0.16712   0.00000  Uiso   1.00
C155   C     0.13159   0.47572   0.02071   0.00000  Uiso   1.00
C156   C     0.20175   0.52428   0.31263   0.00000  Uiso   1.00
C157   C     0.13168   0.47560   0.30456   0.00000  Uiso   1.00
C158   C     0.20165   0.52440   0.02877   0.00000  Uiso   1.00
C159   C     0.25384   0.37805   0.13457   0.00000  Uiso   1.00
C160   C     0.07949   0.62195   0.19877   0.00000  Uiso   1.00
C161   C     0.09437   0.44811   0.04124   0.00000  Uiso   1.00
C162   C     0.16582   0.57905   0.16648   0.00000  Uiso   1.00
C163   C     0.23897   0.55189   0.29209   0.00000  Uiso   1.00
C164   C     0.09518   0.44708   0.27582   0.00000  Uiso   1.00
C165   C     0.23815   0.55292   0.05751   0.00000  Uiso   1.00
C166   C     0.06806   0.49944   0.15472   0.00000  Uiso   1.00
C167   C     0.26528   0.50056   0.17862   0.00000  Uiso   1.00
C168   C     0.01269   0.49751   0.14840   0.00000  Uiso   1.00
C169   C     0.32065   0.50249   0.18494   0.00000  Uiso   1.00
C170   C     0.20853   0.35542   0.15016   0.00000  Uiso   1.00
C171   C     0.12481   0.64458   0.18317   0.00000  Uiso   1.00
C172   C     0.20597   0.64553   0.14980   0.00000  Uiso   1.00
Cu173  Cu    0.16667   0.50001   0.21355   0.00000  Uiso   1.00
Cu174  Cu    0.16667   0.49999   0.11978   0.00000  Uiso   1.00
H175   H     0.32608   0.49119   0.11360   0.00000  Uiso   1.00
H176   H     0.22427   0.57943   0.07397   0.00000  Uiso   1.00
H177   H     0.00726   0.50881   0.21973   0.00000  Uiso   1.00
H178   H     0.23677   0.62860   0.13791   0.00000  Uiso   1.00
H179   H     0.09657   0.37140   0.19543   0.00000  Uiso   1.00
H180   H     0.25870   0.41143   0.13820   0.00000  Uiso   1.00
H181   H     0.07463   0.58857   0.19513   0.00000  Uiso   1.00
H182   H     0.10695   0.41979   0.05879   0.00000  Uiso   1.00
H183   H     0.22639   0.58021   0.27455   0.00000  Uiso   1.00
H184   H     0.10906   0.42057   0.25936   0.00000  Uiso   1.00
N185   N     0.16668   0.50001   0.28403   0.00000  Uiso   1.00
N186   N     0.16665   0.49999   0.04931   0.00000  Uiso   1.00
O187   O     0.16666   0.43989   0.20625   0.00000  Uiso   1.00
O188   O     0.04656   0.64046   0.21565   0.00000  Uiso   1.00
O189   O     0.04874   0.45621   0.03708   0.00000  Uiso   1.00
O190   O     0.28460   0.54379   0.29626   0.00000  Uiso   1.00
O191   O     0.04875   0.45174   0.27254   0.00000  Uiso   1.00
O192   O     0.28458   0.54826   0.06079   0.00000  Uiso   1.00
O193   O     0.16667   0.56011   0.12709   0.00000  Uiso   1.00
O194   O     0.16666   0.43988   0.12706   0.00000  Uiso   1.00
O195   O     0.16667   0.56012   0.20628   0.00000  Uiso   1.00
O196   O     0.09161   0.50000   0.19712   0.00000  Uiso   1.00
O197   O     0.24172   0.50000   0.13621   0.00000  Uiso   1.00
O198   O     0.09161   0.49999   0.11793   0.00000  Uiso   1.00
O199   O     0.24172   0.50001   0.21540   0.00000  Uiso   1.00
O200   O     0.28678   0.35954   0.11769   0.00000  Uiso   1.00
C201   C     0.50084   0.42095   0.16686   0.00000  Uiso   1.00
C202   C     0.46070   0.35447   0.18354   0.00000  Uiso   1.00
C203   C     0.49821   0.62369   0.16621   0.00000  Uiso   1.00
C204   C     0.50179   0.37631   0.16712   0.00000  Uiso   1.00
C205   C     0.46492   0.47572   0.02071   0.00000  Uiso   1.00
C206   C     0.53508   0.52428   0.31263   0.00000  Uiso   1.00
C207   C     0.46502   0.47560   0.30456   0.00000  Uiso   1.00
C208   C     0.53498   0.52440   0.02877   0.00000  Uiso   1.00
C209   C     0.58718   0.37805   0.13457   0.00000  Uiso   1.00
C210   C     0.41282   0.62195   0.19877   0.00000  Uiso   1.00
C211   C     0.42770   0.44811   0.04124   0.00000  Uiso   1.00
C212   C     0.49916   0.57905   0.16648   0.00000  Uiso   1.00
C213   C     0.57230   0.55189   0.29209   0.00000  Uiso   1.00
C214   C     0.42852   0.44708   0.27582   0.00000  Uiso   1.00
C215   C     0.57148   0.55292   0.05751   0.00000  Uiso   1.00
C216   C     0.40139   0.49944   0.15472   0.00000  Uiso   1.00
C217   C     0.59861   0.50056   0.17862   0.00000  Uiso   1.00
C218   C     0.34602   0.49751   0.14840   0.00000  Uiso   1.00
C219   C     0.65398   0.50249   0.18494   0.00000  Uiso   1.00
C220   C     0.54186   0.35542   0.15016   0.00000  Uiso   1.00
C221   C     0.45814   0.64458   0.18317   0.00000  Uiso   1.00
C222   C     0.53930   0.64553   0.14980   0.00000  Uiso   1.00
Cu223  Cu    0.50000   0.50001   0.21355   0.00000  Uiso   1.00
Cu224  Cu    0.50000   0.49999   0.11978   0.00000  Uiso   1.00
H225   H     0.65941   0.49119   0.11360   0.00000  Uiso   1.00
H226   H     0.55761   0.57943   0.07397   0.00000  Uiso   1.00
H227   H     0.34059   0.50881   0.21973   0.00000  Uiso   1.00
H228   H     0.57010   0.62860   0.13791   0.00000  Uiso   1.00
H229   H     0.42990   0.37140   0.19543   0.00000  Uiso   1.00
H230   H     0.59203   0.41143   0.13820   0.00000  Uiso   1.00
H231   H     0.40797   0.58857   0.19513   0.00000  Uiso   1.00
H232   H     0.44028   0.41979   0.05879   0.00000  Uiso   1.00
H233   H     0.55972   0.58021   0.27455   0.00000  Uiso   1.00
H234   H     0.44239   0.42057   0.25936   0.00000  Uiso   1.00
N235   N     0.50001   0.50001   0.28403   0.00000  Uiso   1.00
N236   N     0.49999   0.49999   0.04931   0.00000  Uiso   1.00
O237   O     0.50000   0.43989   0.20625   0.00000  Uiso   1.00
O238   O     0.37989   0.64046   0.21565   0.00000  Uiso   1.00
O239   O     0.38207   0.45621   0.03708   0.00000  Uiso   1.00
O240   O     0.61793   0.54379   0.29626   0.00000  Uiso   1.00
O241   O     0.38208   0.45174   0.27254   0.00000  Uiso   1.00
O242   O     0.61792   0.54826   0.06079   0.00000  Uiso   1.00
O243   O     0.50000   0.56011   0.12709   0.00000  Uiso   1.00
O244   O     0.50000   0.43988   0.12706   0.00000  Uiso   1.00
O245   O     0.50000   0.56012   0.20628   0.00000  Uiso   1.00
O246   O     0.42495   0.50000   0.19712   0.00000  Uiso   1.00
O247   O     0.57505   0.50000   0.13621   0.00000  Uiso   1.00
O248   O     0.42494   0.49999   0.11793   0.00000  Uiso   1.00
O249   O     0.57506   0.50001   0.21540   0.00000  Uiso   1.00
O250   O     0.62012   0.35954   0.11769   0.00000  Uiso   1.00
C251   C     0.83418   0.42095   0.16686   0.00000  Uiso   1.00
C252   C     0.79403   0.35447   0.18354   0.00000  Uiso   1.00
C253   C     0.83154   0.62369   0.16621   0.00000  Uiso   1.00
C254   C     0.83512   0.37631   0.16712   0.00000  Uiso   1.00
C255   C     0.79825   0.47572   0.02071   0.00000  Uiso   1.00
C256   C     0.86841   0.52428   0.31263   0.00000  Uiso   1.00
C257   C     0.79835   0.47560   0.30456   0.00000  Uiso   1.00
C258   C     0.86832   0.52440   0.02877   0.00000  Uiso   1.00
C259   C     0.92051   0.37805   0.13457   0.00000  Uiso   1.00
C260   C     0.74616   0.62195   0.19877   0.00000  Uiso   1.00
C261   C     0.76103   0.44811   0.04124   0.00000  Uiso   1.00
C262   C     0.83249   0.57905   0.16648   0.00000  Uiso   1.00
C263   C     0.90563   0.55189   0.29209   0.00000  Uiso   1.00
C264   C     0.76185   0.44708   0.27582   0.00000  Uiso   1.00
C265   C     0.90482   0.55292   0.05751   0.00000  Uiso   1.00
C266   C     0.73472   0.49944   0.15472   0.00000  Uiso   1.00
C267   C     0.93194   0.50056   0.17862   0.00000  Uiso   1.00
C268   C     0.67935   0.49751   0.14840   0.00000  Uiso   1.00
C269   C     0.98731   0.50249   0.18494   0.00000  Uiso   1.00
C270   C     0.87519   0.35542   0.15016   0.00000  Uiso   1.00
C271   C     0.79147   0.64458   0.18317   0.00000  Uiso   1.00
C272   C     0.87264   0.64553   0.14980   0.00000  Uiso   1.00
Cu273  Cu    0.83333   0.50001   0.21355   0.00000  Uiso   1.00
Cu274  Cu    0.83333   0.49999   0.11978   0.00000  Uiso   1.00
H275   H     0.99274   0.49119   0.11360   0.00000  Uiso   1.00
H276   H     0.89094   0.57943   0.07397   0.00000  Uiso   1.00
H277   H     0.67392   0.50881   0.21973   0.00000  Uiso   1.00
H278   H     0.90343   0.62860   0.13791   0.00000  Uiso   1.00
H279   H     0.76323   0.37140   0.19543   0.00000  Uiso   1.00
H280   H     0.92537   0.41143   0.13820   0.00000  Uiso   1.00
H281   H     0.74130   0.58857   0.19513   0.00000  Uiso   1.00
H282   H     0.77361   0.41979   0.05879   0.00000  Uiso   1.00
H283   H     0.89305   0.58021   0.27455   0.00000  Uiso   1.00
H284   H     0.77573   0.42057   0.25936   0.00000  Uiso   1.00
N285   N     0.83335   0.50001   0.28403   0.00000  Uiso   1.00
N286   N     0.83332   0.49999   0.04931   0.00000  Uiso   1.00
O287   O     0.83333   0.43989   0.20625   0.00000  Uiso   1.00
O288   O     0.71322   0.64046   0.21565   0.00000  Uiso   1.00
O289   O     0.71540   0.45621   0.03708   0.00000  Uiso   1.00
O290   O     0.95126   0.54379   0.29626   0.00000  Uiso   1.00
O291   O     0.71542   0.45174   0.27254   0.00000  Uiso   1.00
O292   O     0.95125   0.54826   0.06079   0.00000  Uiso   1.00
O293   O     0.83334   0.56011   0.12709   0.00000  Uiso   1.00
O294   O     0.83333   0.43988   0.12706   0.00000  Uiso   1.00
O295   O     0.83334   0.56012   0.20628   0.00000  Uiso   1.00
O296   O     0.75828   0.50000   0.19712   0.00000  Uiso   1.00
O297   O     0.90839   0.50000   0.13621   0.00000  Uiso   1.00
O298   O     0.75828   0.49999   0.11793   0.00000  Uiso   1.00
O299   O     0.90839   0.50001   0.21540   0.00000  Uiso   1.00
O300   O     0.95345   0.35954   0.11769   0.00000  Uiso   1.00
C301   C     0.16751   0.75429   0.16686   0.00000  Uiso   1.00
C302   C     0.12736   0.68780   0.18354   0.00000  Uiso   1.00
C303   C     0.16488   0.95703   0.16621   0.00000  Uiso   1.00
C304   C     0.16846   0.70964   0.16712   0.00000  Uiso   1.00
C305   C     0.13159   0.80906   0.02071   0.00000  Uiso   1.00
C306   C     0.20175   0.85761   0.31263   0.00000  Uiso   1.00
C307   C     0.13168   0.80894   0.30456   0.00000  Uiso   1.00
C308   C     0.20165   0.85773   0.02877   0.00000  Uiso   1.00
C309   C     0.25384   0.71138   0.13457   0.00000  Uiso   1.00
C310   C     0.07949   0.95528   0.19877   0.00000  Uiso   1.00
C311   C     0.09437   0.78145   0.04124   0.00000  Uiso   1.00
C312   C     0.16582   0.91238   0.16648   0.00000  Uiso   1.00
C313   C     0.23897   0.88522   0.29209   0.00000  Uiso   1.00
C314   C     0.09518   0.78041   0.27582   0.00000  Uiso   1.00
C315   C     0.23815   0.88626   0.05751   0.00000  Uiso   1.00
C316   C     0.06806   0.83277   0.15472   0.00000  Uiso   1.00
C317   C     0.26528   0.83390   0.17862   0.00000  Uiso   1.00
C318   C     0.01269   0.83085   0.14840   0.00000  Uiso   1.00
C319   C     0.32065   0.83582   0.18494   0.00000  Uiso   1.00
C320   C     0.20853   0.68875   0.15016   0.00000  Uiso   1.00
C321   C     0.12481   0.97791   0.18317   0.00000  Uiso   1.00
C322   C     0.20597   0.97887   0.14980   0.00000  Uiso   1.00
Cu323  Cu    0.16667   0.83334   0.21355   0.00000  Uiso   1.00
Cu324  Cu    0.16667   0.83333   0.11978   0.00000  Uiso   1.00
H325   H     0.32608   0.82452   0.11360   0.00000  Uiso   1.00
H326   H     0.22427   0.91276   0.07397   0.00000  Uiso   1.00
H327   H     0.00726   0.84215   0.21973   0.00000  Uiso   1.00
H328   H     0.23677   0.96193   0.13791   0.00000  Uiso   1.00
H329   H     0.09657   0.70474   0.19543   0.00000  Uiso   1.00
H330   H     0.25870   0.74477   0.13820   0.00000  Uiso   1.00
H331   H     0.07463   0.92190   0.19513   0.00000  Uiso   1.00
H332   H     0.10695   0.75312   0.05879   0.00000  Uiso   1.00
H333   H     0.22639   0.91354   0.27455   0.00000  Uiso   1.00
H334   H     0.10906   0.75391   0.25936   0.00000  Uiso   1.00
N335   N     0.16668   0.83334   0.28403   0.00000  Uiso   1.00
N336   N     0.16665   0.83332   0.04931   0.00000  Uiso   1.00
O337   O     0.16666   0.77322   0.20625   0.00000  Uiso   1.00
O338   O     0.04656   0.97380   0.21565   0.00000  Uiso   1.00
O339   O     0.04874   0.78954   0.03708   0.00000  Uiso   1.00
O340   O     0.28460   0.87712   0.29626   0.00000  Uiso   1.00
O341   O     0.04875   0.78508   0.27254   0.00000  Uiso   1.00
O342   O     0.28458   0.88159   0.06079   0.00000  Uiso   1.00
O343   O     0.16667   0.89345   0.12709   0.00000  Uiso   1.00
O344   O     0.16666   0.77321   0.12706   0.00000  Uiso   1.00
O345   O     0.16667   0.89346   0.20628   0.00000  Uiso   1.00
O346   O     0.09161   0.83334   0.19712   0.00000  Uiso   1.00
O347   O     0.24172   0.83333   0.13621   0.00000  Uiso   1.00
O348   O     0.09161   0.83333   0.11793   0.00000  Uiso   1.00
O349   O     0.24172   0.83334   0.21540   0.00000  Uiso   1.00
O350   O     0.28678   0.69287   0.11769   0.00000  Uiso   1.00
C351   C     0.50084   0.75429   0.16686   0.00000  Uiso   1.00
C352   C     0.46070   0.68780   0.18354   0.00000  Uiso   1.00
C353   C     0.49821   0.95703   0.16621   0.00000  Uiso   1.00
C354   C     0.50179   0.70964   0.16712   0.00000  Uiso   1.00
C355   C     0.46492   0.80906   0.02071   0.00000  Uiso   1.00
C356   C     0.53508   0.85761   0.31263   0.00000  Uiso   1.00
C357   C     0.46502   0.80894   0.30456   0.00000  Uiso   1.00
C358   C     0.53498   0.85773   0.02877   0.00000  Uiso   1.00
C359   C     0.58718   0.71138   0.13457   0.00000  Uiso   1.00
C360   C     0.41282   0.95528   0.19877   0.00000  Uiso   1.00
C361   C     0.42770   0.78145   0.04124   0.00000  Uiso   1.00
C362   C     0.49916   0.91238   0.16648   0.00000  Uiso   1.00
C363   C     0.57230   0.88522   0.29209   0.00000  Uiso   1.00
C364   C     0.42852   0.78041   0.27582   0.00000  Uiso   1.00
C365   C     0.57148   0.88626   0.05751   0.00000  Uiso   1.00
C366   C     0.40139   0.83277   0.15472   0.00000  Uiso   1.00
C367   C     0.59861   0.83390   0.17862   0.00000  Uiso   1.00
C368   C     0.34602   0.83085   0.14840   0.00000  Uiso   1.00
C369   C     0.65398   0.83582   0.18494   0.00000  Uiso   1.00
C370   C     0.54186   0.68875   0.15016   0.00000  Uiso   1.00
C371   C     0.45814   0.97791   0.18317   0.00000  Uiso   1.00
C372   C     0.53930   0.97887   0.14980   0.00000  Uiso   1.00
Cu373  Cu    0.50000   0.83334   0.21355   0.00000  Uiso   1.00
Cu374  Cu    0.50000   0.83333   0.11978   0.00000  Uiso   1.00
H375   H     0.65941   0.82452   0.11360   0.00000  Uiso   1.00
H376   H     0.55761   0.91276   0.07397   0.00000  Uiso   1.00
H377   H     0.34059   0.84215   0.21973   0.00000  Uiso   1.00
H378   H     0.57010   0.96193   0.13791   0.00000  Uiso   1.00
H379   H     0.42990   0.70474   0.19543   0.00000  Uiso   1.00
H380   H     0.59203   0.74477   0.13820   0.00000  Uiso   1.00
H381   H     0.40797   0.92190   0.19513   0.00000  Uiso   1.00
H382   H     0.44028   0.75312   0.05879   0.00000  Uiso   1.00
H383   H     0.55972   0.91354   0.27455   0.00000  Uiso   1.00
H384   H     0.44239   0.75391   0.25936   0.00000  Uiso   1.00
N385   N     0.50001   0.83334   0.28403   0.00000  Uiso   1.00
N386   N     0.49999   0.83332   0.04931   0.00000  Uiso   1.00
O387   O     0.50000   0.77322   0.20625   0.00000  Uiso   1.00
O388   O     0.37989   0.97380   0.21565   0.00000  Uiso   1.00
O389   O     0.38207   0.78954   0.03708   0.00000  Uiso   1.00
O390   O     0.61793   0.87712   0.29626   0.00000  Uiso   1.00
O391   O     0.38208   0.78508   0.27254   0.00000  Uiso   1.00
O392   O     0.61792   0.88159   0.06079   0.00000  Uiso   1.00
O393   O     0.50000   0.89345   0.12709   0.00000  Uiso   1.00
O394   O     0.50000   0.77321   0.12706   0.00000  Uiso   1.00
O395   O     0.50000   0.89346   0.20628   0.00000  Uiso   1.00
O396   O     0.42495   0.83334   0.19712   0.00000  Uiso   1.00
O397   O     0.57505   0.83333   0.13621   0.00000  Uiso   1.00
O398   O     0.42494   0.83333   0.11793   0.00000  Uiso   1.00
O399   O     0.57506   0.83334   0.21540   0.00000  Uiso   1.00
O400   O     0.62012   0.69287   0.11769   0.00000  Uiso   1.00
C401   C     0.83418   0.75429   0.16686   0.00000  Uiso   1.00
C402   C     0.79403   0.68780   0.18354   0.00000  Uiso   1.00
C403   C     0.83154   0.95703   0.16621   0.00000  Uiso   1.00
C404   C     0.83512   0.70964   0.16712   0.00000  Uiso   1.00
C405   C     0.79825   0.80906   0.02071   0.00000  Uiso   1.00
C406   C     0.86841   0.85761   0.31263   0.00000  Uiso   1.00
C407   C     0.79835   0.80894   0.30456   0.00000  Uiso   1.00
C408   C     0.86832   0.85773   0.02877   0.00000  Uiso   1.00
C409   C     0.92051   0.71138   0.13457   0.00000  Uiso   1.00
C410   C     0.74616   0.95528   0.19877   0.00000  Uiso   1.00
C411   C     0.76103   0.78145   0.04124   0.00000  Uiso   1.00
C412   C     0.83249   0.91238   0.16648   0.00000  Uiso   1.00
C413   C     0.90563   0.88522   0.29209   0.00000  Uiso   1.00
C414   C     0.76185   0.78041   0.27582   0.00000  Uiso   1.00
C415   C     0.90482   0.88626   0.05751   0.00000  Uiso   1.00
C416   C     0.73472   0.83277   0.15472   0.00000  Uiso   1.00
C417   C     0.93194   0.83390   0.17862   0.00000  Uiso   1.00
C418   C     0.67935   0.83085   0.14840   0.00000  Uiso   1.00
C419   C     0.98731   0.83582   0.18494   0.00000  Uiso   1.00
C420   C     0.87519   0.68875   0.15016   0.00000  Uiso   1.00
C421   C     0.79147   0.97791   0.18317   0.00000  Uiso   1.00
C422   C     0.87264   0.97887   0.14980   0.00000  Uiso   1.00
Cu423  Cu    0.83333   0.83334   0.21355   0.00000  Uiso   1.00
Cu424  Cu    0.83333   0.83333   0.11978   0.00000  Uiso   1.00
H425   H     0.99274   0.82452   0.11360   0.00000  Uiso   1.00
H426   H     0.89094   0.91276   0.07397   0.00000  Uiso   1.00
H427   H     0.67392   0.84215   0.21973   0.00000  Uiso   1.00
H428   H     0.90343   0.96193   0.13791   0.00000  Uiso   1.00
H429   H     0.76323   0.70474   0.19543   0.00000  Uiso   1.00
H430   H     0.92537   0.74477   0.13820   0.00000  Uiso   1.00
H431   H     0.74130   0.92190   0.19513   0.00000  Uiso   1.00
H432   H     0.77361   0.75312   0.05879   0.00000  Uiso   1.00
H433   H     0.89305   0.91354   0.27455   0.00000  Uiso   1.00
H434   H     0.77573   0.75391   0.25936   0.00000  Uiso   1.00
N435   N     0.83335   0.83334   0.28403   0.00000  Uiso   1.00
N436   N     0.83332   0.83332   0.04931   0.00000  Uiso   1.00
O437   O     0.83333   0.77322   0.20625   0.00000  Uiso   1.00
O438   O     0.71322   0.97380   0.21565   0.00000  Uiso   1.00
O439   O     0.71540   0.78954   0.03708   0.00000  Uiso   1.00
O440   O     0.95126   0.87712   0.29626   0.00000  Uiso   1.00
O441   O     0.71542   0.78508   0.27254   0.00000  Uiso   1.00
O442   O     0.95125   0.88159   0.06079   0.00000  Uiso   1.00
O443   O     0.83334   0.89345   0.12709   0.00000  Uiso   1.00
O444   O     0.83333   0.77321   0.12706   0.00000  Uiso   1.00
O445   O     0.83334   0.89346   0.20628   0.00000  Uiso   1.00
O446   O     0.75828   0.83334   0.19712   0.00000  Uiso   1.00
O447   O     0.90839   0.83333   0.13621   0.00000  Uiso   1.00
O448   O     0.75828   0.83333   0.11793   0.00000  Uiso   1.00
O449   O     0.90839   0.83334   0.21540   0.00000  Uiso   1.00
O450   O     0.95345   0.69287   0.11769   0.00000  Uiso   1.00
C451   C     0.16751   0.08762   0.50019   0.00000  Uiso   1.00
C452   C     0.12736   0.02113   0.51687   0.00000  Uiso   1.00
C453   C     0.16488   0.29036   0.49955   0.00000  Uiso   1.00
C454   C     0.16846   0.04297   0.50045   0.00000  Uiso   1.00
C455   C     0.13159   0.14239   0.35404   0.00000  Uiso   1.00
C456   C     0.20175   0.19094   0.64596   0.00000  Uiso   1.00
C457   C     0.13168   0.14227   0.63789   0.00000  Uiso   1.00
C458   C     0.20165   0.19106   0.36211   0.00000  Uiso   1.00
C459   C     0.25384   0.04472   0.46790   0.00000  Uiso   1.00
C460   C     0.07949   0.28862   0.53210   0.00000  Uiso   1.00
C461   C     0.09437   0.11478   0.37457   0.00000  Uiso   1.00
C462   C     0.16582   0.24572   0.49981   0.00000  Uiso   1.00
C463   C     0.23897   0.21855   0.62543   0.00000  Uiso   1.00
C464   C     0.09518   0.11374   0.60915   0.00000  Uiso   1.00
C465   C     0.23815   0.21959   0.39085   0.00000  Uiso   1.00
C466   C     0.06806   0.16610   0.48805   0.00000  Uiso   1.00
C467   C     0.26528   0.16723   0.51195   0.00000  Uiso   1.00
C468   C     0.01269   0.16418   0.48173   0.00000  Uiso   1.00
C469   C     0.32065   0.16915   0.51827   0.00000  Uiso   1.00
C470   C     0.20853   0.02209   0.48349   0.00000  Uiso   1.00
C471   C     0.12481   0.31125   0.51651   0.00000  Uiso   1.00
C472   C     0.20597   0.31220   0.48313   0.00000  Uiso   1.00
Cu473  Cu    0.16667   0.16667   0.54689   0.00000  Uiso   1.00
Cu474  Cu    0.16667   0.16666   0.45311   0.00000  Uiso   1.00
H475   H     0.32608   0.15785   0.44694   0.00000  Uiso   1.00
H476   H     0.22427   0.24609   0.40731   0.00000  Uiso   1.00
H477   H     0.00726   0.17548   0.55306   0.00000  Uiso   1.00
H478   H     0.23677   0.29526   0.47124   0.00000  Uiso   1.00
H479   H     0.09657   0.03807   0.52876   0.00000  Uiso   1.00
H480   H     0.25870   0.07810   0.47153   0.00000  Uiso   1.00
H481   H     0.07463   0.25523   0.52846   0.00000  Uiso   1.00
H482   H     0.10695   0.08646   0.39212   0.00000  Uiso   1.00
H483   H     0.22639   0.24688   0.60788   0.00000  Uiso   1.00
H484   H     0.10906   0.08724   0.59269   0.00000  Uiso   1.00
N485   N     0.16668   0.16668   0.61736   0.00000  Uiso   1.00
N486   N     0.16665   0.16666   0.38264   0.00000  Uiso   1.00
O487   O     0.16666   0.10655   0.53958   0.00000  Uiso   1.00
O488   O     0.04656   0.30713   0.54898   0.00000  Uiso   1.00
O489   O     0.04874   0.12288   0.37041   0.00000  Uiso   1.00
O490   O     0.28460   0.21046   0.62959   0.00000  Uiso   1.00
O491   O     0.04875   0.11841   0.60588   0.00000  Uiso   1.00
O492   O     0.28458   0.21492   0.39412   0.00000  Uiso   1.00
O493   O     0.16667   0.22678   0.46042   0.00000  Uiso   1.00
O494   O     0.16666   0.10654   0.46039   0.00000  Uiso   1.00
O495   O     0.16667   0.22679   0.53961   0.00000  Uiso   1.00
O496   O     0.09161   0.16667   0.53046   0.00000  Uiso   1.00
O497   O     0.24172   0.16666   0.46954   0.00000  Uiso   1.00
O498   O     0.09161   0.16666   0.45127   0.00000  Uiso   1.00
O499   O     0.24172   0.16667   0.54873   0.00000  Uiso   1.00
O500   O     0.28678   0.02620   0.45102   0.00000  Uiso   1.00
C501   C     0.50084   0.08762   0.50019   0.00000  Uiso   1.00
C502   C     0.46070   0.02113   0.51687   0.00000  Uiso   1.00
C503   C     0.49821   0.29036   0.49955   0.00000  Uiso   1.00
C504   C     0.50179   0.04297   0.50045   0.00000  Uiso   1.00
C505   C     0.46492   0.14239   0.35404   0.00000  Uiso   1.00
C506   C     0.53508   0.19094   0.64596   0.00000  Uiso   1.00
C507   C     0.46502   0.14227   0.63789   0.00000  Uiso   1.00
C508   C     0.53498   0.19106   0.36211   0.00000  Uiso   1.00
C509   C     0.58718   0.04472   0.46790   0.00000  Uiso   1.00
C510   C     0.41282   0.28862   0.53210   0.00000  Uiso   1.00
C511   C     0.42770   0.11478   0.37457   0.00000  Uiso   1.00
C512   C     0.49916   0.24572   0.49981   0.00000  Uiso   1.00
C513   C     0.57230   0.21855   0.62543   0.00000  Uiso   1.00
C514   C     0.42852   0.11374   0.60915   0.00000  Uiso   1.00
C515   C     0.57148   0.21959   0.39085   0.00000  Uiso   1.00
C516   C     0.40139   0.16610   0.48805   0.00000  Uiso   1.00
C517   C     0.59861   0.16723   0.51195   0.00000  Uiso   1.00
C518   C     0.34602   0.16418   0.48173   0.00000  Uiso   1.00
C519   C     0.65398   0.16915   0.51827   0.00000  Uiso   1.00
C520   C     0.54186   0.02209   0.48349   0.00000  Uiso   1.00
C521   C     0.45814   0.31125   0.51651   0.00000  Uiso   1.00
C522   C     0.53930   0.31220   0.48313   0.00000  Uiso   1.00
Cu523  Cu    0.50000   0.16667   0.54689   0.00000  Uiso   1.00
Cu524  Cu    0.50000   0.16666   0.45311   0.00000  Uiso   1.00
H525   H     0.65941   0.15785   0.44694   0.00000  Uiso   1.00
H526   H     0.55761   0.24609   0.40731   0.00000  Uiso   1.00
H527   H     0.34059   0.17548   0.55306   0.00000  Uiso   1.00
H528   H     0.57010   0.29526   0.47124   0.00000  Uiso   1.00
H529   H     0.42990   0.03807   0.52876   0.00000  Uiso   1.00
H530   H     0.59203   0.07810   0.47153   0.00000  Uiso   1.00
H531   H     0.40797   0.25523   0.52846   0.00000  Uiso   1.00
H532   H     0.44028   0.08646   0.39212   0.00000  Uiso   1.00
H533   H     0.55972   0.24688   0.60788   0.00000  Uiso   1.00
H534   H     0.44239   0.08724   0.59269   0.00000  Uiso   1.00
N535   N     0.50001   0.16668   0.61736   0.00000  Uiso   1.00
N536   N     0.49999   0.16666   0.38264   0.00000  Uiso   1.00
O537   O     0.50000   0.10655   0.53958   0.00000  Uiso   1.00
O538   O     0.37989   0.30713   0.54898   0.00000  Uiso   1.00
O539   O     0.38207   0.12288   0.37041   0.00000  Uiso   1.00
O540   O     0.61793   0.21046   0.62959   0.00000  Uiso   1.00
O541   O     0.38208   0.11841   0.60588   0.00000  Uiso   1.00
O542   O     0.61792   0.21492   0.39412   0.00000  Uiso   1.00
O543   O     0.50000   0.22678   0.46042   0.00000  Uiso   1.00
O544   O     0.50000   0.10654   0.46039   0.00000  Uiso   1.00
O545   O     0.50000   0.22679   0.53961   0.00000  Uiso   1.00
O546   O     0.42495   0.16667   0.53046   0.00000  Uiso   1.00
O547   O     0.57505   0.16666   0.46954   0.00000  Uiso   1.00
O548   O     0.42494   0.16666   0.45127   0.00000  Uiso   1.00
O549   O     0.57506   0.16667   0.54873   0.00000  Uiso   1.00
O550   O     0.62012   0.02620   0.45102   0.00000  Uiso   1.00
C551   C     0.83418   0.08762   0.50019   0.00000  Uiso   1.00
C552   C     0.79403   0.02113   0.51687   0.00000  Uiso   1.00
C553   C     0.83154   0.29036   0.49955   0.00000  Uiso   1.00
C554   C     0.83512   0.04297   0.50045   0.00000  Uiso   1.00
C555   C     0.79825   0.14239   0.35404   0.00000  Uiso   1.00
C556   C     0.86841   0.19094   0.64596   0.00000  Uiso   1.00
C557   C     0.79835   0.14227   0.63789   0.00000  Uiso   1.00
C558   C     0.86832   0.19106   0.36211   0.00000  Uiso   1.00
C559   C     0.92051   0.04472   0.46790   0.00000  Uiso   1.00
C560   C     0.74616   0.28862   0.53210   0.00000  Uiso   1.00
C561   C     0.76103   0.11478   0.37457   0.00000  Uiso   1.00
C562   C     0.83249   0.24572   0.49981   0.00000  Uiso   1.00
C563   C     0.90563   0.21855   0.62543   0.00000  Uiso   1.00
C564   C     0.76185   0.11374   0.60915   0.00000  Uiso   1.00
C565   C     0.90482   0.21959   0.39085   0.00000  Uiso   1.00
C566   C     0.73472   0.16610   0.48805   0.00000  Uiso   1.00
C567   C     0.93194   0.16723   0.51195   0.00000  Uiso   1.00
C568   C     0.67935   0.16418   0.48173   0.00000  Uiso   1.00
C569   C     0.98731   0.16915   0.51827   0.00000  Uiso   1.00
C570   C     0.87519   0.02209   0.48349   0.00000  Uiso   1.00
C571   C     0.79147   0.31125   0.51651   0.00000  Uiso   1.00
C572   C     0.87264   0.31220   0.48313   0.00000  Uiso   1.00
Cu573  Cu    0.83333   0.16667   0.54689   0.00000  Uiso   1.00
Cu574  Cu    0.83333   0.16666   0.45311   0.00000  Uiso   1.00
H575   H     0.99274   0.15785   0.44694   0.00000  Uiso   1.00
H576   H     0.89094   0.24609   0.40731   0.00000  Uiso   1.00
H577   H     0.67392   0.17548   0.55306   0.00000  Uiso   1.00
H578   H     0.90343   0.29526   0.47124   0.00000  Uiso   1.00
H579   H     0.76323   0.03807   0.52876   0.00000  Uiso   1.00
H580   H     0.92537   0.07810   0.47153   0.00000  Uiso   1.00
H581   H     0.74130   0.25523   0.52846   0.00000  Uiso   1.00
H582   H     0.77361   0.08646   0.39212   0.00000  Uiso   1.00
H583   H     0.89305   0.24688   0.60788   0.00000  Uiso   1.00
H584   H     0.77573   0.08724   0.59269   0.00000  Uiso   1.00
N585   N     0.83335   0.16668   0.61736   0.00000  Uiso   1.00
N586   N     0.83332   0.16666   0.38264   0.00000  Uiso   1.00
O587   O     0.83333   0.10655   0.53958   0.00000  Uiso   1.00
O588   O     0.71322   0.30713   0.54898   0.00000  Uiso   1.00
O589   O     0.71540   0.12288   0.37041   0.00000  Uiso   1.00
O590   O     0.95126   0.21046   0.62959   0.00000  Uiso   1.00
O591   O     0.71542   0.11841   0.60588   0.00000  Uiso   1.00
O592   O     0.95125   0.21492   0.39412   0.00000  Uiso   1.00
O593   O     0.83334   0.22678   0.46042   0.00000  Uiso   1.00
O594   O     0.83333   0.10654   0.46039   0.00000  Uiso   1.00
O595   O     0.83334   0.22679   0.53961   0.00000  Uiso   1.00
O596   O     0.75828   0.16667   0.53046   0.00000  Uiso   1.00
O597   O     0.90839   0.16666   0.46954   0.00000  Uiso   1.00
O598   O     0.75828   0.16666   0.45127   0.00000  Uiso   1.00
O599   O     0.90839   0.16667   0.54873   0.00000  Uiso   1.00
O600   O     0.95345   0.02620   0.45102   0.00000  Uiso   1.00
C601   C     0.16751   0.42095   0.50019   0.00000  Uiso   1.00
C602   C     0.12736   0.35447   0.51687   0.00000  Uiso   1.00
C603   C     0.16488   0.62369   0.49955   0.00000  Uiso   1.00
C604   C     0.16846   0.37631   0.50045   0.00000  Uiso   1.00
C605   C     0.13159   0.47572   0.35404   0.00000  Uiso   1.00
C606   C     0.20175   0.52428   0.64596   0.00000  Uiso   1.00
C607   C     0.13168   0.47560   0.63789   0.00000  Uiso   1.00
C608   C     0.20165   0.52440   0.36211   0.00000  Uiso   1.00
C609   C     0.25384   0.37805   0.46790   0.00000  Uiso   1.00
C610   C     0.07949   0.62195   0.53210   0.00000  Uiso   1.00
C611   C     0.09437   0.44811   0.37457   0.00000  Uiso   1.00
C612   C     0.16582   0.57905   0.49981   0.00000  Uiso   1.00
C613   C     0.23897   0.55189   0.62543   0.00000  Uiso   1.00
C614   C     0.09518   0.44708   0.60915   0.00000  Uiso   1.00
C615   C     0.23815   0.55292   0.39085   0.00000  Uiso   1.00
C616   C     0.06806   0.49944   0.48805   0.00000  Uiso   1.00
C617   C     0.26528   0.50056   0.51195   0.00000  Uiso   1.00
C618   C     0.01269   0.49751   0.48173   0.00000  Uiso   1.00
C619   C     0.32065   0.50249   0.51827   0.00000  Uiso   1.00
C620   C     0.20853   0.35542   0.48349   0.00000  Uiso   1.00
C621   C     0.12481   0.64458   0.51651   0.00000  Uiso   1.00
C622   C     0.20597   0.64553   0.48313   0.00000  Uiso   1.00
Cu623  Cu    0.16667   0.50001   0.54689   0.00000  Uiso   1.00
Cu624  Cu    0.16667   0.49999   0.45311   0.00000  Uiso   1.00
H625   H     0.32608   0.49119   0.44694   0.00000  Uiso   1.00
H626   H     0.22427   0.57943   0.40731   0.00000  Uiso   1.00
H627   H     0.00726   0.50881   0.55306   0.00000  Uiso   1.00
H628   H     0.23677   0.62860   0.47124   0.00000  Uiso   1.00
H629   H     0.09657   0.37140   0.52876   0.00000  Uiso   1.00
H630   H     0.25870   0.41143   0.47153   0.00000  Uiso   1.00
H631   H     0.07463   0.58857   0.52846   0.00000  Uiso   1.00
H632   H     0.10695   0.41979   0.39212   0.00000  Uiso   1.00
H633   H     0.22639   0.58021   0.60788   0.00000  Uiso   1.00
H634   H     0.10906   0.42057   0.59269   0.00000  Uiso   1.00
N635   N     0.16668   0.50001   0.61736   0.00000  Uiso   1.00
N636   N     0.16665   0.49999   0.38264   0.00000  Uiso   1.00
O637   O     0.16666   0.43989   0.53958   0.00000  Uiso   1.00
O638   O     0.04656   0.64046   0.54898   0.00000  Uiso   1.00
O639   O     0.04874   0.45621   0.37041   0.00000  Uiso   1.00
O640   O     0.28460   0.54379   0.62959   0.00000  Uiso   1.00
O641   O     0.04875   0.45174   0.60588   0.00000  Uiso   1.00
O642   O     0.28458   0.54826   0.39412   0.00000  Uiso   1.00
O643   O     0.16667   0.56011   0.46042   0.00000  Uiso   1.00
O644   O     0.16666   0.43988   0.46039   0.00000  Uiso   1.00
O645   O     0.16667   0.56012   0.53961   0.00000  Uiso   1.00
O646   O     0.09161   0.50000   0.53046   0.00000  Uiso   1.00
O647   O     0.24172   0.50000   0.46954   0.00000  Uiso   1.00
O648   O     0.09161   0.49999   0.45127   0.00000  Uiso   1.00
O649   O     0.24172   0.50001   0.54873   0.00000  Uiso   1.00
O650   O     0.28678   0.35954   0.45102   0.00000  Uiso   1.00
C651   C     0.50084   0.42095   0.50019   0.00000  Uiso   1.00
C652   C     0.46070   0.35447   0.51687   0.00000  Uiso   1.00
C653   C     0.49821   0.62369   0.49955   0.00000  Uiso   1.00
C654   C     0.50179   0.37631   0.50045   0.00000  Uiso   1.00
C655   C     0.46492   0.47572   0.35404   0.00000  Uiso   1.00
C656   C     0.53508   0.52428   0.64596   0.00000  Uiso   1.00
C657   C     0.46502   0.47560   0.63789   0.00000  Uiso   1.00
C658   C     0.53498   0.52440   0.36211   0.00000  Uiso   1.00
C659   C     0.58718   0.37805   0.46790   0.00000  Uiso   1.00
C660   C     0.41282   0.62195   0.53210   0.00000  Uiso   1.00
C661   C     0.42770   0.44811   0.37457   0.00000  Uiso   1.00
C662   C     0.49916   0.57905   0.49981   0.00000  Uiso   1.00
C663   C     0.57230   0.55189   0.62543   0.00000  Uiso   1.00
C664   C     0.42852   0.44708   0.60915   0.00000  Uiso   1.00
C665   C     0.57148   0.55292   0.39085   0.00000  Uiso   1.00
C666   C     0.40139   0.49944   0.48805   0.00000  Uiso   1.00
C667   C     0.59861   0.50056   0.51195   0.00000  Uiso   1.00
C668   C     0.34602   0.49751   0.48173   0.00000  Uiso   1.00
C669   C     0.65398   0.50249   0.51827   0.00000  Uiso   1.00
C670   C     0.54186   0.35542   0.48349   0.00000  Uiso   1.00
C671   C     0.45814   0.64458   0.51651   0.00000  Uiso   1.00
C672   C     0.53930   0.64553   0.48313   0.00000  Uiso   1.00
Cu673  Cu    0.50000   0.50001   0.54689   0.00000  Uiso   1.00
Cu674  Cu    0.50000   0.49999   0.45311   0.00000  Uiso   1.00
H675   H     0.65941   0.49119   0.44694   0.00000  Uiso   1.00
H676   H     0.55761   0.57943   0.40731   0.00000  Uiso   1.00
H677   H     0.34059   0.50881   0.55306   0.00000  Uiso   1.00
H678   H     0.57010   0.62860   0.47124   0.00000  Uiso   1.00
H679   H     0.42990   0.37140   0.52876   0.00000  Uiso   1.00
H680   H     0.59203   0.41143   0.47153   0.00000  Uiso   1.00
H681   H     0.40797   0.58857   0.52846   0.00000  Uiso   1.00
H682   H     0.44028   0.41979   0.39212   0.00000  Uiso   1.00
H683   H     0.55972   0.58021   0.60788   0.00000  Uiso   1.00
H684   H     0.44239   0.42057   0.59269   0.00000  Uiso   1.00
N685   N     0.50001   0.50001   0.61736   0.00000  Uiso   1.00
N686   N     0.49999   0.49999   0.38264   0.00000  Uiso   1.00
O687   O     0.50000   0.43989   0.53958   0.00000  Uiso   1.00
O688   O     0.37989   0.64046   0.54898   0.00000  Uiso   1.00
O689   O     0.38207   0.45621   0.37041   0.00000  Uiso   1.00
O690   O     0.61793   0.54379   0.62959   0.00000  Uiso   1.00
O691   O     0.38208   0.45174   0.60588   0.00000  Uiso   1.00
O692   O     0.61792   0.54826   0.39412   0.00000  Uiso   1.00
O693   O     0.50000   0.56011   0.46042   0.00000  Uiso   1.00
O694   O     0.50000   0.43988   0.46039   0.00000  Uiso   1.00
O695   O     0.50000   0.56012   0.53961   0.00000  Uiso   1.00
O696   O     0.42495   0.50000   0.53046   0.00000  Uiso   1.00
O697   O     0.57505   0.50000   0.46954   0.00000  Uiso   1.00
O698   O     0.42494   0.49999   0.45127   0.00000  Uiso   1.00
O699   O     0.57506   0.50001   0.54873   0.00000  Uiso   1.00
O700   O     0.62012   0.35954   0.45102   0.00000  Uiso   1.00
C701   C     0.83418   0.42095   0.50019   0.00000  Uiso   1.00
C702   C     0.79403   0.35447   0.51687   0.00000  Uiso   1.00
C703   C     0.83154   0.62369   0.49955   0.00000  Uiso   1.00
C704   C     0.83512   0.37631   0.50045   0.00000  Uiso   1.00
C705   C     0.79825   0.47572   0.35404   0.00000  Uiso   1.00
C706   C     0.86841   0.52428   0.64596   0.00000  Uiso   1.00
C707   C     0.79835   0.47560   0.63789   0.00000  Uiso   1.00
C708   C     0.86832   0.52440   0.36211   0.00000  Uiso   1.00
C709   C     0.92051   0.37805   0.46790   0.00000  Uiso   1.00
C710   C     0.74616   0.62195   0.53210   0.00000  Uiso   1.00
C711   C     0.76103   0.44811   0.37457   0.00000  Uiso   1.00
C712   C     0.83249   0.57905   0.49981   0.00000  Uiso   1.00
C713   C     0.90563   0.55189   0.62543   0.00000  Uiso   1.00
C714   C     0.76185   0.44708   0.60915   0.00000  Uiso   1.00
C715   C     0.90482   0.55292   0.39085   0.00000  Uiso   1.00
C716   C     0.73472   0.49944   0.48805   0.00000  Uiso   1.00
C717   C     0.93194   0.50056   0.51195   0.00000  Uiso   1.00
C718   C     0.67935   0.49751   0.48173   0.00000  Uiso   1.00
C719   C     0.98731   0.50249   0.51827   0.00000  Uiso   1.00
C720   C     0.87519   0.35542   0.48349   0.00000  Uiso   1.00
C721   C     0.79147   0.64458   0.51651   0.00000  Uiso   1.00
C722   C     0.87264   0.64553   0.48313   0.00000  Uiso   1.00
Cu723  Cu    0.83333   0.50001   0.54689   0.00000  Uiso   1.00
Cu724  Cu    0.83333   0.49999   0.45311   0.00000  Uiso   1.00
H725   H     0.99274   0.49119   0.44694   0.00000  Uiso   1.00
H726   H     0.89094   0.57943   0.40731   0.00000  Uiso   1.00
H727   H     0.67392   0.50881   0.55306   0.00000  Uiso   1.00
H728   H     0.90343   0.62860   0.47124   0.00000  Uiso   1.00
H729   H     0.76323   0.37140   0.52876   0.00000  Uiso   1.00
H730   H     0.92537   0.41143   0.47153   0.00000  Uiso   1.00
H731   H     0.74130   0.58857   0.52846   0.00000  Uiso   1.00
H732   H     0.77361   0.41979   0.39212   0.00000  Uiso   1.00
H733   H     0.89305   0.58021   0.60788   0.00000  Uiso   1.00
H734   H     0.77573   0.42057   0.59269   0.00000  Uiso   1.00
N735   N     0.83335   0.50001   0.61736   0.00000  Uiso   1.00
N736   N     0.83332   0.49999   0.38264   0.00000  Uiso   1.00
O737   O     0.83333   0.43989   0.53958   0.00000  Uiso   1.00
O738   O     0.71322   0.64046   0.54898   0.00000  Uiso   1.00
O739   O     0.71540   0.45621   0.37041   0.00000  Uiso   1.00
O740   O     0.95126   0.54379   0.62959   0.00000  Uiso   1.00
O741   O     0.71542   0.45174   0.60588   0.00000  Uiso   1.00
O742   O     0.95125   0.54826   0.39412   0.00000  Uiso   1.00
O743   O     0.83334   0.56011   0.46042   0.00000  Uiso   1.00
O744   O     0.83333   0.43988   0.46039   0.00000  Uiso   1.00
O745   O     0.83334   0.56012   0.53961   0.00000  Uiso   1.00
O746   O     0.75828   0.50000   0.53046   0.00000  Uiso   1.00
O747   O     0.90839   0.50000   0.46954   0.00000  Uiso   1.00
O748   O     0.75828   0.49999   0.45127   0.00000  Uiso   1.00
O749   O     0.90839   0.50001   0.54873   0.00000  Uiso   1.00
O750   O     0.95345   0.35954   0.45102   0.00000  Uiso   1.00
C751   C     0.16751   0.75429   0.50019   0.00000  Uiso   1.00
C752   C     0.12736   0.68780   0.51687   0.00000  Uiso   1.00
C753   C     0.16488   0.95703   0.49955   0.00000  Uiso   1.00
C754   C     0.16846   0.70964   0.50045   0.00000  Uiso   1.00
C755   C     0.13159   0.80906   0.35404   0.00000  Uiso   1.00
C756   C     0.20175   0.85761   0.64596   0.00000  Uiso   1.00
C757   C     0.13168   0.80894   0.63789   0.00000  Uiso   1.00
C758   C     0.20165   0.85773   0.36211   0.00000  Uiso   1.00
C759   C     0.25384   0.71138   0.46790   0.00000  Uiso   1.00
C760   C     0.07949   0.95528   0.53210   0.00000  Uiso   1.00
C761   C     0.09437   0.78145   0.37457   0.00000  Uiso   1.00
C762   C     0.16582   0.91238   0.49981   0.00000  Uiso   1.00
C763   C     0.23897   0.88522   0.62543   0.00000  Uiso   1.00
C764   C     0.09518   0.78041   0.60915   0.00000  Uiso   1.00
C765   C     0.23815   0.88626   0.39085   0.00000  Uiso   1.00
C766   C     0.06806   0.83277   0.48805   0.00000  Uiso   1.00
C767   C     0.26528   0.83390   0.51195   0.00000  Uiso   1.00
C768   C     0.01269   0.83085   0.48173   0.00000  Uiso   1.00
C769   C     0.32065   0.83582   0.51827   0.00000  Uiso   1.00
C770   C     0.20853   0.68875   0.48349   0.00000  Uiso   1.00
C771   C     0.12481   0.97791   0.51651   0.00000  Uiso   1.00
C772   C     0.20597   0.97887   0.48313   0.00000  Uiso   1.00
Cu773  Cu    0.16667   0.83334   0.54689   0.00000  Uiso   1.00
Cu774  Cu    0.16667   0.83333   0.45311   0.00000  Uiso   1.00
H775   H     0.32608   0.82452   0.44694   0.00000  Uiso   1.00
H776   H     0.22427   0.91276   0.40731   0.00000  Uiso   1.00
H777   H     0.00726   0.84215   0.55306   0.00000  Uiso   1.00
H778   H     0.23677   0.96193   0.47124   0.00000  Uiso   1.00
H779   H     0.09657   0.70474   0.52876   0.00000  Uiso   1.00
H780   H     0.25870   0.74477   0.47153   0.00000  Uiso   1.00
H781   H     0.07463   0.92190   0.52846   0.00000  Uiso   1.00
H782   H     0.10695   0.75312   0.39212   0.00000  Uiso   1.00
H783   H     0.22639   0.91354   0.60788   0.00000  Uiso   1.00
H784   H     0.10906   0.75391   0.59269   0.00000  Uiso   1.00
N785   N     0.16668   0.83334   0.61736   0.00000  Uiso   1.00
N786   N     0.16665   0.83332   0.38264   0.00000  Uiso   1.00
O787   O     0.16666   0.77322   0.53958   0.00000  Uiso   1.00
O788   O     0.04656   0.97380   0.54898   0.00000  Uiso   1.00
O789   O     0.04874   0.78954   0.37041   0.00000  Uiso   1.00
O790   O     0.28460   0.87712   0.62959   0.00000  Uiso   1.00
O791   O     0.04875   0.78508   0.60588   0.00000  Uiso   1.00
O792   O     0.28458   0.88159   0.39412   0.00000  Uiso   1.00
O793   O     0.16667   0.89345   0.46042   0.00000  Uiso   1.00
O794   O     0.16666   0.77321   0.46039   0.00000  Uiso   1.00
O795   O     0.16667   0.89346   0.53961   0.00000  Uiso   1.00
O796   O     0.09161   0.83334   0.53046   0.00000  Uiso   1.00
O797   O     0.24172   0.83333   0.46954   0.00000  Uiso   1.00
O798   O     0.09161   0.83333   0.45127   0.00000  Uiso   1.00
O799   O     0.24172   0.83334   0.54873   0.00000  Uiso   1.00
O800   O     0.28678   0.69287   0.45102   0.00000  Uiso   1.00
C801   C     0.50084   0.75429   0.50019   0.00000  Uiso   1.00
C802   C     0.46070   0.68780   0.51687   0.00000  Uiso   1.00
C803   C     0.49821   0.95703   0.49955   0.00000  Uiso   1.00
C804   C     0.50179   0.70964   0.50045   0.00000  Uiso   1.00
C805   C     0.46492   0.80906   0.35404   0.00000  Uiso   1.00
C806   C     0.53508   0.85761   0.64596   0.00000  Uiso   1.00
C807   C     0.46502   0.80894   0.63789   0.00000  Uiso   1.00
C808   C     0.53498   0.85773   0.36211   0.00000  Uiso   1.00
C809   C     0.58718   0.71138   0.46790   0.00000  Uiso   1.00
C810   C     0.41282   0.95528   0.53210   0.00000  Uiso   1.00
C811   C     0.42770   0.78145   0.37457   0.00000  Uiso   1.00
C812   C     0.49916   0.91238   0.49981   0.00000  Uiso   1.00
C813   C     0.57230   0.88522   0.62543   0.00000  Uiso   1.00
C814   C     0.42852   0.78041   0.60915   0.00000  Uiso   1.00
C815   C     0.57148   0.88626   0.39085   0.00000  Uiso   1.00
C816   C     0.40139   0.83277   0.48805   0.00000  Uiso   1.00
C817   C     0.59861   0.83390   0.51195   0.00000  Uiso   1.00
C818   C     0.34602   0.83085   0.48173   0.00000  Uiso   1.00
C819   C     0.65398   0.83582   0.51827   0.00000  Uiso   1.00
C820   C     0.54186   0.68875   0.48349   0.00000  Uiso   1.00
C821   C     0.45814   0.97791   0.51651   0.00000  Uiso   1.00
C822   C     0.53930   0.97887   0.48313   0.00000  Uiso   1.00
Cu823  Cu    0.50000   0.83334   0.54689   0.00000  Uiso   1.00
Cu824  Cu    0.50000   0.83333   0.45311   0.00000  Uiso   1.00
H825   H     0.65941   0.82452   0.44694   0.00000  Uiso   1.00
H826   H     0.55761   0.91276   0.40731   0.00000  Uiso   1.00
H827   H     0.34059   0.84215   0.55306   0.00000  Uiso   1.00
H828   H     0.57010   0.96193   0.47124   0.00000  Uiso   1.00
H829   H     0.42990   0.70474   0.52876   0.00000  Uiso   1.00
H830   H     0.59203   0.74477   0.47153   0.00000  Uiso   1.00
H831   H     0.40797   0.92190   0.52846   0.00000  Uiso   1.00
H832   H     0.44028   0.75312   0.39212   0.00000  Uiso   1.00
H833   H     0.55972   0.91354   0.60788   0.00000  Uiso   1.00
H834   H     0.44239   0.75391   0.59269   0.00000  Uiso   1.00
N835   N     0.50001   0.83334   0.61736   0.00000  Uiso   1.00
N836   N     0.49999   0.83332   0.38264   0.00000  Uiso   1.00
O837   O     0.50000   0.77322   0.53958   0.00000  Uiso   1.00
O838   O     0.37989   0.97380   0.54898   0.00000  Uiso   1.00
O839   O     0.38207   0.78954   0.37041   0.00000  Uiso   1.00
O840   O     0.61793   0.87712   0.62959   0.00000  Uiso   1.00
O841   O     0.38208   0.78508   0.60588   0.00000  Uiso   1.00
O842   O     0.61792   0.88159   0.39412   0.00000  Uiso   1.00
O843   O     0.50000   0.89345   0.46042   0.00000  Uiso   1.00
O844   O     0.50000   0.77321   0.46039   0.00000  Uiso   1.00
O845   O     0.50000   0.89346   0.53961   0.00000  Uiso   1.00
O846   O     0.42495   0.83334   0.53046   0.00000  Uiso   1.00
O847   O     0.57505   0.83333   0.46954   0.00000  Uiso   1.00
O848   O     0.42494   0.83333   0.45127   0.00000  Uiso   1.00
O849   O     0.57506   0.83334   0.54873   0.00000  Uiso   1.00
O850   O     0.62012   0.69287   0.45102   0.00000  Uiso   1.00
C851   C     0.83418   0.75429   0.50019   0.00000  Uiso   1.00
C852   C     0.79403   0.68780   0.51687   0.00000  Uiso   1.00
C853   C     0.83154   0.95703   0.49955   0.00000  Uiso   1.00
C854   C     0.83512   0.70964   0.50045   0.00000  Uiso   1.00
C855   C     0.79825   0.80906   0.35404   0.00000  Uiso   1.00
C856   C     0.86841   0.85761   0.64596   0.00000  Uiso   1.00
C857   C     0.79835   0.80894   0.63789   0.00000  Uiso   1.00
C858   C     0.86832   0.85773   0.36211   0.00000  Uiso   1.00
C859   C     0.92051   0.71138   0.46790   0.00000  Uiso   1.00
C860   C     0.74616   0.95528   0.53210   0.00000  Uiso   1.00
C861   C     0.76103   0.78145   0.37457   0.00000  Uiso   1.00
C862   C     0.83249   0.91238   0.49981   0.00000  Uiso   1.00
C863   C     0.90563   0.88522   0.62543   0.00000  Uiso   1.00
C864   C     0.76185   0.78041   0.60915   0.00000  Uiso   1.00
C865   C     0.90482   0.88626   0.39085   0.00000  Uiso   1.00
C866   C     0.73472   0.83277   0.48805   0.00000  Uiso   1.00
C867   C     0.93194   0.83390   0.51195   0.00000  Uiso   1.00
C868   C     0.67935   0.83085   0.48173   0.00000  Uiso   1.00
C869   C     0.98731   0.83582   0.51827   0.00000  Uiso   1.00
C870   C     0.87519   0.68875   0.48349   0.00000  Uiso   1.00
C871   C     0.79147   0.97791   0.51651   0.00000  Uiso   1.00
C872   C     0.87264   0.97887   0.48313   0.00000  Uiso   1.00
Cu873  Cu    0.83333   0.83334   0.54689   0.00000  Uiso   1.00
Cu874  Cu    0.83333   0.83333   0.45311   0.00000  Uiso   1.00
H875   H     0.99274   0.82452   0.44694   0.00000  Uiso   1.00
H876   H     0.89094   0.91276   0.40731   0.00000  Uiso   1.00
H877   H     0.67392   0.84215   0.55306   0.00000  Uiso   1.00
H878   H     0.90343   0.96193   0.47124   0.00000  Uiso   1.00
H879   H     0.76323   0.70474   0.52876   0.00000  Uiso   1.00
H880   H     0.92537   0.74477   0.47153   0.00000  Uiso   1.00
H881   H     0.74130   0.92190   0.52846   0.00000  Uiso   1.00
H882   H     0.77361   0.75312   0.39212   0.00000  Uiso   1.00
H883   H     0.89305   0.91354   0.60788   0.00000  Uiso   1.00
H884   H     0.77573   0.75391   0.59269   0.00000  Uiso   1.00
N885   N     0.83335   0.83334   0.61736   0.00000  Uiso   1.00
N886   N     0.83332   0.83332   0.38264   0.00000  Uiso   1.00
O887   O     0.83333   0.77322   0.53958   0.00000  Uiso   1.00
O888   O     0.71322   0.97380   0.54898   0.00000  Uiso   1.00
O889   O     0.71540   0.78954   0.37041   0.00000  Uiso   1.00
O890   O     0.95126   0.87712   0.62959   0.00000  Uiso   1.00
O891   O     0.71542   0.78508   0.60588   0.00000  Uiso   1.00
O892   O     0.95125   0.88159   0.39412   0.00000  Uiso   1.00
O893   O     0.83334   0.89345   0.46042   0.00000  Uiso   1.00
O894   O     0.83333   0.77321   0.46039   0.00000  Uiso   1.00
O895   O     0.83334   0.89346   0.53961   0.00000  Uiso   1.00
O896   O     0.75828   0.83334   0.53046   0.00000  Uiso   1.00
O897   O     0.90839   0.83333   0.46954   0.00000  Uiso   1.00
O898   O     0.75828   0.83333   0.45127   0.00000  Uiso   1.00
O899   O     0.90839   0.83334   0.54873   0.00000  Uiso   1.00
O900   O     0.95345   0.69287   0.45102   0.00000  Uiso   1.00
C901   C     0.16751   0.08762   0.83352   0.00000  Uiso   1.00
C902   C     0.12736   0.02113   0.85020   0.00000  Uiso   1.00
C903   C     0.16488   0.29036   0.83288   0.00000  Uiso   1.00
C904   C     0.16846   0.04297   0.83379   0.00000  Uiso   1.00
C905   C     0.13159   0.14239   0.68737   0.00000  Uiso   1.00
C906   C     0.20175   0.19094   0.97929   0.00000  Uiso   1.00
C907   C     0.13168   0.14227   0.97123   0.00000  Uiso   1.00
C908   C     0.20165   0.19106   0.69544   0.00000  Uiso   1.00
C909   C     0.25384   0.04472   0.80123   0.00000  Uiso   1.00
C910   C     0.07949   0.28862   0.86543   0.00000  Uiso   1.00
C911   C     0.09437   0.11478   0.70791   0.00000  Uiso   1.00
C912   C     0.16582   0.24572   0.83314   0.00000  Uiso   1.00
C913   C     0.23897   0.21855   0.95876   0.00000  Uiso   1.00
C914   C     0.09518   0.11374   0.94249   0.00000  Uiso   1.00
C915   C     0.23815   0.21959   0.72418   0.00000  Uiso   1.00
C916   C     0.06806   0.16610   0.82138   0.00000  Uiso   1.00
C917   C     0.26528   0.16723   0.84528   0.00000  Uiso   1.00
C918   C     0.01269   0.16418   0.81506   0.00000  Uiso   1.00
C919   C     0.32065   0.16915   0.85160   0.00000  Uiso   1.00
C920   C     0.20853   0.02209   0.81683   0.00000  Uiso   1.00
C921   C     0.12481   0.31125   0.84984   0.00000  Uiso   1.00
C922   C     0.20597   0.31220   0.81646   0.00000  Uiso   1.00
Cu923  Cu    0.16667   0.16667   0.88022   0.00000  Uiso   1.00
Cu924  Cu    0.16667   0.16666   0.78645   0.00000  Uiso   1.00
H925   H     0.32608   0.15785   0.78027   0.00000  Uiso   1.00
H926   H     0.22427   0.24609   0.74064   0.00000  Uiso   1.00
H927   H     0.00726   0.17548   0.88640   0.00000  Uiso   1.00
H928   H     0.23677   0.29526   0.80457   0.00000  Uiso   1.00
H929   H     0.09657   0.03807   0.86209   0.00000  Uiso   1.00
H930   H     0.25870   0.07810   0.80487   0.00000  Uiso   1.00
H931   H     0.07463   0.25523   0.86180   0.00000  Uiso   1.00
H932   H     0.10695   0.08646   0.72546   0.00000  Uiso   1.00
H933   H     0.22639   0.24688   0.94121   0.00000  Uiso   1.00
H934   H     0.10906   0.08724   0.92603   0.00000  Uiso   1.00
N935   N     0.16668   0.16668   0.95069   0.00000  Uiso   1.00
N936   N     0.16665   0.16666   0.71597   0.00000  Uiso   1.00
O937   O     0.16666   0.10655   0.87291   0.00000  Uiso   1.00
O938   O     0.04656   0.30713   0.88232   0.00000  Uiso   1.00
O939   O     0.04874   0.12288   0.70374   0.00000  Uiso   1.00
O940   O     0.28460   0.21046   0.96292   0.00000  Uiso   1.00
O941   O     0.04875   0.11841   0.93921   0.00000  Uiso   1.00
O942   O     0.28458   0.21492   0.72746   0.00000  Uiso   1.00
O943   O     0.16667   0.22678   0.79375   0.00000  Uiso   1.00
O944   O     0.16666   0.10654   0.79372   0.00000  Uiso   1.00
O945   O     0.16667   0.22679   0.87294   0.00000  Uiso   1.00
O946   O     0.09161   0.16667   0.86379   0.00000  Uiso   1.00
O947   O     0.24172   0.16666   0.80288   0.00000  Uiso   1.00
O948   O     0.09161   0.16666   0.78460   0.00000  Uiso   1.00
O949   O     0.24172   0.16667   0.88207   0.00000  Uiso   1.00
O950   O     0.28678   0.02620   0.78436   0.00000  Uiso   1.00
C951   C     0.50084   0.08762   0.83352   0.00000  Uiso   1.00
C952   C     0.46070   0.02113   0.85020   0.00000  Uiso   1.00
C953   C     0.49821   0.29036   0.83288   0.00000  Uiso   1.00
C954   C     0.50179   0.04297   0.83379   0.00000  Uiso   1.00
C955   C     0.46492   0.14239   0.68737   0.00000  Uiso   1.00
C956   C     0.53508   0.19094   0.97929   0.00000  Uiso   1.00
C957   C     0.46502   0.14227   0.97123   0.00000  Uiso   1.00
C958   C     0.53498   0.19106   0.69544   0.00000  Uiso   1.00
C959   C     0.58718   0.04472   0.80123   0.00000  Uiso   1.00
C960   C     0.41282   0.28862   0.86543   0.00000  Uiso   1.00
C961   C     0.42770   0.11478   0.70791   0.00000  Uiso   1.00
C962   C     0.49916   0.24572   0.83314   0.00000  Uiso   1.00
C963   C     0.57230   0.21855   0.95876   0.00000  Uiso   1.00
C964   C     0.42852   0.11374   0.94249   0.00000  Uiso   1.00
C965   C     0.57148   0.21959   0.72418   0.00000  Uiso   1.00
C966   C     0.40139   0.16610   0.82138   0.00000  Uiso   1.00
C967   C     0.59861   0.16723   0.84528   0.00000  Uiso   1.00
C968   C     0.34602   0.16418   0.81506   0.00000  Uiso   1.00
C969   C     0.65398   0.16915   0.85160   0.00000  Uiso   1.00
C970   C     0.54186   0.02209   0.81683   0.00000  Uiso   1.00
C971   C     0.45814   0.31125   0.84984   0.00000  Uiso   1.00
C972   C     0.53930   0.31220   0.81646   0.00000  Uiso   1.00
Cu973  Cu    0.50000   0.16667   0.88022   0.00000  Uiso   1.00
Cu974  Cu    0.50000   0.16666   0.78645   0.00000  Uiso   1.00
H975   H     0.65941   0.15785   0.78027   0.00000  Uiso   1.00
H976   H     0.55761   0.24609   0.74064   0.00000  Uiso   1.00
H977   H     0.34059   0.17548   0.88640   0.00000  Uiso   1.00
H978   H     0.57010   0.29526   0.80457   0.00000  Uiso   1.00
H979   H     0.42990   0.03807   0.86209   0.00000  Uiso   1.00
H980   H     0.59203   0.07810   0.80487   0.00000  Uiso   1.00
H981   H     0.40797   0.25523   0.86180   0.00000  Uiso   1.00
H982   H     0.44028   0.08646   0.72546   0.00000  Uiso   1.00
H983   H     0.55972   0.24688   0.94121   0.00000  Uiso   1.00
H984   H     0.44239   0.08724   0.92603   0.00000  Uiso   1.00
N985   N     0.50001   0.16668   0.95069   0.00000  Uiso   1.00
N986   N     0.49999   0.16666   0.71597   0.00000  Uiso   1.00
O987   O     0.50000   0.10655   0.87291   0.00000  Uiso   1.00
O988   O     0.37989   0.30713   0.88232   0.00000  Uiso   1.00
O989   O     0.38207   0.12288   0.70374   0.00000  Uiso   1.00
O990   O     0.61793   0.21046   0.96292   0.00000  Uiso   1.00
O991   O     0.38208   0.11841   0.93921   0.00000  Uiso   1.00
O992   O     0.61792   0.21492   0.72746   0.00000  Uiso   1.00
O993   O     0.50000   0.22678   0.79375   0.00000  Uiso   1.00
O994   O     0.50000   0.10654   0.79372   0.00000  Uiso   1.00
O995   O     0.50000   0.22679   0.87294   0.00000  Uiso   1.00
O996   O     0.42495   0.16667   0.86379   0.00000  Uiso   1.00
O997   O     0.57505   0.16666   0.80288   0.00000  Uiso   1.00
O998   O     0.42494   0.16666   0.78460   0.00000  Uiso   1.00
O999   O     0.57506   0.16667   0.88207   0.00000  Uiso   1.00
O1000  O     0.62012   0.02620   0.78436   0.00000  Uiso   1.00
C1001  C     0.83418   0.08762   0.83352   0.00000  Uiso   1.00
C1002  C     0.79403   0.02113   0.85020   0.00000  Uiso   1.00
C1003  C     0.83154   0.29036   0.83288   0.00000  Uiso   1.00
C1004  C     0.83512   0.04297   0.83379   0.00000  Uiso   1.00
C1005  C     0.79825   0.14239   0.68737   0.00000  Uiso   1.00
C1006  C     0.86841   0.19094   0.97929   0.00000  Uiso   1.00
C1007  C     0.79835   0.14227   0.97123   0.00000  Uiso   1.00
C1008  C     0.86832   0.19106   0.69544   0.00000  Uiso   1.00
C1009  C     0.92051   0.04472   0.80123   0.00000  Uiso   1.00
C1010  C     0.74616   0.28862   0.86543   0.00000  Uiso   1.00
C1011  C     0.76103   0.11478   0.70791   0.00000  Uiso   1.00
C1012  C     0.83249   0.24572   0.83314   0.00000  Uiso   1.00
C1013  C     0.90563   0.21855   0.95876   0.00000  Uiso   1.00
C1014  C     0.76185   0.11374   0.94249   0.00000  Uiso   1.00
C1015  C     0.90482   0.21959   0.72418   0.00000  Uiso   1.00
C1016  C     0.73472   0.16610   0.82138   0.00000  Uiso   1.00
C1017  C     0.93194   0.16723   0.84528   0.00000  Uiso   1.00
C1018  C     0.67935   0.16418   0.81506   0.00000  Uiso   1.00
C1019  C     0.98731   0.16915   0.85160   0.00000  Uiso   1.00
C1020  C     0.87519   0.02209   0.81683   0.00000  Uiso   1.00
C1021  C     0.79147   0.31125   0.84984   0.00000  Uiso   1.00
C1022  C     0.87264   0.31220   0.81646   0.00000  Uiso   1.00
Cu1023 Cu    0.83333   0.16667   0.88022   0.00000  Uiso   1.00
Cu1024 Cu    0.83333   0.16666   0.78645   0.00000  Uiso   1.00
H1025  H     0.99274   0.15785   0.78027   0.00000  Uiso   1.00
H1026  H     0.89094   0.24609   0.74064   0.00000  Uiso   1.00
H1027  H     0.67392   0.17548   0.88640   0.00000  Uiso   1.00
H1028  H     0.90343   0.29526   0.80457   0.00000  Uiso   1.00
H1029  H     0.76323   0.03807   0.86209   0.00000  Uiso   1.00
H1030  H     0.92537   0.07810   0.80487   0.00000  Uiso   1.00
H1031  H     0.74130   0.25523   0.86180   0.00000  Uiso   1.00
H1032  H     0.77361   0.08646   0.72546   0.00000  Uiso   1.00
H1033  H     0.89305   0.24688   0.94121   0.00000  Uiso   1.00
H1034  H     0.77573   0.08724   0.92603   0.00000  Uiso   1.00
N1035  N     0.83335   0.16668   0.95069   0.00000  Uiso   1.00
N1036  N     0.83332   0.16666   0.71597   0.00000  Uiso   1.00
O1037  O     0.83333   0.10655   0.87291   0.00000  Uiso   1.00
O1038  O     0.71322   0.30713   0.88232   0.00000  Uiso   1.00
O1039  O     0.71540   0.12288   0.70374   0.00000  Uiso   1.00
O1040  O     0.95126   0.21046   0.96292   0.00000  Uiso   1.00
O1041  O     0.71542   0.11841   0.93921   0.00000  Uiso   1.00
O1042  O     0.95125   0.21492   0.72746   0.00000  Uiso   1.00
O1043  O     0.83334   0.22678   0.79375   0.00000  Uiso   1.00
O1044  O     0.83333   0.10654   0.79372   0.00000  Uiso   1.00
O1045  O     0.83334   0.22679   0.87294   0.00000  Uiso   1.00
O1046  O     0.75828   0.16667   0.86379   0.00000  Uiso   1.00
O1047  O     0.90839   0.16666   0.80288   0.00000  Uiso   1.00
O1048  O     0.75828   0.16666   0.78460   0.00000  Uiso   1.00
O1049  O     0.90839   0.16667   0.88207   0.00000  Uiso   1.00
O1050  O     0.95345   0.02620   0.78436   0.00000  Uiso   1.00
C1051  C     0.16751   0.42095   0.83352   0.00000  Uiso   1.00
C1052  C     0.12736   0.35447   0.85020   0.00000  Uiso   1.00
C1053  C     0.16488   0.62369   0.83288   0.00000  Uiso   1.00
C1054  C     0.16846   0.37631   0.83379   0.00000  Uiso   1.00
C1055  C     0.13159   0.47572   0.68737   0.00000  Uiso   1.00
C1056  C     0.20175   0.52428   0.97929   0.00000  Uiso   1.00
C1057  C     0.13168   0.47560   0.97123   0.00000  Uiso   1.00
C1058  C     0.20165   0.52440   0.69544   0.00000  Uiso   1.00
C1059  C     0.25384   0.37805   0.80123   0.00000  Uiso   1.00
C1060  C     0.07949   0.62195   0.86543   0.00000  Uiso   1.00
C1061  C     0.09437   0.44811   0.70791   0.00000  Uiso   1.00
C1062  C     0.16582   0.57905   0.83314   0.00000  Uiso   1.00
C1063  C     0.23897   0.55189   0.95876   0.00000  Uiso   1.00
C1064  C     0.09518   0.44708   0.94249   0.00000  Uiso   1.00
C1065  C     0.23815   0.55292   0.72418   0.00000  Uiso   1.00
C1066  C     0.06806   0.49944   0.82138   0.00000  Uiso   1.00
C1067  C     0.26528   0.50056   0.84528   0.00000  Uiso   1.00
C1068  C     0.01269   0.49751   0.81506   0.00000  Uiso   1.00
C1069  C     0.32065   0.50249   0.85160   0.00000  Uiso   1.00
C1070  C     0.20853   0.35542   0.81683   0.00000  Uiso   1.00
C1071  C     0.12481   0.64458   0.84984   0.00000  Uiso   1.00
C1072  C     0.20597   0.64553   0.81646   0.00000  Uiso   1.00
Cu1073 Cu    0.16667   0.50001   0.88022   0.00000  Uiso   1.00
Cu1074 Cu    0.16667   0.49999   0.78645   0.00000  Uiso   1.00
H1075  H     0.32608   0.49119   0.78027   0.00000  Uiso   1.00
H1076  H     0.22427   0.57943   0.74064   0.00000  Uiso   1.00
H1077  H     0.00726   0.50881   0.88640   0.00000  Uiso   1.00
H1078  H     0.23677   0.62860   0.80457   0.00000  Uiso   1.00
H1079  H     0.09657   0.37140   0.86209   0.00000  Uiso   1.00
H1080  H     0.25870   0.41143   0.80487   0.00000  Uiso   1.00
H1081  H     0.07463   0.58857   0.86180   0.00000  Uiso   1.00
H1082  H     0.10695   0.41979   0.72546   0.00000  Uiso   1.00
H1083  H     0.22639   0.58021   0.94121   0.00000  Uiso   1.00
H1084  H     0.10906   0.42057   0.92603   0.00000  Uiso   1.00
N1085  N     0.16668   0.50001   0.95069   0.00000  Uiso   1.00
N1086  N     0.16665   0.49999   0.71597   0.00000  Uiso   1.00
O1087  O     0.16666   0.43989   0.87291   0.00000  Uiso   1.00
O1088  O     0.04656   0.64046   0.88232   0.00000  Uiso   1.00
O1089  O     0.04874   0.45621   0.70374   0.00000  Uiso   1.00
O1090  O     0.28460   0.54379   0.96292   0.00000  Uiso   1.00
O1091  O     0.04875   0.45174   0.93921   0.00000  Uiso   1.00
O1092  O     0.28458   0.54826   0.72746   0.00000  Uiso   1.00
O1093  O     0.16667   0.56011   0.79375   0.00000  Uiso   1.00
O1094  O     0.16666   0.43988   0.79372   0.00000  Uiso   1.00
O1095  O     0.16667   0.56012   0.87294   0.00000  Uiso   1.00
O1096  O     0.09161   0.50000   0.86379   0.00000  Uiso   1.00
O1097  O     0.24172   0.50000   0.80288   0.00000  Uiso   1.00
O1098  O     0.09161   0.49999   0.78460   0.00000  Uiso   1.00
O1099  O     0.24172   0.50001   0.88207   0.00000  Uiso   1.00
O1100  O     0.28678   0.35954   0.78436   0.00000  Uiso   1.00
C1101  C     0.50084   0.42095   0.83352   0.00000  Uiso   1.00
C1102  C     0.46070   0.35447   0.85020   0.00000  Uiso   1.00
C1103  C     0.49821   0.62369   0.83288   0.00000  Uiso   1.00
C1104  C     0.50179   0.37631   0.83379   0.00000  Uiso   1.00
C1105  C     0.46492   0.47572   0.68737   0.00000  Uiso   1.00
C1106  C     0.53508   0.52428   0.97929   0.00000  Uiso   1.00
C1107  C     0.46502   0.47560   0.97123   0.00000  Uiso   1.00
C1108  C     0.53498   0.52440   0.69544   0.00000  Uiso   1.00
C1109  C     0.58718   0.37805   0.80123   0.00000  Uiso   1.00
C1110  C     0.41282   0.62195   0.86543   0.00000  Uiso   1.00
C1111  C     0.42770   0.44811   0.70791   0.00000  Uiso   1.00
C1112  C     0.49916   0.57905   0.83314   0.00000  Uiso   1.00
C1113  C     0.57230   0.55189   0.95876   0.00000  Uiso   1.00
C1114  C     0.42852   0.44708   0.94249   0.00000  Uiso   1.00
C1115  C     0.57148   0.55292   0.72418   0.00000  Uiso   1.00
C1116  C     0.40139   0.49944   0.82138   0.00000  Uiso   1.00
C1117  C     0.59861   0.50056   0.84528   0.00000  Uiso   1.00
C1118  C     0.34602   0.49751   0.81506   0.00000  Uiso   1.00
C1119  C     0.65398   0.50249   0.85160   0.00000  Uiso   1.00
C1120  C     0.54186   0.35542   0.81683   0.00000  Uiso   1.00
C1121  C     0.45814   0.64458   0.84984   0.00000  Uiso   1.00
C1122  C     0.53930   0.64553   0.81646   0.00000  Uiso   1.00
Cu1123 Cu    0.50000   0.50001   0.88022   0.00000  Uiso   1.00
Cu1124 Cu    0.50000   0.49999   0.78645   0.00000  Uiso   1.00
H1125  H     0.65941   0.49119   0.78027   0.00000  Uiso   1.00
H1126  H     0.55761   0.57943   0.74064   0.00000  Uiso   1.00
H1127  H     0.34059   0.50881   0.88640   0.00000  Uiso   1.00
H1128  H     0.57010   0.62860   0.80457   0.00000  Uiso   1.00
H1129  H     0.42990   0.37140   0.86209   0.00000  Uiso   1.00
H1130  H     0.59203   0.41143   0.80487   0.00000  Uiso   1.00
H1131  H     0.40797   0.58857   0.86180   0.00000  Uiso   1.00
H1132  H     0.44028   0.41979   0.72546   0.00000  Uiso   1.00
H1133  H     0.55972   0.58021   0.94121   0.00000  Uiso   1.00
H1134  H     0.44239   0.42057   0.92603   0.00000  Uiso   1.00
N1135  N     0.50001   0.50001   0.95069   0.00000  Uiso   1.00
N1136  N     0.49999   0.49999   0.71597   0.00000  Uiso   1.00
O1137  O     0.50000   0.43989   0.87291   0.00000  Uiso   1.00
O1138  O     0.37989   0.64046   0.88232   0.00000  Uiso   1.00
O1139  O     0.38207   0.45621   0.70374   0.00000  Uiso   1.00
O1140  O     0.61793   0.54379   0.96292   0.00000  Uiso   1.00
O1141  O     0.38208   0.45174   0.93921   0.00000  Uiso   1.00
O1142  O     0.61792   0.54826   0.72746   0.00000  Uiso   1.00
O1143  O     0.50000   0.56011   0.79375   0.00000  Uiso   1.00
O1144  O     0.50000   0.43988   0.79372   0.00000  Uiso   1.00
O1145  O     0.50000   0.56012   0.87294   0.00000  Uiso   1.00
O1146  O     0.42495   0.50000   0.86379   0.00000  Uiso   1.00
O1147  O     0.57505   0.50000   0.80288   0.00000  Uiso   1.00
O1148  O     0.42494   0.49999   0.78460   0.00000  Uiso   1.00
O1149  O     0.57506   0.50001   0.88207   0.00000  Uiso   1.00
O1150  O     0.62012   0.35954   0.78436   0.00000  Uiso   1.00
C1151  C     0.83418   0.42095   0.83352   0.00000  Uiso   1.00
C1152  C     0.79403   0.35447   0.85020   0.00000  Uiso   1.00
C1153  C     0.83154   0.62369   0.83288   0.00000  Uiso   1.00
C1154  C     0.83512   0.37631   0.83379   0.00000  Uiso   1.00
C1155  C     0.79825   0.47572   0.68737   0.00000  Uiso   1.00
C1156  C     0.86841   0.52428   0.97929   0.00000  Uiso   1.00
C1157  C     0.79835   0.47560   0.97123   0.00000  Uiso   1.00
C1158  C     0.86832   0.52440   0.69544   0.00000  Uiso   1.00
C1159  C     0.92051   0.37805   0.80123   0.00000  Uiso   1.00
C1160  C     0.74616   0.62195   0.86543   0.00000  Uiso   1.00
C1161  C     0.76103   0.44811   0.70791   0.00000  Uiso   1.00
C1162  C     0.83249   0.57905   0.83314   0.00000  Uiso   1.00
C1163  C     0.90563   0.55189   0.95876   0.00000  Uiso   1.00
C1164  C     0.76185   0.44708   0.94249   0.00000  Uiso   1.00
C1165  C     0.90482   0.55292   0.72418   0.00000  Uiso   1.00
C1166  C     0.73472   0.49944   0.82138   0.00000  Uiso   1.00
C1167  C     0.93194   0.50056   0.84528   0.00000  Uiso   1.00
C1168  C     0.67935   0.49751   0.81506   0.00000  Uiso   1.00
C1169  C     0.98731   0.50249   0.85160   0.00000  Uiso   1.00
C1170  C     0.87519   0.35542   0.81683   0.00000  Uiso   1.00
C1171  C     0.79147   0.64458   0.84984   0.00000  Uiso   1.00
C1172  C     0.87264   0.64553   0.81646   0.00000  Uiso   1.00
Cu1173 Cu    0.83333   0.50001   0.88022   0.00000  Uiso   1.00
Cu1174 Cu    0.83333   0.49999   0.78645   0.00000  Uiso   1.00
H1175  H     0.99274   0.49119   0.78027   0.00000  Uiso   1.00
H1176  H     0.89094   0.57943   0.74064   0.00000  Uiso   1.00
H1177  H     0.67392   0.50881   0.88640   0.00000  Uiso   1.00
H1178  H     0.90343   0.62860   0.80457   0.00000  Uiso   1.00
H1179  H     0.76323   0.37140   0.86209   0.00000  Uiso   1.00
H1180  H     0.92537   0.41143   0.80487   0.00000  Uiso   1.00
H1181  H     0.74130   0.58857   0.86180   0.00000  Uiso   1.00
H1182  H     0.77361   0.41979   0.72546   0.00000  Uiso   1.00
H1183  H     0.89305   0.58021   0.94121   0.00000  Uiso   1.00
H1184  H     0.77573   0.42057   0.92603   0.00000  Uiso   1.00
N1185  N     0.83335   0.50001   0.95069   0.00000  Uiso   1.00
N1186  N     0.83332   0.49999   0.71597   0.00000  Uiso   1.00
O1187  O     0.83333   0.43989   0.87291   0.00000  Uiso   1.00
O1188  O     0.71322   0.64046   0.88232   0.00000  Uiso   1.00
O1189  O     0.71540   0.45621   0.70374   0.00000  Uiso   1.00
O1190  O     0.95126   0.54379   0.96292   0.00000  Uiso   1.00
O1191  O     0.71542   0.45174   0.93921   0.00000  Uiso   1.00
O1192  O     0.95125   0.54826   0.72746   0.00000  Uiso   1.00
O1193  O     0.83334   0.56011   0.79375   0.00000  Uiso   1.00
O1194  O     0.83333   0.43988   0.79372   0.00000  Uiso   1.00
O1195  O     0.83334   0.56012   0.87294   0.00000  Uiso   1.00
O1196  O     0.75828   0.50000   0.86379   0.00000  Uiso   1.00
O1197  O     0.90839   0.50000   0.80288   0.00000  Uiso   1.00
O1198  O     0.75828   0.49999   0.78460   0.00000  Uiso   1.00
O1199  O     0.90839   0.50001   0.88207   0.00000  Uiso   1.00
O1200  O     0.95345   0.35954   0.78436   0.00000  Uiso   1.00
C1201  C     0.16751   0.75429   0.83352   0.00000  Uiso   1.00
C1202  C     0.12736   0.68780   0.85020   0.00000  Uiso   1.00
C1203  C     0.16488   0.95703   0.83288   0.00000  Uiso   1.00
C1204  C     0.16846   0.70964   0.83379   0.00000  Uiso   1.00
C1205  C     0.13159   0.80906   0.68737   0.00000  Uiso   1.00
C1206  C     0.20175   0.85761   0.97929   0.00000  Uiso   1.00
C1207  C     0.13168   0.80894   0.97123   0.00000  Uiso   1.00
C1208  C     0.20165   0.85773   0.69544   0.00000  Uiso   1.00
C1209  C     0.25384   0.71138   0.80123   0.00000  Uiso   1.00
C1210  C     0.07949   0.95528   0.86543   0.00000  Uiso   1.00
C1211  C     0.09437   0.78145   0.70791   0.00000  Uiso   1.00
C1212  C     0.16582   0.91238   0.83314   0.00000  Uiso   1.00
C1213  C     0.23897   0.88522   0.95876   0.00000  Uiso   1.00
C1214  C     0.09518   0.78041   0.94249   0.00000  Uiso   1.00
C1215  C     0.23815   0.88626   0.72418   0.00000  Uiso   1.00
C1216  C     0.06806   0.83277   0.82138   0.00000  Uiso   1.00
C1217  C     0.26528   0.83390   0.84528   0.00000  Uiso   1.00
C1218  C     0.01269   0.83085   0.81506   0.00000  Uiso   1.00
C1219  C     0.32065   0.83582   0.85160   0.00000  Uiso   1.00
C1220  C     0.20853   0.68875   0.81683   0.00000  Uiso   1.00
C1221  C     0.12481   0.97791   0.84984   0.00000  Uiso   1.00
C1222  C     0.20597   0.97887   0.81646   0.00000  Uiso   1.00
Cu1223 Cu    0.16667   0.83334   0.88022   0.00000  Uiso   1.00
Cu1224 Cu    0.16667   0.83333   0.78645   0.00000  Uiso   1.00
H1225  H     0.32608   0.82452   0.78027   0.00000  Uiso   1.00
H1226  H     0.22427   0.91276   0.74064   0.00000  Uiso   1.00
H1227  H     0.00726   0.84215   0.88640   0.00000  Uiso   1.00
H1228  H     0.23677   0.96193   0.80457   0.00000  Uiso   1.00
H1229  H     0.09657   0.70474   0.86209   0.00000  Uiso   1.00
H1230  H     0.25870   0.74477   0.80487   0.00000  Uiso   1.00
H1231  H     0.07463   0.92190   0.86180   0.00000  Uiso   1.00
H1232  H     0.10695   0.75312   0.72546   0.00000  Uiso   1.00
H1233  H     0.22639   0.91354   0.94121   0.00000  Uiso   1.00
H1234  H     0.10906   0.75391   0.92603   0.00000  Uiso   1.00
N1235  N     0.16668   0.83334   0.95069   0.00000  Uiso   1.00
N1236  N     0.16665   0.83332   0.71597   0.00000  Uiso   1.00
O1237  O     0.16666   0.77322   0.87291   0.00000  Uiso   1.00
O1238  O     0.04656   0.97380   0.88232   0.00000  Uiso   1.00
O1239  O     0.04874   0.78954   0.70374   0.00000  Uiso   1.00
O1240  O     0.28460   0.87712   0.96292   0.00000  Uiso   1.00
O1241  O     0.04875   0.78508   0.93921   0.00000  Uiso   1.00
O1242  O     0.28458   0.88159   0.72746   0.00000  Uiso   1.00
O1243  O     0.16667   0.89345   0.79375   0.00000  Uiso   1.00
O1244  O     0.16666   0.77321   0.79372   0.00000  Uiso   1.00
O1245  O     0.16667   0.89346   0.87294   0.00000  Uiso   1.00
O1246  O     0.09161   0.83334   0.86379   0.00000  Uiso   1.00
O1247  O     0.24172   0.83333   0.80288   0.00000  Uiso   1.00
O1248  O     0.09161   0.83333   0.78460   0.00000  Uiso   1.00
O1249  O     0.24172   0.83334   0.88207   0.00000  Uiso   1.00
O1250  O     0.28678   0.69287   0.78436   0.00000  Uiso   1.00
C1251  C     0.50084   0.75429   0.83352   0.00000  Uiso   1.00
C1252  C     0.46070   0.68780   0.85020   0.00000  Uiso   1.00
C1253  C     0.49821   0.95703   0.83288   0.00000  Uiso   1.00
C1254  C     0.50179   0.70964   0.83379   0.00000  Uiso   1.00
C1255  C     0.46492   0.80906   0.68737   0.00000  Uiso   1.00
C1256  C     0.53508   0.85761   0.97929   0.00000  Uiso   1.00
C1257  C     0.46502   0.80894   0.97123   0.00000  Uiso   1.00
C1258  C     0.53498   0.85773   0.69544   0.00000  Uiso   1.00
C1259  C     0.58718   0.71138   0.80123   0.00000  Uiso   1.00
C1260  C     0.41282   0.95528   0.86543   0.00000  Uiso   1.00
C1261  C     0.42770   0.78145   0.70791   0.00000  Uiso   1.00
C1262  C     0.49916   0.91238   0.83314   0.00000  Uiso   1.00
C1263  C     0.57230   0.88522   0.95876   0.00000  Uiso   1.00
C1264  C     0.42852   0.78041   0.94249   0.00000  Uiso   1.00
C1265  C     0.57148   0.88626   0.72418   0.00000  Uiso   1.00
C1266  C     0.40139   0.83277   0.82138   0.00000  Uiso   1.00
C1267  C     0.59861   0.83390   0.84528   0.00000  Uiso   1.00
C1268  C     0.34602   0.83085   0.81506   0.00000  Uiso   1.00
C1269  C     0.65398   0.83582   0.85160   0.00000  Uiso   1.00
C1270  C     0.54186   0.68875   0.81683   0.00000  Uiso   1.00
C1271  C     0.45814   0.97791   0.84984   0.00000  Uiso   1.00
C1272  C     0.53930   0.97887   0.81646   0.00000  Uiso   1.00
Cu1273 Cu    0.50000   0.83334   0.88022   0.00000  Uiso   1.00
Cu1274 Cu    0.50000   0.83333   0.78645   0.00000  Uiso   1.00
H1275  H     0.65941   0.82452   0.78027   0.00000  Uiso   1.00
H1276  H     0.55761   0.91276   0.74064   0.00000  Uiso   1.00
H1277  H     0.34059   0.84215   0.88640   0.00000  Uiso   1.00
H1278  H     0.57010   0.96193   0.80457   0.00000  Uiso   1.00
H1279  H     0.42990   0.70474   0.86209   0.00000  Uiso   1.00
H1280  H     0.59203   0.74477   0.80487   0.00000  Uiso   1.00
H1281  H     0.40797   0.92190   0.86180   0.00000  Uiso   1.00
H1282  H     0.44028   0.75312   0.72546   0.00000  Uiso   1.00
H1283  H     0.55972   0.91354   0.94121   0.00000  Uiso   1.00
H1284  H     0.44239   0.75391   0.92603   0.00000  Uiso   1.00
N1285  N     0.50001   0.83334   0.95069   0.00000  Uiso   1.00
N1286  N     0.49999   0.83332   0.71597   0.00000  Uiso   1.00
O1287  O     0.50000   0.77322   0.87291   0.00000  Uiso   1.00
O1288  O     0.37989   0.97380   0.88232   0.00000  Uiso   1.00
O1289  O     0.38207   0.78954   0.70374   0.00000  Uiso   1.00
O1290  O     0.61793   0.87712   0.96292   0.00000  Uiso   1.00
O1291  O     0.38208   0.78508   0.93921   0.00000  Uiso   1.00
O1292  O     0.61792   0.88159   0.72746   0.00000  Uiso   1.00
O1293  O     0.50000   0.89345   0.79375   0.00000  Uiso   1.00
O1294  O     0.50000   0.77321   0.79372   0.00000  Uiso   1.00
O1295  O     0.50000   0.89346   0.87294   0.00000  Uiso   1.00
O1296  O     0.42495   0.83334   0.86379   0.00000  Uiso   1.00
O1297  O     0.57505   0.83333   0.80288   0.00000  Uiso   1.00
O1298  O     0.42494   0.83333   0.78460   0.00000  Uiso   1.00
O1299  O     0.57506   0.83334   0.88207   0.00000  Uiso   1.00
O1300  O     0.62012   0.69287   0.78436   0.00000  Uiso   1.00
C1301  C     0.83418   0.75429   0.83352   0.00000  Uiso   1.00
C1302  C     0.79403   0.68780   0.85020   0.00000  Uiso   1.00
C1303  C     0.83154   0.95703   0.83288   0.00000  Uiso   1.00
C1304  C     0.83512   0.70964   0.83379   0.00000  Uiso   1.00
C1305  C     0.79825   0.80906   0.68737   0.00000  Uiso   1.00
C1306  C     0.86841   0.85761   0.97929   0.00000  Uiso   1.00
C1307  C     0.79835   0.80894   0.97123   0.00000  Uiso   1.00
C1308  C     0.86832   0.85773   0.69544   0.00000  Uiso   1.00
C1309  C     0.92051   0.71138   0.80123   0.00000  Uiso   1.00
C1310  C     0.74616   0.95528   0.86543   0.00000  Uiso   1.00
C1311  C     0.76103   0.78145   0.70791   0.00000  Uiso   1.00
C1312  C     0.83249   0.91238   0.83314   0.00000  Uiso   1.00
C1313  C     0.90563   0.88522   0.95876   0.00000  Uiso   1.00
C1314  C     0.76185   0.78041   0.94249   0.00000  Uiso   1.00
C1315  C     0.90482   0.88626   0.72418   0.00000  Uiso   1.00
C1316  C     0.73472   0.83277   0.82138   0.00000  Uiso   1.00
C1317  C     0.93194   0.83390   0.84528   0.00000  Uiso   1.00
C1318  C     0.67935   0.83085   0.81506   0.00000  Uiso   1.00
C1319  C     0.98731   0.83582   0.85160   0.00000  Uiso   1.00
C1320  C     0.87519   0.68875   0.81683   0.00000  Uiso   1.00
C1321  C     0.79147   0.97791   0.84984   0.00000  Uiso   1.00
C1322  C     0.87264   0.97887   0.81646   0.00000  Uiso   1.00
Cu1323 Cu    0.83333   0.83334   0.88022   0.00000  Uiso   1.00
Cu1324 Cu    0.83333   0.83333   0.78645   0.00000  Uiso   1.00
H1325  H     0.99274   0.82452   0.78027   0.00000  Uiso   1.00
H1326  H     0.89094   0.91276   0.74064   0.00000  Uiso   1.00
H1327  H     0.67392   0.84215   0.88640   0.00000  Uiso   1.00
H1328  H     0.90343   0.96193   0.80457   0.00000  Uiso   1.00
H1329  H     0.76323   0.70474   0.86209   0.00000  Uiso   1.00
H1330  H     0.92537   0.74477   0.80487   0.00000  Uiso   1.00
H1331  H     0.74130   0.92190   0.86180   0.00000  Uiso   1.00
H1332  H     0.77361   0.75312   0.72546   0.00000  Uiso   1.00
H1333  H     0.89305   0.91354   0.94121   0.00000  Uiso   1.00
H1334  H     0.77573   0.75391   0.92603   0.00000  Uiso   1.00
N1335  N     0.83335   0.83334   0.95069   0.00000  Uiso   1.00
N1336  N     0.83332   0.83332   0.71597   0.00000  Uiso   1.00
O1337  O     0.83333   0.77322   0.87291   0.00000  Uiso   1.00
O1338  O     0.71322   0.97380   0.88232   0.00000  Uiso   1.00
O1339  O     0.71540   0.78954   0.70374   0.00000  Uiso   1.00
O1340  O     0.95126   0.87712   0.96292   0.00000  Uiso   1.00
O1341  O     0.71542   0.78508   0.93921   0.00000  Uiso   1.00
O1342  O     0.95125   0.88159   0.72746   0.00000  Uiso   1.00
O1343  O     0.83334   0.89345   0.79375   0.00000  Uiso   1.00
O1344  O     0.83333   0.77321   0.79372   0.00000  Uiso   1.00
O1345  O     0.83334   0.89346   0.87294   0.00000  Uiso   1.00
O1346  O     0.75828   0.83334   0.86379   0.00000  Uiso   1.00
O1347  O     0.90839   0.83333   0.80288   0.00000  Uiso   1.00
O1348  O     0.75828   0.83333   0.78460   0.00000  Uiso   1.00
O1349  O     0.90839   0.83334   0.88207   0.00000  Uiso   1.00
O1350  O     0.95345   0.69287   0.78436   0.00000  Uiso   1.00
loop_
_geom_bond_atom_site_label_1
_geom_bond_atom_site_label_2
_geom_bond_distance
_geom_bond_site_symmetry_2
_ccdc_geom_bond_type
C1     O44     1.297   .     A
C1     O37     1.299   .     A
C1     C4      1.441   .     S
C2     C4      1.397   .     A
C2     H29     1.084   .     S
C2     C321    1.393   1_545 S
C3     C22     1.397   .     A
C3     C21     1.410   .     A
C3     C12     1.441   .     S
C4     C20     1.410   .     A
C5     C11     1.475   .     S
C5     N36     1.374   .     A
C5     C907    1.431   1_554 S
C6     C13     1.475   .     S
C6     N35     1.374   .     A
C6     C458    1.431   .     S
C7     N35     1.377   .     A
C7     C14     1.476   .     S
C7     C455    1.431   .     S
C8     C15     1.476   .     S
C8     N36     1.377   .     A
C8     C906    1.431   1_554 S
C9     H30     1.084   .     S
C9     C20     1.488   .     S
C9     O50     1.221   .     D
C10    O38     1.221   .     D
C10    C21     1.488   .     S
C10    H31     1.084   .     S
C11    O39     1.221   .     D
C11    H32     1.083   .     S
C12    O43     1.299   .     A
C12    O45     1.297   .     A
C13    H33     1.083   .     S
C13    O40     1.221   .     D
C14    H34     1.079   .     S
C14    O41     1.220   .     D
C15    O42     1.220   .     D
C15    H26     1.079   .     S
C16    O48     1.298   .     A
C16    O46     1.295   .     A
C16    C18     1.434   .     S
C17    C19     1.434   .     S
C17    O49     1.298   .     A
C17    O47     1.295   .     A
C18    C119    1.335   1_455 S
C18    H125    1.086   1_455 S
C19    C68     1.335   .     S
C19    H77     1.086   .     S
C20    C322    1.393   1_545 S
C21    C152    1.393   .     S
C22    H28     1.084   .     S
C22    C170    1.393   .     S
Cu23   Cu24    2.711   .     S
Cu23   O45     1.949   .     S
Cu23   O46     1.956   .     S
Cu23   N35     2.037   .     S
Cu23   O49     1.956   .     S
Cu23   O37     1.952   .     S
Cu24   N36     2.037   .     S
Cu24   O44     1.949   .     S
Cu24   O48     1.956   .     S
Cu24   O43     1.952   .     S
Cu24   O47     1.956   .     S
H25    C68     1.086   .     S
H27    C119    1.086   1_455 S
C51    O94     1.297   .     A
C51    O87     1.299   .     A
C51    C54     1.441   .     S
C52    C54     1.397   .     A
C52    H79     1.084   .     S
C52    C371    1.393   1_545 S
C53    C72     1.397   .     A
C53    C71     1.410   .     A
C53    C62     1.441   .     S
C54    C70     1.410   .     A
C55    C61     1.475   .     S
C55    N86     1.374   .     A
C55    C957    1.431   1_554 S
C56    C63     1.475   .     S
C56    N85     1.374   .     A
C56    C508    1.431   .     S
C57    N85     1.377   .     A
C57    C64     1.476   .     S
C57    C505    1.431   .     S
C58    C65     1.476   .     S
C58    N86     1.377   .     A
C58    C956    1.431   1_554 S
C59    H80     1.084   .     S
C59    C70     1.488   .     S
C59    O100    1.221   .     D
C60    O88     1.221   .     D
C60    C71     1.488   .     S
C60    H81     1.084   .     S
C61    O89     1.221   .     D
C61    H82     1.083   .     S
C62    O93     1.299   .     A
C62    O95     1.297   .     A
C63    H83     1.083   .     S
C63    O90     1.221   .     D
C64    H84     1.079   .     S
C64    O91     1.220   .     D
C65    O92     1.220   .     D
C65    H76     1.079   .     S
C66    O98     1.298   .     A
C66    O96     1.295   .     A
C66    C68     1.434   .     S
C67    C69     1.434   .     S
C67    O99     1.298   .     A
C67    O97     1.295   .     A
C69    C118    1.335   .     S
C69    H127    1.086   .     S
C70    C372    1.393   1_545 S
C71    C202    1.393   .     S
C72    H78     1.084   .     S
C72    C220    1.393   .     S
Cu73   Cu74    2.711   .     S
Cu73   O95     1.949   .     S
Cu73   O96     1.956   .     S
Cu73   N85     2.037   .     S
Cu73   O99     1.956   .     S
Cu73   O87     1.952   .     S
Cu74   N86     2.037   .     S
Cu74   O94     1.949   .     S
Cu74   O98     1.956   .     S
Cu74   O93     1.952   .     S
Cu74   O97     1.956   .     S
H75    C118    1.086   .     S
C101   O144    1.297   .     A
C101   O137    1.299   .     A
C101   C104    1.441   .     S
C102   C104    1.397   .     A
C102   H129    1.084   .     S
C102   C421    1.393   1_545 S
C103   C122    1.397   .     A
C103   C121    1.410   .     A
C103   C112    1.441   .     S
C104   C120    1.410   .     A
C105   C111    1.475   .     S
C105   N136    1.374   .     A
C105   C1007   1.431   1_554 S
C106   C113    1.475   .     S
C106   N135    1.374   .     A
C106   C558    1.431   .     S
C107   N135    1.377   .     A
C107   C114    1.476   .     S
C107   C555    1.431   .     S
C108   C115    1.476   .     S
C108   N136    1.377   .     A
C108   C1006   1.431   1_554 S
C109   H130    1.084   .     S
C109   C120    1.488   .     S
C109   O150    1.221   .     D
C110   O138    1.221   .     D
C110   C121    1.488   .     S
C110   H131    1.084   .     S
C111   O139    1.221   .     D
C111   H132    1.083   .     S
C112   O143    1.299   .     A
C112   O145    1.297   .     A
C113   H133    1.083   .     S
C113   O140    1.221   .     D
C114   H134    1.079   .     S
C114   O141    1.220   .     D
C115   O142    1.220   .     D
C115   H126    1.079   .     S
C116   O148    1.298   .     A
C116   O146    1.295   .     A
C116   C118    1.434   .     S
C117   C119    1.434   .     S
C117   O149    1.298   .     A
C117   O147    1.295   .     A
C119   C18     1.335   1_655 S
C119   H27     1.086   1_655 S
C120   C422    1.393   1_545 S
C121   C252    1.393   .     S
C122   H128    1.084   .     S
C122   C270    1.393   .     S
Cu123  Cu124   2.711   .     S
Cu123  O145    1.949   .     S
Cu123  O146    1.956   .     S
Cu123  N135    2.037   .     S
Cu123  O149    1.956   .     S
Cu123  O137    1.952   .     S
Cu124  N136    2.037   .     S
Cu124  O144    1.949   .     S
Cu124  O148    1.956   .     S
Cu124  O143    1.952   .     S
Cu124  O147    1.956   .     S
H125   C18     1.086   1_655 S
C151   O194    1.297   .     A
C151   O187    1.299   .     A
C151   C154    1.441   .     S
C152   C154    1.397   .     A
C152   H179    1.084   .     S
C153   C172    1.397   .     A
C153   C171    1.410   .     A
C153   C162    1.441   .     S
C154   C170    1.410   .     A
C155   C161    1.475   .     S
C155   N186    1.374   .     A
C155   C1057   1.431   1_554 S
C156   C163    1.475   .     S
C156   N185    1.374   .     A
C156   C608    1.431   .     S
C157   N185    1.377   .     A
C157   C164    1.476   .     S
C157   C605    1.431   .     S
C158   C165    1.476   .     S
C158   N186    1.377   .     A
C158   C1056   1.431   1_554 S
C159   H180    1.084   .     S
C159   C170    1.488   .     S
C159   O200    1.221   .     D
C160   O188    1.221   .     D
C160   C171    1.488   .     S
C160   H181    1.084   .     S
C161   O189    1.221   .     D
C161   H182    1.083   .     S
C162   O193    1.299   .     A
C162   O195    1.297   .     A
C163   H183    1.083   .     S
C163   O190    1.221   .     D
C164   H184    1.079   .     S
C164   O191    1.220   .     D
C165   O192    1.220   .     D
C165   H176    1.079   .     S
C166   O198    1.298   .     A
C166   O196    1.295   .     A
C166   C168    1.434   .     S
C167   C169    1.434   .     S
C167   O199    1.298   .     A
C167   O197    1.295   .     A
C168   C269    1.335   1_455 S
C168   H275    1.086   1_455 S
C169   C218    1.335   .     S
C169   H227    1.086   .     S
C171   C302    1.393   .     S
C172   H178    1.084   .     S
C172   C320    1.393   .     S
Cu173  Cu174   2.711   .     S
Cu173  O195    1.949   .     S
Cu173  O196    1.956   .     S
Cu173  N185    2.037   .     S
Cu173  O199    1.956   .     S
Cu173  O187    1.952   .     S
Cu174  N186    2.037   .     S
Cu174  O194    1.949   .     S
Cu174  O198    1.956   .     S
Cu174  O193    1.952   .     S
Cu174  O197    1.956   .     S
H175   C218    1.086   .     S
H177   C269    1.086   1_455 S
C201   O244    1.297   .     A
C201   O237    1.299   .     A
C201   C204    1.441   .     S
C202   C204    1.397   .     A
C202   H229    1.084   .     S
C203   C222    1.397   .     A
C203   C221    1.410   .     A
C203   C212    1.441   .     S
C204   C220    1.410   .     A
C205   C211    1.475   .     S
C205   N236    1.374   .     A
C205   C1107   1.431   1_554 S
C206   C213    1.475   .     S
C206   N235    1.374   .     A
C206   C658    1.431   .     S
C207   N235    1.377   .     A
C207   C214    1.476   .     S
C207   C655    1.431   .     S
C208   C215    1.476   .     S
C208   N236    1.377   .     A
C208   C1106   1.431   1_554 S
C209   H230    1.084   .     S
C209   C220    1.488   .     S
C209   O250    1.221   .     D
C210   O238    1.221   .     D
C210   C221    1.488   .     S
C210   H231    1.084   .     S
C211   O239    1.221   .     D
C211   H232    1.083   .     S
C212   O243    1.299   .     A
C212   O245    1.297   .     A
C213   H233    1.083   .     S
C213   O240    1.221   .     D
C214   H234    1.079   .     S
C214   O241    1.220   .     D
C215   O242    1.220   .     D
C215   H226    1.079   .     S
C216   O248    1.298   .     A
C216   O246    1.295   .     A
C216   C218    1.434   .     S
C217   C219    1.434   .     S
C217   O249    1.298   .     A
C217   O247    1.295   .     A
C219   C268    1.335   .     S
C219   H277    1.086   .     S
C221   C352    1.393   .     S
C222   H228    1.084   .     S
C222   C370    1.393   .     S
Cu223  Cu224   2.711   .     S
Cu223  O245    1.949   .     S
Cu223  O246    1.956   .     S
Cu223  N235    2.037   .     S
Cu223  O249    1.956   .     S
Cu223  O237    1.952   .     S
Cu224  N236    2.037   .     S
Cu224  O244    1.949   .     S
Cu224  O248    1.956   .     S
Cu224  O243    1.952   .     S
Cu224  O247    1.956   .     S
H225   C268    1.086   .     S
C251   O294    1.297   .     A
C251   O287    1.299   .     A
C251   C254    1.441   .     S
C252   C254    1.397   .     A
C252   H279    1.084   .     S
C253   C272    1.397   .     A
C253   C271    1.410   .     A
C253   C262    1.441   .     S
C254   C270    1.410   .     A
C255   C261    1.475   .     S
C255   N286    1.374   .     A
C255   C1157   1.431   1_554 S
C256   C263    1.475   .     S
C256   N285    1.374   .     A
C256   C708    1.431   .     S
C257   N285    1.377   .     A
C257   C264    1.476   .     S
C257   C705    1.431   .     S
C258   C265    1.476   .     S
C258   N286    1.377   .     A
C258   C1156   1.431   1_554 S
C259   H280    1.084   .     S
C259   C270    1.488   .     S
C259   O300    1.221   .     D
C260   O288    1.221   .     D
C260   C271    1.488   .     S
C260   H281    1.084   .     S
C261   O289    1.221   .     D
C261   H282    1.083   .     S
C262   O293    1.299   .     A
C262   O295    1.297   .     A
C263   H283    1.083   .     S
C263   O290    1.221   .     D
C264   H284    1.079   .     S
C264   O291    1.220   .     D
C265   O292    1.220   .     D
C265   H276    1.079   .     S
C266   O298    1.298   .     A
C266   O296    1.295   .     A
C266   C268    1.434   .     S
C267   C269    1.434   .     S
C267   O299    1.298   .     A
C267   O297    1.295   .     A
C269   C168    1.335   1_655 S
C269   H177    1.086   1_655 S
C271   C402    1.393   .     S
C272   H278    1.084   .     S
C272   C420    1.393   .     S
Cu273  Cu274   2.711   .     S
Cu273  O295    1.949   .     S
Cu273  O296    1.956   .     S
Cu273  N285    2.037   .     S
Cu273  O299    1.956   .     S
Cu273  O287    1.952   .     S
Cu274  N286    2.037   .     S
Cu274  O294    1.949   .     S
Cu274  O298    1.956   .     S
Cu274  O293    1.952   .     S
Cu274  O297    1.956   .     S
H275   C168    1.086   1_655 S
C301   O344    1.297   .     A
C301   O337    1.299   .     A
C301   C304    1.441   .     S
C302   C304    1.397   .     A
C302   H329    1.084   .     S
C303   C322    1.397   .     A
C303   C321    1.410   .     A
C303   C312    1.441   .     S
C304   C320    1.410   .     A
C305   C311    1.475   .     S
C305   N336    1.374   .     A
C305   C1207   1.431   1_554 S
C306   C313    1.475   .     S
C306   N335    1.374   .     A
C306   C758    1.431   .     S
C307   N335    1.377   .     A
C307   C314    1.476   .     S
C307   C755    1.431   .     S
C308   C315    1.476   .     S
C308   N336    1.377   .     A
C308   C1206   1.431   1_554 S
C309   H330    1.084   .     S
C309   C320    1.488   .     S
C309   O350    1.221   .     D
C310   O338    1.221   .     D
C310   C321    1.488   .     S
C310   H331    1.084   .     S
C311   O339    1.221   .     D
C311   H332    1.083   .     S
C312   O343    1.299   .     A
C312   O345    1.297   .     A
C313   H333    1.083   .     S
C313   O340    1.221   .     D
C314   H334    1.079   .     S
C314   O341    1.220   .     D
C315   O342    1.220   .     D
C315   H326    1.079   .     S
C316   O348    1.298   .     A
C316   O346    1.295   .     A
C316   C318    1.434   .     S
C317   C319    1.434   .     S
C317   O349    1.298   .     A
C317   O347    1.295   .     A
C318   C419    1.335   1_455 S
C318   H425    1.086   1_455 S
C319   C368    1.335   .     S
C319   H377    1.086   .     S
C321   C2      1.393   1_565 S
C322   H328    1.084   .     S
C322   C20     1.393   1_565 S
Cu323  Cu324   2.711   .     S
Cu323  O345    1.949   .     S
Cu323  O346    1.956   .     S
Cu323  N335    2.037   .     S
Cu323  O349    1.956   .     S
Cu323  O337    1.952   .     S
Cu324  N336    2.037   .     S
Cu324  O344    1.949   .     S
Cu324  O348    1.956   .     S
Cu324  O343    1.952   .     S
Cu324  O347    1.956   .     S
H325   C368    1.086   .     S
H327   C419    1.086   1_455 S
C351   O394    1.297   .     A
C351   O387    1.299   .     A
C351   C354    1.441   .     S
C352   C354    1.397   .     A
C352   H379    1.084   .     S
C353   C372    1.397   .     A
C353   C371    1.410   .     A
C353   C362    1.441   .     S
C354   C370    1.410   .     A
C355   C361    1.475   .     S
C355   N386    1.374   .     A
C355   C1257   1.431   1_554 S
C356   C363    1.475   .     S
C356   N385    1.374   .     A
C356   C808    1.431   .     S
C357   N385    1.377   .     A
C357   C364    1.476   .     S
C357   C805    1.431   .     S
C358   C365    1.476   .     S
C358   N386    1.377   .     A
C358   C1256   1.431   1_554 S
C359   H380    1.084   .     S
C359   C370    1.488   .     S
C359   O400    1.221   .     D
C360   O388    1.221   .     D
C360   C371    1.488   .     S
C360   H381    1.084   .     S
C361   O389    1.221   .     D
C361   H382    1.083   .     S
C362   O393    1.299   .     A
C362   O395    1.297   .     A
C363   H383    1.083   .     S
C363   O390    1.221   .     D
C364   H384    1.079   .     S
C364   O391    1.220   .     D
C365   O392    1.220   .     D
C365   H376    1.079   .     S
C366   O398    1.298   .     A
C366   O396    1.295   .     A
C366   C368    1.434   .     S
C367   C369    1.434   .     S
C367   O399    1.298   .     A
C367   O397    1.295   .     A
C369   C418    1.335   .     S
C369   H427    1.086   .     S
C371   C52     1.393   1_565 S
C372   H378    1.084   .     S
C372   C70     1.393   1_565 S
Cu373  Cu374   2.711   .     S
Cu373  O395    1.949   .     S
Cu373  O396    1.956   .     S
Cu373  N385    2.037   .     S
Cu373  O399    1.956   .     S
Cu373  O387    1.952   .     S
Cu374  N386    2.037   .     S
Cu374  O394    1.949   .     S
Cu374  O398    1.956   .     S
Cu374  O393    1.952   .     S
Cu374  O397    1.956   .     S
H375   C418    1.086   .     S
C401   O444    1.297   .     A
C401   O437    1.299   .     A
C401   C404    1.441   .     S
C402   C404    1.397   .     A
C402   H429    1.084   .     S
C403   C422    1.397   .     A
C403   C421    1.410   .     A
C403   C412    1.441   .     S
C404   C420    1.410   .     A
C405   C411    1.475   .     S
C405   N436    1.374   .     A
C405   C1307   1.431   1_554 S
C406   C413    1.475   .     S
C406   N435    1.374   .     A
C406   C858    1.431   .     S
C407   N435    1.377   .     A
C407   C414    1.476   .     S
C407   C855    1.431   .     S
C408   C415    1.476   .     S
C408   N436    1.377   .     A
C408   C1306   1.431   1_554 S
C409   H430    1.084   .     S
C409   C420    1.488   .     S
C409   O450    1.221   .     D
C410   O438    1.221   .     D
C410   C421    1.488   .     S
C410   H431    1.084   .     S
C411   O439    1.221   .     D
C411   H432    1.083   .     S
C412   O443    1.299   .     A
C412   O445    1.297   .     A
C413   H433    1.083   .     S
C413   O440    1.221   .     D
C414   H434    1.079   .     S
C414   O441    1.220   .     D
C415   O442    1.220   .     D
C415   H426    1.079   .     S
C416   O448    1.298   .     A
C416   O446    1.295   .     A
C416   C418    1.434   .     S
C417   C419    1.434   .     S
C417   O449    1.298   .     A
C417   O447    1.295   .     A
C419   C318    1.335   1_655 S
C419   H327    1.086   1_655 S
C421   C102    1.393   1_565 S
C422   H428    1.084   .     S
C422   C120    1.393   1_565 S
Cu423  Cu424   2.711   .     S
Cu423  O445    1.949   .     S
Cu423  O446    1.956   .     S
Cu423  N435    2.037   .     S
Cu423  O449    1.956   .     S
Cu423  O437    1.952   .     S
Cu424  N436    2.037   .     S
Cu424  O444    1.949   .     S
Cu424  O448    1.956   .     S
Cu424  O443    1.952   .     S
Cu424  O447    1.956   .     S
H425   C318    1.086   1_655 S
C451   O494    1.297   .     A
C451   O487    1.299   .     A
C451   C454    1.441   .     S
C452   C454    1.397   .     A
C452   H479    1.084   .     S
C452   C771    1.393   1_545 S
C453   C472    1.397   .     A
C453   C471    1.410   .     A
C453   C462    1.441   .     S
C454   C470    1.410   .     A
C455   C461    1.475   .     S
C455   N486    1.374   .     A
C456   C463    1.475   .     S
C456   N485    1.374   .     A
C456   C908    1.431   .     S
C457   N485    1.377   .     A
C457   C464    1.476   .     S
C457   C905    1.431   .     S
C458   C465    1.476   .     S
C458   N486    1.377   .     A
C459   H480    1.084   .     S
C459   C470    1.488   .     S
C459   O500    1.221   .     D
C460   O488    1.221   .     D
C460   C471    1.488   .     S
C460   H481    1.084   .     S
C461   O489    1.221   .     D
C461   H482    1.083   .     S
C462   O493    1.299   .     A
C462   O495    1.297   .     A
C463   H483    1.083   .     S
C463   O490    1.221   .     D
C464   H484    1.079   .     S
C464   O491    1.220   .     D
C465   O492    1.220   .     D
C465   H476    1.079   .     S
C466   O498    1.298   .     A
C466   O496    1.295   .     A
C466   C468    1.434   .     S
C467   C469    1.434   .     S
C467   O499    1.298   .     A
C467   O497    1.295   .     A
C468   C569    1.335   1_455 S
C468   H575    1.086   1_455 S
C469   C518    1.335   .     S
C469   H527    1.086   .     S
C470   C772    1.393   1_545 S
C471   C602    1.393   .     S
C472   H478    1.084   .     S
C472   C620    1.393   .     S
Cu473  Cu474   2.711   .     S
Cu473  O495    1.949   .     S
Cu473  O496    1.956   .     S
Cu473  N485    2.037   .     S
Cu473  O499    1.956   .     S
Cu473  O487    1.952   .     S
Cu474  N486    2.037   .     S
Cu474  O494    1.949   .     S
Cu474  O498    1.956   .     S
Cu474  O493    1.952   .     S
Cu474  O497    1.956   .     S
H475   C518    1.086   .     S
H477   C569    1.086   1_455 S
C501   O544    1.297   .     A
C501   O537    1.299   .     A
C501   C504    1.441   .     S
C502   C504    1.397   .     A
C502   H529    1.084   .     S
C502   C821    1.393   1_545 S
C503   C522    1.397   .     A
C503   C521    1.410   .     A
C503   C512    1.441   .     S
C504   C520    1.410   .     A
C505   C511    1.475   .     S
C505   N536    1.374   .     A
C506   C513    1.475   .     S
C506   N535    1.374   .     A
C506   C958    1.431   .     S
C507   N535    1.377   .     A
C507   C514    1.476   .     S
C507   C955    1.431   .     S
C508   C515    1.476   .     S
C508   N536    1.377   .     A
C509   H530    1.084   .     S
C509   C520    1.488   .     S
C509   O550    1.221   .     D
C510   O538    1.221   .     D
C510   C521    1.488   .     S
C510   H531    1.084   .     S
C511   O539    1.221   .     D
C511   H532    1.083   .     S
C512   O543    1.299   .     A
C512   O545    1.297   .     A
C513   H533    1.083   .     S
C513   O540    1.221   .     D
C514   H534    1.079   .     S
C514   O541    1.220   .     D
C515   O542    1.220   .     D
C515   H526    1.079   .     S
C516   O548    1.298   .     A
C516   O546    1.295   .     A
C516   C518    1.434   .     S
C517   C519    1.434   .     S
C517   O549    1.298   .     A
C517   O547    1.295   .     A
C519   C568    1.335   .     S
C519   H577    1.086   .     S
C520   C822    1.393   1_545 S
C521   C652    1.393   .     S
C522   H528    1.084   .     S
C522   C670    1.393   .     S
Cu523  Cu524   2.711   .     S
Cu523  O545    1.949   .     S
Cu523  O546    1.956   .     S
Cu523  N535    2.037   .     S
Cu523  O549    1.956   .     S
Cu523  O537    1.952   .     S
Cu524  N536    2.037   .     S
Cu524  O544    1.949   .     S
Cu524  O548    1.956   .     S
Cu524  O543    1.952   .     S
Cu524  O547    1.956   .     S
H525   C568    1.086   .     S
C551   O594    1.297   .     A
C551   O587    1.299   .     A
C551   C554    1.441   .     S
C552   C554    1.397   .     A
C552   H579    1.084   .     S
C552   C871    1.393   1_545 S
C553   C572    1.397   .     A
C553   C571    1.410   .     A
C553   C562    1.441   .     S
C554   C570    1.410   .     A
C555   C561    1.475   .     S
C555   N586    1.374   .     A
C556   C563    1.475   .     S
C556   N585    1.374   .     A
C556   C1008   1.431   .     S
C557   N585    1.377   .     A
C557   C564    1.476   .     S
C557   C1005   1.431   .     S
C558   C565    1.476   .     S
C558   N586    1.377   .     A
C559   H580    1.084   .     S
C559   C570    1.488   .     S
C559   O600    1.221   .     D
C560   O588    1.221   .     D
C560   C571    1.488   .     S
C560   H581    1.084   .     S
C561   O589    1.221   .     D
C561   H582    1.083   .     S
C562   O593    1.299   .     A
C562   O595    1.297   .     A
C563   H583    1.083   .     S
C563   O590    1.221   .     D
C564   H584    1.079   .     S
C564   O591    1.220   .     D
C565   O592    1.220   .     D
C565   H576    1.079   .     S
C566   O598    1.298   .     A
C566   O596    1.295   .     A
C566   C568    1.434   .     S
C567   C569    1.434   .     S
C567   O599    1.298   .     A
C567   O597    1.295   .     A
C569   C468    1.335   1_655 S
C569   H477    1.086   1_655 S
C570   C872    1.393   1_545 S
C571   C702    1.393   .     S
C572   H578    1.084   .     S
C572   C720    1.393   .     S
Cu573  Cu574   2.711   .     S
Cu573  O595    1.949   .     S
Cu573  O596    1.956   .     S
Cu573  N585    2.037   .     S
Cu573  O599    1.956   .     S
Cu573  O587    1.952   .     S
Cu574  N586    2.037   .     S
Cu574  O594    1.949   .     S
Cu574  O598    1.956   .     S
Cu574  O593    1.952   .     S
Cu574  O597    1.956   .     S
H575   C468    1.086   1_655 S
C601   O644    1.297   .     A
C601   O637    1.299   .     A
C601   C604    1.441   .     S
C602   C604    1.397   .     A
C602   H629    1.084   .     S
C603   C622    1.397   .     A
C603   C621    1.410   .     A
C603   C612    1.441   .     S
C604   C620    1.410   .     A
C605   C611    1.475   .     S
C605   N636    1.374   .     A
C606   C613    1.475   .     S
C606   N635    1.374   .     A
C606   C1058   1.431   .     S
C607   N635    1.377   .     A
C607   C614    1.476   .     S
C607   C1055   1.431   .     S
C608   C615    1.476   .     S
C608   N636    1.377   .     A
C609   H630    1.084   .     S
C609   C620    1.488   .     S
C609   O650    1.221   .     D
C610   O638    1.221   .     D
C610   C621    1.488   .     S
C610   H631    1.084   .     S
C611   O639    1.221   .     D
C611   H632    1.083   .     S
C612   O643    1.299   .     A
C612   O645    1.297   .     A
C613   H633    1.083   .     S
C613   O640    1.221   .     D
C614   H634    1.079   .     S
C614   O641    1.220   .     D
C615   O642    1.220   .     D
C615   H626    1.079   .     S
C616   O648    1.298   .     A
C616   O646    1.295   .     A
C616   C618    1.434   .     S
C617   C619    1.434   .     S
C617   O649    1.298   .     A
C617   O647    1.295   .     A
C618   C719    1.335   1_455 S
C618   H725    1.086   1_455 S
C619   C668    1.335   .     S
C619   H677    1.086   .     S
C621   C752    1.393   .     S
C622   H628    1.084   .     S
C622   C770    1.393   .     S
Cu623  Cu624   2.711   .     S
Cu623  O645    1.949   .     S
Cu623  O646    1.956   .     S
Cu623  N635    2.037   .     S
Cu623  O649    1.956   .     S
Cu623  O637    1.952   .     S
Cu624  N636    2.037   .     S
Cu624  O644    1.949   .     S
Cu624  O648    1.956   .     S
Cu624  O643    1.952   .     S
Cu624  O647    1.956   .     S
H625   C668    1.086   .     S
H627   C719    1.086   1_455 S
C651   O694    1.297   .     A
C651   O687    1.299   .     A
C651   C654    1.441   .     S
C652   C654    1.397   .     A
C652   H679    1.084   .     S
C653   C672    1.397   .     A
C653   C671    1.410   .     A
C653   C662    1.441   .     S
C654   C670    1.410   .     A
C655   C661    1.475   .     S
C655   N686    1.374   .     A
C656   C663    1.475   .     S
C656   N685    1.374   .     A
C656   C1108   1.431   .     S
C657   N685    1.377   .     A
C657   C664    1.476   .     S
C657   C1105   1.431   .     S
C658   C665    1.476   .     S
C658   N686    1.377   .     A
C659   H680    1.084   .     S
C659   C670    1.488   .     S
C659   O700    1.221   .     D
C660   O688    1.221   .     D
C660   C671    1.488   .     S
C660   H681    1.084   .     S
C661   O689    1.221   .     D
C661   H682    1.083   .     S
C662   O693    1.299   .     A
C662   O695    1.297   .     A
C663   H683    1.083   .     S
C663   O690    1.221   .     D
C664   H684    1.079   .     S
C664   O691    1.220   .     D
C665   O692    1.220   .     D
C665   H676    1.079   .     S
C666   O698    1.298   .     A
C666   O696    1.295   .     A
C666   C668    1.434   .     S
C667   C669    1.434   .     S
C667   O699    1.298   .     A
C667   O697    1.295   .     A
C669   C718    1.335   .     S
C669   H727    1.086   .     S
C671   C802    1.393   .     S
C672   H678    1.084   .     S
C672   C820    1.393   .     S
Cu673  Cu674   2.711   .     S
Cu673  O695    1.949   .     S
Cu673  O696    1.956   .     S
Cu673  N685    2.037   .     S
Cu673  O699    1.956   .     S
Cu673  O687    1.952   .     S
Cu674  N686    2.037   .     S
Cu674  O694    1.949   .     S
Cu674  O698    1.956   .     S
Cu674  O693    1.952   .     S
Cu674  O697    1.956   .     S
H675   C718    1.086   .     S
C701   O744    1.297   .     A
C701   O737    1.299   .     A
C701   C704    1.441   .     S
C702   C704    1.397   .     A
C702   H729    1.084   .     S
C703   C722    1.397   .     A
C703   C721    1.410   .     A
C703   C712    1.441   .     S
C704   C720    1.410   .     A
C705   C711    1.475   .     S
C705   N736    1.374   .     A
C706   C713    1.475   .     S
C706   N735    1.374   .     A
C706   C1158   1.431   .     S
C707   N735    1.377   .     A
C707   C714    1.476   .     S
C707   C1155   1.431   .     S
C708   C715    1.476   .     S
C708   N736    1.377   .     A
C709   H730    1.084   .     S
C709   C720    1.488   .     S
C709   O750    1.221   .     D
C710   O738    1.221   .     D
C710   C721    1.488   .     S
C710   H731    1.084   .     S
C711   O739    1.221   .     D
C711   H732    1.083   .     S
C712   O743    1.299   .     A
C712   O745    1.297   .     A
C713   H733    1.083   .     S
C713   O740    1.221   .     D
C714   H734    1.079   .     S
C714   O741    1.220   .     D
C715   O742    1.220   .     D
C715   H726    1.079   .     S
C716   O748    1.298   .     A
C716   O746    1.295   .     A
C716   C718    1.434   .     S
C717   C719    1.434   .     S
C717   O749    1.298   .     A
C717   O747    1.295   .     A
C719   C618    1.335   1_655 S
C719   H627    1.086   1_655 S
C721   C852    1.393   .     S
C722   H728    1.084   .     S
C722   C870    1.393   .     S
Cu723  Cu724   2.711   .     S
Cu723  O745    1.949   .     S
Cu723  O746    1.956   .     S
Cu723  N735    2.037   .     S
Cu723  O749    1.956   .     S
Cu723  O737    1.952   .     S
Cu724  N736    2.037   .     S
Cu724  O744    1.949   .     S
Cu724  O748    1.956   .     S
Cu724  O743    1.952   .     S
Cu724  O747    1.956   .     S
H725   C618    1.086   1_655 S
C751   O794    1.297   .     A
C751   O787    1.299   .     A
C751   C754    1.441   .     S
C752   C754    1.397   .     A
C752   H779    1.084   .     S
C753   C772    1.397   .     A
C753   C771    1.410   .     A
C753   C762    1.441   .     S
C754   C770    1.410   .     A
C755   C761    1.475   .     S
C755   N786    1.374   .     A
C756   C763    1.475   .     S
C756   N785    1.374   .     A
C756   C1208   1.431   .     S
C757   N785    1.377   .     A
C757   C764    1.476   .     S
C757   C1205   1.431   .     S
C758   C765    1.476   .     S
C758   N786    1.377   .     A
C759   H780    1.084   .     S
C759   C770    1.488   .     S
C759   O800    1.221   .     D
C760   O788    1.221   .     D
C760   C771    1.488   .     S
C760   H781    1.084   .     S
C761   O789    1.221   .     D
C761   H782    1.083   .     S
C762   O793    1.299   .     A
C762   O795    1.297   .     A
C763   H783    1.083   .     S
C763   O790    1.221   .     D
C764   H784    1.079   .     S
C764   O791    1.220   .     D
C765   O792    1.220   .     D
C765   H776    1.079   .     S
C766   O798    1.298   .     A
C766   O796    1.295   .     A
C766   C768    1.434   .     S
C767   C769    1.434   .     S
C767   O799    1.298   .     A
C767   O797    1.295   .     A
C768   C869    1.335   1_455 S
C768   H875    1.086   1_455 S
C769   C818    1.335   .     S
C769   H827    1.086   .     S
C771   C452    1.393   1_565 S
C772   H778    1.084   .     S
C772   C470    1.393   1_565 S
Cu773  Cu774   2.711   .     S
Cu773  O795    1.949   .     S
Cu773  O796    1.956   .     S
Cu773  N785    2.037   .     S
Cu773  O799    1.956   .     S
Cu773  O787    1.952   .     S
Cu774  N786    2.037   .     S
Cu774  O794    1.949   .     S
Cu774  O798    1.956   .     S
Cu774  O793    1.952   .     S
Cu774  O797    1.956   .     S
H775   C818    1.086   .     S
H777   C869    1.086   1_455 S
C801   O844    1.297   .     A
C801   O837    1.299   .     A
C801   C804    1.441   .     S
C802   C804    1.397   .     A
C802   H829    1.084   .     S
C803   C822    1.397   .     A
C803   C821    1.410   .     A
C803   C812    1.441   .     S
C804   C820    1.410   .     A
C805   C811    1.475   .     S
C805   N836    1.374   .     A
C806   C813    1.475   .     S
C806   N835    1.374   .     A
C806   C1258   1.431   .     S
C807   N835    1.377   .     A
C807   C814    1.476   .     S
C807   C1255   1.431   .     S
C808   C815    1.476   .     S
C808   N836    1.377   .     A
C809   H830    1.084   .     S
C809   C820    1.488   .     S
C809   O850    1.221   .     D
C810   O838    1.221   .     D
C810   C821    1.488   .     S
C810   H831    1.084   .     S
C811   O839    1.221   .     D
C811   H832    1.083   .     S
C812   O843    1.299   .     A
C812   O845    1.297   .     A
C813   H833    1.083   .     S
C813   O840    1.221   .     D
C814   H834    1.079   .     S
C814   O841    1.220   .     D
C815   O842    1.220   .     D
C815   H826    1.079   .     S
C816   O848    1.298   .     A
C816   O846    1.295   .     A
C816   C818    1.434   .     S
C817   C819    1.434   .     S
C817   O849    1.298   .     A
C817   O847    1.295   .     A
C819   C868    1.335   .     S
C819   H877    1.086   .     S
C821   C502    1.393   1_565 S
C822   H828    1.084   .     S
C822   C520    1.393   1_565 S
Cu823  Cu824   2.711   .     S
Cu823  O845    1.949   .     S
Cu823  O846    1.956   .     S
Cu823  N835    2.037   .     S
Cu823  O849    1.956   .     S
Cu823  O837    1.952   .     S
Cu824  N836    2.037   .     S
Cu824  O844    1.949   .     S
Cu824  O848    1.956   .     S
Cu824  O843    1.952   .     S
Cu824  O847    1.956   .     S
H825   C868    1.086   .     S
C851   O894    1.297   .     A
C851   O887    1.299   .     A
C851   C854    1.441   .     S
C852   C854    1.397   .     A
C852   H879    1.084   .     S
C853   C872    1.397   .     A
C853   C871    1.410   .     A
C853   C862    1.441   .     S
C854   C870    1.410   .     A
C855   C861    1.475   .     S
C855   N886    1.374   .     A
C856   C863    1.475   .     S
C856   N885    1.374   .     A
C856   C1308   1.431   .     S
C857   N885    1.377   .     A
C857   C864    1.476   .     S
C857   C1305   1.431   .     S
C858   C865    1.476   .     S
C858   N886    1.377   .     A
C859   H880    1.084   .     S
C859   C870    1.488   .     S
C859   O900    1.221   .     D
C860   O888    1.221   .     D
C860   C871    1.488   .     S
C860   H881    1.084   .     S
C861   O889    1.221   .     D
C861   H882    1.083   .     S
C862   O893    1.299   .     A
C862   O895    1.297   .     A
C863   H883    1.083   .     S
C863   O890    1.221   .     D
C864   H884    1.079   .     S
C864   O891    1.220   .     D
C865   O892    1.220   .     D
C865   H876    1.079   .     S
C866   O898    1.298   .     A
C866   O896    1.295   .     A
C866   C868    1.434   .     S
C867   C869    1.434   .     S
C867   O899    1.298   .     A
C867   O897    1.295   .     A
C869   C768    1.335   1_655 S
C869   H777    1.086   1_655 S
C871   C552    1.393   1_565 S
C872   H878    1.084   .     S
C872   C570    1.393   1_565 S
Cu873  Cu874   2.711   .     S
Cu873  O895    1.949   .     S
Cu873  O896    1.956   .     S
Cu873  N885    2.037   .     S
Cu873  O899    1.956   .     S
Cu873  O887    1.952   .     S
Cu874  N886    2.037   .     S
Cu874  O894    1.949   .     S
Cu874  O898    1.956   .     S
Cu874  O893    1.952   .     S
Cu874  O897    1.956   .     S
H875   C768    1.086   1_655 S
C901   O944    1.297   .     A
C901   O937    1.299   .     A
C901   C904    1.441   .     S
C902   C904    1.397   .     A
C902   H929    1.084   .     S
C902   C1221   1.393   1_545 S
C903   C922    1.397   .     A
C903   C921    1.410   .     A
C903   C912    1.441   .     S
C904   C920    1.410   .     A
C905   C911    1.475   .     S
C905   N936    1.374   .     A
C906   C913    1.475   .     S
C906   N935    1.374   .     A
C906   C8      1.431   1_556 S
C907   N935    1.377   .     A
C907   C914    1.476   .     S
C907   C5      1.431   1_556 S
C908   C915    1.476   .     S
C908   N936    1.377   .     A
C909   H930    1.084   .     S
C909   C920    1.488   .     S
C909   O950    1.221   .     D
C910   O938    1.221   .     D
C910   C921    1.488   .     S
C910   H931    1.084   .     S
C911   O939    1.221   .     D
C911   H932    1.083   .     S
C912   O943    1.299   .     A
C912   O945    1.297   .     A
C913   H933    1.083   .     S
C913   O940    1.221   .     D
C914   H934    1.079   .     S
C914   O941    1.220   .     D
C915   O942    1.220   .     D
C915   H926    1.079   .     S
C916   O948    1.298   .     A
C916   O946    1.295   .     A
C916   C918    1.434   .     S
C917   C919    1.434   .     S
C917   O949    1.298   .     A
C917   O947    1.295   .     A
C918   C1019   1.335   1_455 S
C918   H1025   1.086   1_455 S
C919   C968    1.335   .     S
C919   H977    1.086   .     S
C920   C1222   1.393   1_545 S
C921   C1052   1.393   .     S
C922   H928    1.084   .     S
C922   C1070   1.393   .     S
Cu923  Cu924   2.711   .     S
Cu923  O945    1.949   .     S
Cu923  O946    1.956   .     S
Cu923  N935    2.037   .     S
Cu923  O949    1.956   .     S
Cu923  O937    1.952   .     S
Cu924  N936    2.037   .     S
Cu924  O944    1.949   .     S
Cu924  O948    1.956   .     S
Cu924  O943    1.952   .     S
Cu924  O947    1.956   .     S
H925   C968    1.086   .     S
H927   C1019   1.086   1_455 S
C951   O994    1.297   .     A
C951   O987    1.299   .     A
C951   C954    1.441   .     S
C952   C954    1.397   .     A
C952   H979    1.084   .     S
C952   C1271   1.393   1_545 S
C953   C972    1.397   .     A
C953   C971    1.410   .     A
C953   C962    1.441   .     S
C954   C970    1.410   .     A
C955   C961    1.475   .     S
C955   N986    1.374   .     A
C956   C963    1.475   .     S
C956   N985    1.374   .     A
C956   C58     1.431   1_556 S
C957   N985    1.377   .     A
C957   C964    1.476   .     S
C957   C55     1.431   1_556 S
C958   C965    1.476   .     S
C958   N986    1.377   .     A
C959   H980    1.084   .     S
C959   C970    1.488   .     S
C959   O1000   1.221   .     D
C960   O988    1.221   .     D
C960   C971    1.488   .     S
C960   H981    1.084   .     S
C961   O989    1.221   .     D
C961   H982    1.083   .     S
C962   O993    1.299   .     A
C962   O995    1.297   .     A
C963   H983    1.083   .     S
C963   O990    1.221   .     D
C964   H984    1.079   .     S
C964   O991    1.220   .     D
C965   O992    1.220   .     D
C965   H976    1.079   .     S
C966   O998    1.298   .     A
C966   O996    1.295   .     A
C966   C968    1.434   .     S
C967   C969    1.434   .     S
C967   O999    1.298   .     A
C967   O997    1.295   .     A
C969   C1018   1.335   .     S
C969   H1027   1.086   .     S
C970   C1272   1.393   1_545 S
C971   C1102   1.393   .     S
C972   H978    1.084   .     S
C972   C1120   1.393   .     S
Cu973  Cu974   2.711   .     S
Cu973  O995    1.949   .     S
Cu973  O996    1.956   .     S
Cu973  N985    2.037   .     S
Cu973  O999    1.956   .     S
Cu973  O987    1.952   .     S
Cu974  N986    2.037   .     S
Cu974  O994    1.949   .     S
Cu974  O998    1.956   .     S
Cu974  O993    1.952   .     S
Cu974  O997    1.956   .     S
H975   C1018   1.086   .     S
C1001  O1044   1.297   .     A
C1001  O1037   1.299   .     A
C1001  C1004   1.441   .     S
C1002  C1004   1.397   .     A
C1002  H1029   1.084   .     S
C1002  C1321   1.393   1_545 S
C1003  C1022   1.397   .     A
C1003  C1021   1.410   .     A
C1003  C1012   1.441   .     S
C1004  C1020   1.410   .     A
C1005  C1011   1.475   .     S
C1005  N1036   1.374   .     A
C1006  C1013   1.475   .     S
C1006  N1035   1.374   .     A
C1006  C108    1.431   1_556 S
C1007  N1035   1.377   .     A
C1007  C1014   1.476   .     S
C1007  C105    1.431   1_556 S
C1008  C1015   1.476   .     S
C1008  N1036   1.377   .     A
C1009  H1030   1.084   .     S
C1009  C1020   1.488   .     S
C1009  O1050   1.221   .     D
C1010  O1038   1.221   .     D
C1010  C1021   1.488   .     S
C1010  H1031   1.084   .     S
C1011  O1039   1.221   .     D
C1011  H1032   1.083   .     S
C1012  O1043   1.299   .     A
C1012  O1045   1.297   .     A
C1013  H1033   1.083   .     S
C1013  O1040   1.221   .     D
C1014  H1034   1.079   .     S
C1014  O1041   1.220   .     D
C1015  O1042   1.220   .     D
C1015  H1026   1.079   .     S
C1016  O1048   1.298   .     A
C1016  O1046   1.295   .     A
C1016  C1018   1.434   .     S
C1017  C1019   1.434   .     S
C1017  O1049   1.298   .     A
C1017  O1047   1.295   .     A
C1019  C918    1.335   1_655 S
C1019  H927    1.086   1_655 S
C1020  C1322   1.393   1_545 S
C1021  C1152   1.393   .     S
C1022  H1028   1.084   .     S
C1022  C1170   1.393   .     S
Cu1023 Cu1024  2.711   .     S
Cu1023 O1045   1.949   .     S
Cu1023 O1046   1.956   .     S
Cu1023 N1035   2.037   .     S
Cu1023 O1049   1.956   .     S
Cu1023 O1037   1.952   .     S
Cu1024 N1036   2.037   .     S
Cu1024 O1044   1.949   .     S
Cu1024 O1048   1.956   .     S
Cu1024 O1043   1.952   .     S
Cu1024 O1047   1.956   .     S
H1025  C918    1.086   1_655 S
C1051  O1094   1.297   .     A
C1051  O1087   1.299   .     A
C1051  C1054   1.441   .     S
C1052  C1054   1.397   .     A
C1052  H1079   1.084   .     S
C1053  C1072   1.397   .     A
C1053  C1071   1.410   .     A
C1053  C1062   1.441   .     S
C1054  C1070   1.410   .     A
C1055  C1061   1.475   .     S
C1055  N1086   1.374   .     A
C1056  C1063   1.475   .     S
C1056  N1085   1.374   .     A
C1056  C158    1.431   1_556 S
C1057  N1085   1.377   .     A
C1057  C1064   1.476   .     S
C1057  C155    1.431   1_556 S
C1058  C1065   1.476   .     S
C1058  N1086   1.377   .     A
C1059  H1080   1.084   .     S
C1059  C1070   1.488   .     S
C1059  O1100   1.221   .     D
C1060  O1088   1.221   .     D
C1060  C1071   1.488   .     S
C1060  H1081   1.084   .     S
C1061  O1089   1.221   .     D
C1061  H1082   1.083   .     S
C1062  O1093   1.299   .     A
C1062  O1095   1.297   .     A
C1063  H1083   1.083   .     S
C1063  O1090   1.221   .     D
C1064  H1084   1.079   .     S
C1064  O1091   1.220   .     D
C1065  O1092   1.220   .     D
C1065  H1076   1.079   .     S
C1066  O1098   1.298   .     A
C1066  O1096   1.295   .     A
C1066  C1068   1.434   .     S
C1067  C1069   1.434   .     S
C1067  O1099   1.298   .     A
C1067  O1097   1.295   .     A
C1068  C1169   1.335   1_455 S
C1068  H1175   1.086   1_455 S
C1069  C1118   1.335   .     S
C1069  H1127   1.086   .     S
C1071  C1202   1.393   .     S
C1072  H1078   1.084   .     S
C1072  C1220   1.393   .     S
Cu1073 Cu1074  2.711   .     S
Cu1073 O1095   1.949   .     S
Cu1073 O1096   1.956   .     S
Cu1073 N1085   2.037   .     S
Cu1073 O1099   1.956   .     S
Cu1073 O1087   1.952   .     S
Cu1074 N1086   2.037   .     S
Cu1074 O1094   1.949   .     S
Cu1074 O1098   1.956   .     S
Cu1074 O1093   1.952   .     S
Cu1074 O1097   1.956   .     S
H1075  C1118   1.086   .     S
H1077  C1169   1.086   1_455 S
C1101  O1144   1.297   .     A
C1101  O1137   1.299   .     A
C1101  C1104   1.441   .     S
C1102  C1104   1.397   .     A
C1102  H1129   1.084   .     S
C1103  C1122   1.397   .     A
C1103  C1121   1.410   .     A
C1103  C1112   1.441   .     S
C1104  C1120   1.410   .     A
C1105  C1111   1.475   .     S
C1105  N1136   1.374   .     A
C1106  C1113   1.475   .     S
C1106  N1135   1.374   .     A
C1106  C208    1.431   1_556 S
C1107  N1135   1.377   .     A
C1107  C1114   1.476   .     S
C1107  C205    1.431   1_556 S
C1108  C1115   1.476   .     S
C1108  N1136   1.377   .     A
C1109  H1130   1.084   .     S
C1109  C1120   1.488   .     S
C1109  O1150   1.221   .     D
C1110  O1138   1.221   .     D
C1110  C1121   1.488   .     S
C1110  H1131   1.084   .     S
C1111  O1139   1.221   .     D
C1111  H1132   1.083   .     S
C1112  O1143   1.299   .     A
C1112  O1145   1.297   .     A
C1113  H1133   1.083   .     S
C1113  O1140   1.221   .     D
C1114  H1134   1.079   .     S
C1114  O1141   1.220   .     D
C1115  O1142   1.220   .     D
C1115  H1126   1.079   .     S
C1116  O1148   1.298   .     A
C1116  O1146   1.295   .     A
C1116  C1118   1.434   .     S
C1117  C1119   1.434   .     S
C1117  O1149   1.298   .     A
C1117  O1147   1.295   .     A
C1119  C1168   1.335   .     S
C1119  H1177   1.086   .     S
C1121  C1252   1.393   .     S
C1122  H1128   1.084   .     S
C1122  C1270   1.393   .     S
Cu1123 Cu1124  2.711   .     S
Cu1123 O1145   1.949   .     S
Cu1123 O1146   1.956   .     S
Cu1123 N1135   2.037   .     S
Cu1123 O1149   1.956   .     S
Cu1123 O1137   1.952   .     S
Cu1124 N1136   2.037   .     S
Cu1124 O1144   1.949   .     S
Cu1124 O1148   1.956   .     S
Cu1124 O1143   1.952   .     S
Cu1124 O1147   1.956   .     S
H1125  C1168   1.086   .     S
C1151  O1194   1.297   .     A
C1151  O1187   1.299   .     A
C1151  C1154   1.441   .     S
C1152  C1154   1.397   .     A
C1152  H1179   1.084   .     S
C1153  C1172   1.397   .     A
C1153  C1171   1.410   .     A
C1153  C1162   1.441   .     S
C1154  C1170   1.410   .     A
C1155  C1161   1.475   .     S
C1155  N1186   1.374   .     A
C1156  C1163   1.475   .     S
C1156  N1185   1.374   .     A
C1156  C258    1.431   1_556 S
C1157  N1185   1.377   .     A
C1157  C1164   1.476   .     S
C1157  C255    1.431   1_556 S
C1158  C1165   1.476   .     S
C1158  N1186   1.377   .     A
C1159  H1180   1.084   .     S
C1159  C1170   1.488   .     S
C1159  O1200   1.221   .     D
C1160  O1188   1.221   .     D
C1160  C1171   1.488   .     S
C1160  H1181   1.084   .     S
C1161  O1189   1.221   .     D
C1161  H1182   1.083   .     S
C1162  O1193   1.299   .     A
C1162  O1195   1.297   .     A
C1163  H1183   1.083   .     S
C1163  O1190   1.221   .     D
C1164  H1184   1.079   .     S
C1164  O1191   1.220   .     D
C1165  O1192   1.220   .     D
C1165  H1176   1.079   .     S
C1166  O1198   1.298   .     A
C1166  O1196   1.295   .     A
C1166  C1168   1.434   .     S
C1167  C1169   1.434   .     S
C1167  O1199   1.298   .     A
C1167  O1197   1.295   .     A
C1169  C1068   1.335   1_655 S
C1169  H1077   1.086   1_655 S
C1171  C1302   1.393   .     S
C1172  H1178   1.084   .     S
C1172  C1320   1.393   .     S
Cu1173 Cu1174  2.711   .     S
Cu1173 O1195   1.949   .     S
Cu1173 O1196   1.956   .     S
Cu1173 N1185   2.037   .     S
Cu1173 O1199   1.956   .     S
Cu1173 O1187   1.952   .     S
Cu1174 N1186   2.037   .     S
Cu1174 O1194   1.949   .     S
Cu1174 O1198   1.956   .     S
Cu1174 O1193   1.952   .     S
Cu1174 O1197   1.956   .     S
H1175  C1068   1.086   1_655 S
C1201  O1244   1.297   .     A
C1201  O1237   1.299   .     A
C1201  C1204   1.441   .     S
C1202  C1204   1.397   .     A
C1202  H1229   1.084   .     S
C1203  C1222   1.397   .     A
C1203  C1221   1.410   .     A
C1203  C1212   1.441   .     S
C1204  C1220   1.410   .     A
C1205  C1211   1.475   .     S
C1205  N1236   1.374   .     A
C1206  C1213   1.475   .     S
C1206  N1235   1.374   .     A
C1206  C308    1.431   1_556 S
C1207  N1235   1.377   .     A
C1207  C1214   1.476   .     S
C1207  C305    1.431   1_556 S
C1208  C1215   1.476   .     S
C1208  N1236   1.377   .     A
C1209  H1230   1.084   .     S
C1209  C1220   1.488   .     S
C1209  O1250   1.221   .     D
C1210  O1238   1.221   .     D
C1210  C1221   1.488   .     S
C1210  H1231   1.084   .     S
C1211  O1239   1.221   .     D
C1211  H1232   1.083   .     S
C1212  O1243   1.299   .     A
C1212  O1245   1.297   .     A
C1213  H1233   1.083   .     S
C1213  O1240   1.221   .     D
C1214  H1234   1.079   .     S
C1214  O1241   1.220   .     D
C1215  O1242   1.220   .     D
C1215  H1226   1.079   .     S
C1216  O1248   1.298   .     A
C1216  O1246   1.295   .     A
C1216  C1218   1.434   .     S
C1217  C1219   1.434   .     S
C1217  O1249   1.298   .     A
C1217  O1247   1.295   .     A
C1218  C1319   1.335   1_455 S
C1218  H1325   1.086   1_455 S
C1219  C1268   1.335   .     S
C1219  H1277   1.086   .     S
C1221  C902    1.393   1_565 S
C1222  H1228   1.084   .     S
C1222  C920    1.393   1_565 S
Cu1223 Cu1224  2.711   .     S
Cu1223 O1245   1.949   .     S
Cu1223 O1246   1.956   .     S
Cu1223 N1235   2.037   .     S
Cu1223 O1249   1.956   .     S
Cu1223 O1237   1.952   .     S
Cu1224 N1236   2.037   .     S
Cu1224 O1244   1.949   .     S
Cu1224 O1248   1.956   .     S
Cu1224 O1243   1.952   .     S
Cu1224 O1247   1.956   .     S
H1225  C1268   1.086   .     S
H1227  C1319   1.086   1_455 S
C1251  O1294   1.297   .     A
C1251  O1287   1.299   .     A
C1251  C1254   1.441   .     S
C1252  C1254   1.397   .     A
C1252  H1279   1.084   .     S
C1253  C1272   1.397   .     A
C1253  C1271   1.410   .     A
C1253  C1262   1.441   .     S
C1254  C1270   1.410   .     A
C1255  C1261   1.475   .     S
C1255  N1286   1.374   .     A
C1256  C1263   1.475   .     S
C1256  N1285   1.374   .     A
C1256  C358    1.431   1_556 S
C1257  N1285   1.377   .     A
C1257  C1264   1.476   .     S
C1257  C355    1.431   1_556 S
C1258  C1265   1.476   .     S
C1258  N1286   1.377   .     A
C1259  H1280   1.084   .     S
C1259  C1270   1.488   .     S
C1259  O1300   1.221   .     D
C1260  O1288   1.221   .     D
C1260  C1271   1.488   .     S
C1260  H1281   1.084   .     S
C1261  O1289   1.221   .     D
C1261  H1282   1.083   .     S
C1262  O1293   1.299   .     A
C1262  O1295   1.297   .     A
C1263  H1283   1.083   .     S
C1263  O1290   1.221   .     D
C1264  H1284   1.079   .     S
C1264  O1291   1.220   .     D
C1265  O1292   1.220   .     D
C1265  H1276   1.079   .     S
C1266  O1298   1.298   .     A
C1266  O1296   1.295   .     A
C1266  C1268   1.434   .     S
C1267  C1269   1.434   .     S
C1267  O1299   1.298   .     A
C1267  O1297   1.295   .     A
C1269  C1318   1.335   .     S
C1269  H1327   1.086   .     S
C1271  C952    1.393   1_565 S
C1272  H1278   1.084   .     S
C1272  C970    1.393   1_565 S
Cu1273 Cu1274  2.711   .     S
Cu1273 O1295   1.949   .     S
Cu1273 O1296   1.956   .     S
Cu1273 N1285   2.037   .     S
Cu1273 O1299   1.956   .     S
Cu1273 O1287   1.952   .     S
Cu1274 N1286   2.037   .     S
Cu1274 O1294   1.949   .     S
Cu1274 O1298   1.956   .     S
Cu1274 O1293   1.952   .     S
Cu1274 O1297   1.956   .     S
H1275  C1318   1.086   .     S
C1301  O1344   1.297   .     A
C1301  O1337   1.299   .     A
C1301  C1304   1.441   .     S
C1302  C1304   1.397   .     A
C1302  H1329   1.084   .     S
C1303  C1322   1.397   .     A
C1303  C1321   1.410   .     A
C1303  C1312   1.441   .     S
C1304  C1320   1.410   .     A
C1305  C1311   1.475   .     S
C1305  N1336   1.374   .     A
C1306  C1313   1.475   .     S
C1306  N1335   1.374   .     A
C1306  C408    1.431   1_556 S
C1307  N1335   1.377   .     A
C1307  C1314   1.476   .     S
C1307  C405    1.431   1_556 S
C1308  C1315   1.476   .     S
C1308  N1336   1.377   .     A
C1309  H1330   1.084   .     S
C1309  C1320   1.488   .     S
C1309  O1350   1.221   .     D
C1310  O1338   1.221   .     D
C1310  C1321   1.488   .     S
C1310  H1331   1.084   .     S
C1311  O1339   1.221   .     D
C1311  H1332   1.083   .     S
C1312  O1343   1.299   .     A
C1312  O1345   1.297   .     A
C1313  H1333   1.083   .     S
C1313  O1340   1.221   .     D
C1314  H1334   1.079   .     S
C1314  O1341   1.220   .     D
C1315  O1342   1.220   .     D
C1315  H1326   1.079   .     S
C1316  O1348   1.298   .     A
C1316  O1346   1.295   .     A
C1316  C1318   1.434   .     S
C1317  C1319   1.434   .     S
C1317  O1349   1.298   .     A
C1317  O1347   1.295   .     A
C1319  C1218   1.335   1_655 S
C1319  H1227   1.086   1_655 S
C1321  C1002   1.393   1_565 S
C1322  H1328   1.084   .     S
C1322  C1020   1.393   1_565 S
Cu1323 Cu1324  2.711   .     S
Cu1323 O1345   1.949   .     S
Cu1323 O1346   1.956   .     S
Cu1323 N1335   2.037   .     S
Cu1323 O1349   1.956   .     S
Cu1323 O1337   1.952   .     S
Cu1324 N1336   2.037   .     S
Cu1324 O1344   1.949   .     S
Cu1324 O1348   1.956   .     S
Cu1324 O1343   1.952   .     S
Cu1324 O1347   1.956   .     S
H1325  C1218   1.086   1_655 S
