data_str_m2_o1_o1_pcu_sym.61
_audit_creation_date              2020-01-03
_audit_creation_method            'Materials Studio'
_symmetry_space_group_name_H-M    'P1'
_symmetry_Int_Tables_number       1
_symmetry_cell_setting            triclinic
loop_
_symmetry_equiv_pos_as_xyz
  x,y,z
_cell_length_a                    31.3057
_cell_length_b                    29.9361
_cell_length_c                    28.8624
_cell_angle_alpha                 90.0000
_cell_angle_beta                  90.0000
_cell_angle_gamma                 90.0000
loop_
_atom_site_label
_atom_site_type_symbol
_atom_site_fract_x
_atom_site_fract_y
_atom_site_fract_z
_atom_site_U_iso_or_equiv
_atom_site_adp_type
_atom_site_occupancy
Br1    Br    0.00000   0.15386   0.05613   0.00000  Uiso   1.00
Br2    Br   -0.00000   0.34614   0.27720   0.00000  Uiso   1.00
Br3    Br    0.00000   0.34614   0.05613   0.00000  Uiso   1.00
Br4    Br    0.00000   0.15386   0.27720   0.00000  Uiso   1.00
Br5    Br    0.25000   0.40386   0.05613   0.00000  Uiso   1.00
Br6    Br    0.25000   0.09614   0.27720   0.00000  Uiso   1.00
Br7    Br    0.25000   0.09614   0.05613   0.00000  Uiso   1.00
Br8    Br    0.25000   0.40386   0.27720   0.00000  Uiso   1.00
C9     C     0.05941   0.19060   0.16667   0.00000  Uiso   1.00
C10    C    -0.00000   0.28935   0.30866   0.00000  Uiso   1.00
C11    C    -0.00000   0.28935   0.02467   0.00000  Uiso   1.00
C12    C    -0.00000   0.21065   0.30866   0.00000  Uiso   1.00
C13    C     0.25000   0.46065   0.02467   0.00000  Uiso   1.00
C14    C     0.25000   0.03935   0.30866   0.00000  Uiso   1.00
C15    C     0.25000   0.03935   0.02467   0.00000  Uiso   1.00
C16    C     0.25000   0.46065   0.30866   0.00000  Uiso   1.00
C17    C     0.39092   0.14102   0.12458   0.00000  Uiso   1.00
C18    C     0.10908   0.35898   0.20876   0.00000  Uiso   1.00
C19    C     0.10908   0.35898   0.12458   0.00000  Uiso   1.00
C20    C     0.44059   0.30940   0.16667   0.00000  Uiso   1.00
C21    C     0.39092   0.14102   0.20876   0.00000  Uiso   1.00
C22    C     0.10908   0.14102   0.20876   0.00000  Uiso   1.00
C23    C     0.39092   0.35898   0.12458   0.00000  Uiso   1.00
C24    C     0.39092   0.35898   0.20876   0.00000  Uiso   1.00
C25    C     0.10908   0.14102   0.12458   0.00000  Uiso   1.00
C26    C     0.14092   0.39102   0.12458   0.00000  Uiso   1.00
C27    C     0.35908   0.10898   0.20876   0.00000  Uiso   1.00
C28    C     0.35908   0.10898   0.12458   0.00000  Uiso   1.00
C29    C     0.14092   0.39102   0.20876   0.00000  Uiso   1.00
C30    C     0.35908   0.39102   0.20876   0.00000  Uiso   1.00
C31    C     0.44059   0.19060   0.16667   0.00000  Uiso   1.00
C32    C     0.14092   0.10898   0.12458   0.00000  Uiso   1.00
C33    C     0.14092   0.10898   0.20876   0.00000  Uiso   1.00
C34    C     0.35908   0.39102   0.12458   0.00000  Uiso   1.00
C35    C     0.09295   0.34287   0.16667   0.00000  Uiso   1.00
C36    C     0.40705   0.15713   0.16667   0.00000  Uiso   1.00
C37    C     0.40705   0.34287   0.16667   0.00000  Uiso   1.00
C38    C     0.09295   0.15713   0.16667   0.00000  Uiso   1.00
C39    C     0.34295   0.09287   0.16667   0.00000  Uiso   1.00
C40    C     0.15705   0.40713   0.16667   0.00000  Uiso   1.00
C41    C     0.15705   0.09287   0.16667   0.00000  Uiso   1.00
C42    C     0.05941   0.30940   0.16667   0.00000  Uiso   1.00
C43    C     0.34295   0.40713   0.16667   0.00000  Uiso   1.00
C44    C     0.30941   0.44060   0.16667   0.00000  Uiso   1.00
C45    C     0.19059   0.05940   0.16667   0.00000  Uiso   1.00
C46    C     0.19059   0.44060   0.16667   0.00000  Uiso   1.00
C47    C     0.30941   0.05940   0.16667   0.00000  Uiso   1.00
C48    C     0.00000   0.21065   0.02467   0.00000  Uiso   1.00
Cu49   Cu    0.00000   0.25000   0.21355   0.00000  Uiso   1.00
Cu50   Cu    0.00000   0.25000   0.11978   0.00000  Uiso   1.00
Cu51   Cu    0.25000   0.00000   0.21355   0.00000  Uiso   1.00
Cu52   Cu    0.25000   0.00000   0.11978   0.00000  Uiso   1.00
H53    H     0.40281   0.15308   0.09164   0.00000  Uiso   1.00
H54    H     0.34719   0.09692   0.24169   0.00000  Uiso   1.00
H55    H     0.34719   0.09692   0.09164   0.00000  Uiso   1.00
H56    H     0.15281   0.40308   0.24169   0.00000  Uiso   1.00
H57    H     0.34719   0.40308   0.24169   0.00000  Uiso   1.00
H58    H     0.15281   0.09692   0.09164   0.00000  Uiso   1.00
H59    H     0.15281   0.09692   0.24169   0.00000  Uiso   1.00
H60    H     0.34719   0.40308   0.09164   0.00000  Uiso   1.00
H61    H     0.09719   0.34692   0.24169   0.00000  Uiso   1.00
H62    H     0.09719   0.34692   0.09164   0.00000  Uiso   1.00
H63    H     0.40281   0.15308   0.24169   0.00000  Uiso   1.00
H64    H     0.09719   0.15308   0.24169   0.00000  Uiso   1.00
H65    H     0.40281   0.34692   0.09164   0.00000  Uiso   1.00
H66    H     0.40281   0.34692   0.24169   0.00000  Uiso   1.00
H67    H     0.09719   0.15308   0.09164   0.00000  Uiso   1.00
H68    H     0.15281   0.40308   0.09164   0.00000  Uiso   1.00
N69    N    -0.00000   0.25000   0.28402   0.00000  Uiso   1.00
N70    N     0.00000   0.25000   0.04931   0.00000  Uiso   1.00
N71    N     0.25000   0.00000   0.28402   0.00000  Uiso   1.00
N72    N     0.25000   0.00000   0.04931   0.00000  Uiso   1.00
O73    O     0.04508   0.20491   0.20625   0.00000  Uiso   1.00
O74    O     0.20491   0.04509   0.12709   0.00000  Uiso   1.00
O75    O     0.20491   0.04509   0.20625   0.00000  Uiso   1.00
O76    O     0.29508   0.45491   0.12709   0.00000  Uiso   1.00
O77    O     0.20491   0.45491   0.12709   0.00000  Uiso   1.00
O78    O     0.29508   0.04509   0.20625   0.00000  Uiso   1.00
O79    O     0.29508   0.04509   0.12709   0.00000  Uiso   1.00
O80    O     0.20491   0.45491   0.20625   0.00000  Uiso   1.00
O81    O     0.45491   0.29509   0.12709   0.00000  Uiso   1.00
O82    O     0.45491   0.29509   0.20625   0.00000  Uiso   1.00
O83    O     0.04508   0.20491   0.12709   0.00000  Uiso   1.00
O84    O     0.45491   0.20491   0.12709   0.00000  Uiso   1.00
O85    O     0.04508   0.29509   0.20625   0.00000  Uiso   1.00
O86    O     0.04508   0.29509   0.12709   0.00000  Uiso   1.00
O87    O     0.45491   0.20491   0.20625   0.00000  Uiso   1.00
O88    O     0.29508   0.45491   0.20625   0.00000  Uiso   1.00
Br89   Br    0.50000   0.15386   0.05613   0.00000  Uiso   1.00
Br90   Br    0.50000   0.34614   0.27720   0.00000  Uiso   1.00
Br91   Br    0.50000   0.34614   0.05613   0.00000  Uiso   1.00
Br92   Br    0.50000   0.15386   0.27720   0.00000  Uiso   1.00
Br93   Br    0.75000   0.40386   0.05613   0.00000  Uiso   1.00
Br94   Br    0.75000   0.09614   0.27720   0.00000  Uiso   1.00
Br95   Br    0.75000   0.09614   0.05613   0.00000  Uiso   1.00
Br96   Br    0.75000   0.40386   0.27720   0.00000  Uiso   1.00
C97    C     0.55941   0.19060   0.16667   0.00000  Uiso   1.00
C98    C     0.50000   0.28935   0.30866   0.00000  Uiso   1.00
C99    C     0.50000   0.28935   0.02467   0.00000  Uiso   1.00
C100   C     0.50000   0.21065   0.30866   0.00000  Uiso   1.00
C101   C     0.75000   0.46065   0.02467   0.00000  Uiso   1.00
C102   C     0.75000   0.03935   0.30866   0.00000  Uiso   1.00
C103   C     0.75000   0.03935   0.02467   0.00000  Uiso   1.00
C104   C     0.75000   0.46065   0.30866   0.00000  Uiso   1.00
C105   C     0.89092   0.14102   0.12458   0.00000  Uiso   1.00
C106   C     0.60908   0.35898   0.20876   0.00000  Uiso   1.00
C107   C     0.60908   0.35898   0.12458   0.00000  Uiso   1.00
C108   C     0.94059   0.30940   0.16667   0.00000  Uiso   1.00
C109   C     0.89092   0.14102   0.20876   0.00000  Uiso   1.00
C110   C     0.60908   0.14102   0.20876   0.00000  Uiso   1.00
C111   C     0.89092   0.35898   0.12458   0.00000  Uiso   1.00
C112   C     0.89092   0.35898   0.20876   0.00000  Uiso   1.00
C113   C     0.60908   0.14102   0.12458   0.00000  Uiso   1.00
C114   C     0.64092   0.39102   0.12458   0.00000  Uiso   1.00
C115   C     0.85908   0.10898   0.20876   0.00000  Uiso   1.00
C116   C     0.85908   0.10898   0.12458   0.00000  Uiso   1.00
C117   C     0.64092   0.39102   0.20876   0.00000  Uiso   1.00
C118   C     0.85908   0.39102   0.20876   0.00000  Uiso   1.00
C119   C     0.94059   0.19060   0.16667   0.00000  Uiso   1.00
C120   C     0.64092   0.10898   0.12458   0.00000  Uiso   1.00
C121   C     0.64092   0.10898   0.20876   0.00000  Uiso   1.00
C122   C     0.85908   0.39102   0.12458   0.00000  Uiso   1.00
C123   C     0.59295   0.34287   0.16667   0.00000  Uiso   1.00
C124   C     0.90705   0.15713   0.16667   0.00000  Uiso   1.00
C125   C     0.90705   0.34287   0.16667   0.00000  Uiso   1.00
C126   C     0.59295   0.15713   0.16667   0.00000  Uiso   1.00
C127   C     0.84295   0.09287   0.16667   0.00000  Uiso   1.00
C128   C     0.65705   0.40713   0.16667   0.00000  Uiso   1.00
C129   C     0.65705   0.09287   0.16667   0.00000  Uiso   1.00
C130   C     0.55941   0.30940   0.16667   0.00000  Uiso   1.00
C131   C     0.84295   0.40713   0.16667   0.00000  Uiso   1.00
C132   C     0.80941   0.44060   0.16667   0.00000  Uiso   1.00
C133   C     0.69059   0.05940   0.16667   0.00000  Uiso   1.00
C134   C     0.69059   0.44060   0.16667   0.00000  Uiso   1.00
C135   C     0.80941   0.05940   0.16667   0.00000  Uiso   1.00
C136   C     0.50000   0.21065   0.02467   0.00000  Uiso   1.00
Cu137  Cu    0.50000   0.25000   0.21355   0.00000  Uiso   1.00
Cu138  Cu    0.50000   0.25000   0.11978   0.00000  Uiso   1.00
Cu139  Cu    0.75000   0.00000   0.21355   0.00000  Uiso   1.00
Cu140  Cu    0.75000   0.00000   0.11978   0.00000  Uiso   1.00
H141   H     0.90281   0.15308   0.09164   0.00000  Uiso   1.00
H142   H     0.84719   0.09692   0.24169   0.00000  Uiso   1.00
H143   H     0.84719   0.09692   0.09164   0.00000  Uiso   1.00
H144   H     0.65281   0.40308   0.24169   0.00000  Uiso   1.00
H145   H     0.84719   0.40308   0.24169   0.00000  Uiso   1.00
H146   H     0.65281   0.09692   0.09164   0.00000  Uiso   1.00
H147   H     0.65281   0.09692   0.24169   0.00000  Uiso   1.00
H148   H     0.84719   0.40308   0.09164   0.00000  Uiso   1.00
H149   H     0.59719   0.34692   0.24169   0.00000  Uiso   1.00
H150   H     0.59719   0.34692   0.09164   0.00000  Uiso   1.00
H151   H     0.90281   0.15308   0.24169   0.00000  Uiso   1.00
H152   H     0.59719   0.15308   0.24169   0.00000  Uiso   1.00
H153   H     0.90281   0.34692   0.09164   0.00000  Uiso   1.00
H154   H     0.90281   0.34692   0.24169   0.00000  Uiso   1.00
H155   H     0.59719   0.15308   0.09164   0.00000  Uiso   1.00
H156   H     0.65281   0.40308   0.09164   0.00000  Uiso   1.00
N157   N     0.50000   0.25000   0.28402   0.00000  Uiso   1.00
N158   N     0.50000   0.25000   0.04931   0.00000  Uiso   1.00
N159   N     0.75000   0.00000   0.28402   0.00000  Uiso   1.00
N160   N     0.75000   0.00000   0.04931   0.00000  Uiso   1.00
O161   O     0.54508   0.20491   0.20625   0.00000  Uiso   1.00
O162   O     0.70491   0.04509   0.12709   0.00000  Uiso   1.00
O163   O     0.70491   0.04509   0.20625   0.00000  Uiso   1.00
O164   O     0.79508   0.45491   0.12709   0.00000  Uiso   1.00
O165   O     0.70491   0.45491   0.12709   0.00000  Uiso   1.00
O166   O     0.79508   0.04509   0.20625   0.00000  Uiso   1.00
O167   O     0.79508   0.04509   0.12709   0.00000  Uiso   1.00
O168   O     0.70491   0.45491   0.20625   0.00000  Uiso   1.00
O169   O     0.95491   0.29509   0.12709   0.00000  Uiso   1.00
O170   O     0.95491   0.29509   0.20625   0.00000  Uiso   1.00
O171   O     0.54508   0.20491   0.12709   0.00000  Uiso   1.00
O172   O     0.95491   0.20491   0.12709   0.00000  Uiso   1.00
O173   O     0.54508   0.29509   0.20625   0.00000  Uiso   1.00
O174   O     0.54508   0.29509   0.12709   0.00000  Uiso   1.00
O175   O     0.95491   0.20491   0.20625   0.00000  Uiso   1.00
O176   O     0.79508   0.45491   0.20625   0.00000  Uiso   1.00
Br177  Br    0.00000   0.65386   0.05613   0.00000  Uiso   1.00
Br178  Br   -0.00000   0.84614   0.27720   0.00000  Uiso   1.00
Br179  Br    0.00000   0.84614   0.05613   0.00000  Uiso   1.00
Br180  Br    0.00000   0.65386   0.27720   0.00000  Uiso   1.00
Br181  Br    0.25000   0.90386   0.05613   0.00000  Uiso   1.00
Br182  Br    0.25000   0.59614   0.27720   0.00000  Uiso   1.00
Br183  Br    0.25000   0.59614   0.05613   0.00000  Uiso   1.00
Br184  Br    0.25000   0.90386   0.27720   0.00000  Uiso   1.00
C185   C     0.05941   0.69060   0.16667   0.00000  Uiso   1.00
C186   C    -0.00000   0.78935   0.30866   0.00000  Uiso   1.00
C187   C    -0.00000   0.78935   0.02467   0.00000  Uiso   1.00
C188   C    -0.00000   0.71065   0.30866   0.00000  Uiso   1.00
C189   C     0.25000   0.96065   0.02467   0.00000  Uiso   1.00
C190   C     0.25000   0.53935   0.30866   0.00000  Uiso   1.00
C191   C     0.25000   0.53935   0.02467   0.00000  Uiso   1.00
C192   C     0.25000   0.96065   0.30866   0.00000  Uiso   1.00
C193   C     0.39092   0.64102   0.12458   0.00000  Uiso   1.00
C194   C     0.10908   0.85898   0.20876   0.00000  Uiso   1.00
C195   C     0.10908   0.85898   0.12458   0.00000  Uiso   1.00
C196   C     0.44059   0.80940   0.16667   0.00000  Uiso   1.00
C197   C     0.39092   0.64102   0.20876   0.00000  Uiso   1.00
C198   C     0.10908   0.64102   0.20876   0.00000  Uiso   1.00
C199   C     0.39092   0.85898   0.12458   0.00000  Uiso   1.00
C200   C     0.39092   0.85898   0.20876   0.00000  Uiso   1.00
C201   C     0.10908   0.64102   0.12458   0.00000  Uiso   1.00
C202   C     0.14092   0.89102   0.12458   0.00000  Uiso   1.00
C203   C     0.35908   0.60898   0.20876   0.00000  Uiso   1.00
C204   C     0.35908   0.60898   0.12458   0.00000  Uiso   1.00
C205   C     0.14092   0.89102   0.20876   0.00000  Uiso   1.00
C206   C     0.35908   0.89102   0.20876   0.00000  Uiso   1.00
C207   C     0.44059   0.69060   0.16667   0.00000  Uiso   1.00
C208   C     0.14092   0.60898   0.12458   0.00000  Uiso   1.00
C209   C     0.14092   0.60898   0.20876   0.00000  Uiso   1.00
C210   C     0.35908   0.89102   0.12458   0.00000  Uiso   1.00
C211   C     0.09295   0.84287   0.16667   0.00000  Uiso   1.00
C212   C     0.40705   0.65713   0.16667   0.00000  Uiso   1.00
C213   C     0.40705   0.84287   0.16667   0.00000  Uiso   1.00
C214   C     0.09295   0.65713   0.16667   0.00000  Uiso   1.00
C215   C     0.34295   0.59287   0.16667   0.00000  Uiso   1.00
C216   C     0.15705   0.90713   0.16667   0.00000  Uiso   1.00
C217   C     0.15705   0.59287   0.16667   0.00000  Uiso   1.00
C218   C     0.05941   0.80940   0.16667   0.00000  Uiso   1.00
C219   C     0.34295   0.90713   0.16667   0.00000  Uiso   1.00
C220   C     0.30941   0.94060   0.16667   0.00000  Uiso   1.00
C221   C     0.19059   0.55940   0.16667   0.00000  Uiso   1.00
C222   C     0.19059   0.94060   0.16667   0.00000  Uiso   1.00
C223   C     0.30941   0.55940   0.16667   0.00000  Uiso   1.00
C224   C     0.00000   0.71065   0.02467   0.00000  Uiso   1.00
Cu225  Cu    0.00000   0.75000   0.21355   0.00000  Uiso   1.00
Cu226  Cu    0.00000   0.75000   0.11978   0.00000  Uiso   1.00
Cu227  Cu    0.25000   0.50000   0.21355   0.00000  Uiso   1.00
Cu228  Cu    0.25000   0.50000   0.11978   0.00000  Uiso   1.00
H229   H     0.40281   0.65308   0.09164   0.00000  Uiso   1.00
H230   H     0.34719   0.59692   0.24169   0.00000  Uiso   1.00
H231   H     0.34719   0.59692   0.09164   0.00000  Uiso   1.00
H232   H     0.15281   0.90308   0.24169   0.00000  Uiso   1.00
H233   H     0.34719   0.90308   0.24169   0.00000  Uiso   1.00
H234   H     0.15281   0.59692   0.09164   0.00000  Uiso   1.00
H235   H     0.15281   0.59692   0.24169   0.00000  Uiso   1.00
H236   H     0.34719   0.90308   0.09164   0.00000  Uiso   1.00
H237   H     0.09719   0.84692   0.24169   0.00000  Uiso   1.00
H238   H     0.09719   0.84692   0.09164   0.00000  Uiso   1.00
H239   H     0.40281   0.65308   0.24169   0.00000  Uiso   1.00
H240   H     0.09719   0.65308   0.24169   0.00000  Uiso   1.00
H241   H     0.40281   0.84692   0.09164   0.00000  Uiso   1.00
H242   H     0.40281   0.84692   0.24169   0.00000  Uiso   1.00
H243   H     0.09719   0.65308   0.09164   0.00000  Uiso   1.00
H244   H     0.15281   0.90308   0.09164   0.00000  Uiso   1.00
N245   N    -0.00000   0.75000   0.28402   0.00000  Uiso   1.00
N246   N     0.00000   0.75000   0.04931   0.00000  Uiso   1.00
N247   N     0.25000   0.50000   0.28402   0.00000  Uiso   1.00
N248   N     0.25000   0.50000   0.04931   0.00000  Uiso   1.00
O249   O     0.04508   0.70491   0.20625   0.00000  Uiso   1.00
O250   O     0.20491   0.54509   0.12709   0.00000  Uiso   1.00
O251   O     0.20491   0.54509   0.20625   0.00000  Uiso   1.00
O252   O     0.29508   0.95491   0.12709   0.00000  Uiso   1.00
O253   O     0.20491   0.95491   0.12709   0.00000  Uiso   1.00
O254   O     0.29508   0.54509   0.20625   0.00000  Uiso   1.00
O255   O     0.29508   0.54509   0.12709   0.00000  Uiso   1.00
O256   O     0.20491   0.95491   0.20625   0.00000  Uiso   1.00
O257   O     0.45491   0.79509   0.12709   0.00000  Uiso   1.00
O258   O     0.45491   0.79509   0.20625   0.00000  Uiso   1.00
O259   O     0.04508   0.70491   0.12709   0.00000  Uiso   1.00
O260   O     0.45491   0.70491   0.12709   0.00000  Uiso   1.00
O261   O     0.04508   0.79509   0.20625   0.00000  Uiso   1.00
O262   O     0.04508   0.79509   0.12709   0.00000  Uiso   1.00
O263   O     0.45491   0.70491   0.20625   0.00000  Uiso   1.00
O264   O     0.29508   0.95491   0.20625   0.00000  Uiso   1.00
Br265  Br    0.50000   0.65386   0.05613   0.00000  Uiso   1.00
Br266  Br    0.50000   0.84614   0.27720   0.00000  Uiso   1.00
Br267  Br    0.50000   0.84614   0.05613   0.00000  Uiso   1.00
Br268  Br    0.50000   0.65386   0.27720   0.00000  Uiso   1.00
Br269  Br    0.75000   0.90386   0.05613   0.00000  Uiso   1.00
Br270  Br    0.75000   0.59614   0.27720   0.00000  Uiso   1.00
Br271  Br    0.75000   0.59614   0.05613   0.00000  Uiso   1.00
Br272  Br    0.75000   0.90386   0.27720   0.00000  Uiso   1.00
C273   C     0.55941   0.69060   0.16667   0.00000  Uiso   1.00
C274   C     0.50000   0.78935   0.30866   0.00000  Uiso   1.00
C275   C     0.50000   0.78935   0.02467   0.00000  Uiso   1.00
C276   C     0.50000   0.71065   0.30866   0.00000  Uiso   1.00
C277   C     0.75000   0.96065   0.02467   0.00000  Uiso   1.00
C278   C     0.75000   0.53935   0.30866   0.00000  Uiso   1.00
C279   C     0.75000   0.53935   0.02467   0.00000  Uiso   1.00
C280   C     0.75000   0.96065   0.30866   0.00000  Uiso   1.00
C281   C     0.89092   0.64102   0.12458   0.00000  Uiso   1.00
C282   C     0.60908   0.85898   0.20876   0.00000  Uiso   1.00
C283   C     0.60908   0.85898   0.12458   0.00000  Uiso   1.00
C284   C     0.94059   0.80940   0.16667   0.00000  Uiso   1.00
C285   C     0.89092   0.64102   0.20876   0.00000  Uiso   1.00
C286   C     0.60908   0.64102   0.20876   0.00000  Uiso   1.00
C287   C     0.89092   0.85898   0.12458   0.00000  Uiso   1.00
C288   C     0.89092   0.85898   0.20876   0.00000  Uiso   1.00
C289   C     0.60908   0.64102   0.12458   0.00000  Uiso   1.00
C290   C     0.64092   0.89102   0.12458   0.00000  Uiso   1.00
C291   C     0.85908   0.60898   0.20876   0.00000  Uiso   1.00
C292   C     0.85908   0.60898   0.12458   0.00000  Uiso   1.00
C293   C     0.64092   0.89102   0.20876   0.00000  Uiso   1.00
C294   C     0.85908   0.89102   0.20876   0.00000  Uiso   1.00
C295   C     0.94059   0.69060   0.16667   0.00000  Uiso   1.00
C296   C     0.64092   0.60898   0.12458   0.00000  Uiso   1.00
C297   C     0.64092   0.60898   0.20876   0.00000  Uiso   1.00
C298   C     0.85908   0.89102   0.12458   0.00000  Uiso   1.00
C299   C     0.59295   0.84287   0.16667   0.00000  Uiso   1.00
C300   C     0.90705   0.65713   0.16667   0.00000  Uiso   1.00
C301   C     0.90705   0.84287   0.16667   0.00000  Uiso   1.00
C302   C     0.59295   0.65713   0.16667   0.00000  Uiso   1.00
C303   C     0.84295   0.59287   0.16667   0.00000  Uiso   1.00
C304   C     0.65705   0.90713   0.16667   0.00000  Uiso   1.00
C305   C     0.65705   0.59287   0.16667   0.00000  Uiso   1.00
C306   C     0.55941   0.80940   0.16667   0.00000  Uiso   1.00
C307   C     0.84295   0.90713   0.16667   0.00000  Uiso   1.00
C308   C     0.80941   0.94060   0.16667   0.00000  Uiso   1.00
C309   C     0.69059   0.55940   0.16667   0.00000  Uiso   1.00
C310   C     0.69059   0.94060   0.16667   0.00000  Uiso   1.00
C311   C     0.80941   0.55940   0.16667   0.00000  Uiso   1.00
C312   C     0.50000   0.71065   0.02467   0.00000  Uiso   1.00
Cu313  Cu    0.50000   0.75000   0.21355   0.00000  Uiso   1.00
Cu314  Cu    0.50000   0.75000   0.11978   0.00000  Uiso   1.00
Cu315  Cu    0.75000   0.50000   0.21355   0.00000  Uiso   1.00
Cu316  Cu    0.75000   0.50000   0.11978   0.00000  Uiso   1.00
H317   H     0.90281   0.65308   0.09164   0.00000  Uiso   1.00
H318   H     0.84719   0.59692   0.24169   0.00000  Uiso   1.00
H319   H     0.84719   0.59692   0.09164   0.00000  Uiso   1.00
H320   H     0.65281   0.90308   0.24169   0.00000  Uiso   1.00
H321   H     0.84719   0.90308   0.24169   0.00000  Uiso   1.00
H322   H     0.65281   0.59692   0.09164   0.00000  Uiso   1.00
H323   H     0.65281   0.59692   0.24169   0.00000  Uiso   1.00
H324   H     0.84719   0.90308   0.09164   0.00000  Uiso   1.00
H325   H     0.59719   0.84692   0.24169   0.00000  Uiso   1.00
H326   H     0.59719   0.84692   0.09164   0.00000  Uiso   1.00
H327   H     0.90281   0.65308   0.24169   0.00000  Uiso   1.00
H328   H     0.59719   0.65308   0.24169   0.00000  Uiso   1.00
H329   H     0.90281   0.84692   0.09164   0.00000  Uiso   1.00
H330   H     0.90281   0.84692   0.24169   0.00000  Uiso   1.00
H331   H     0.59719   0.65308   0.09164   0.00000  Uiso   1.00
H332   H     0.65281   0.90308   0.09164   0.00000  Uiso   1.00
N333   N     0.50000   0.75000   0.28402   0.00000  Uiso   1.00
N334   N     0.50000   0.75000   0.04931   0.00000  Uiso   1.00
N335   N     0.75000   0.50000   0.28402   0.00000  Uiso   1.00
N336   N     0.75000   0.50000   0.04931   0.00000  Uiso   1.00
O337   O     0.54508   0.70491   0.20625   0.00000  Uiso   1.00
O338   O     0.70491   0.54509   0.12709   0.00000  Uiso   1.00
O339   O     0.70491   0.54509   0.20625   0.00000  Uiso   1.00
O340   O     0.79508   0.95491   0.12709   0.00000  Uiso   1.00
O341   O     0.70491   0.95491   0.12709   0.00000  Uiso   1.00
O342   O     0.79508   0.54509   0.20625   0.00000  Uiso   1.00
O343   O     0.79508   0.54509   0.12709   0.00000  Uiso   1.00
O344   O     0.70491   0.95491   0.20625   0.00000  Uiso   1.00
O345   O     0.95491   0.79509   0.12709   0.00000  Uiso   1.00
O346   O     0.95491   0.79509   0.20625   0.00000  Uiso   1.00
O347   O     0.54508   0.70491   0.12709   0.00000  Uiso   1.00
O348   O     0.95491   0.70491   0.12709   0.00000  Uiso   1.00
O349   O     0.54508   0.79509   0.20625   0.00000  Uiso   1.00
O350   O     0.54508   0.79509   0.12709   0.00000  Uiso   1.00
O351   O     0.95491   0.70491   0.20625   0.00000  Uiso   1.00
O352   O     0.79508   0.95491   0.20625   0.00000  Uiso   1.00
Br353  Br    0.00000   0.15386   0.38947   0.00000  Uiso   1.00
Br354  Br   -0.00000   0.34614   0.61053   0.00000  Uiso   1.00
Br355  Br    0.00000   0.34614   0.38947   0.00000  Uiso   1.00
Br356  Br    0.00000   0.15386   0.61053   0.00000  Uiso   1.00
Br357  Br    0.25000   0.40386   0.38947   0.00000  Uiso   1.00
Br358  Br    0.25000   0.09614   0.61053   0.00000  Uiso   1.00
Br359  Br    0.25000   0.09614   0.38947   0.00000  Uiso   1.00
Br360  Br    0.25000   0.40386   0.61053   0.00000  Uiso   1.00
C361   C     0.05941   0.19060   0.50000   0.00000  Uiso   1.00
C362   C    -0.00000   0.28935   0.64199   0.00000  Uiso   1.00
C363   C    -0.00000   0.28935   0.35801   0.00000  Uiso   1.00
C364   C    -0.00000   0.21065   0.64199   0.00000  Uiso   1.00
C365   C     0.25000   0.46065   0.35801   0.00000  Uiso   1.00
C366   C     0.25000   0.03935   0.64199   0.00000  Uiso   1.00
C367   C     0.25000   0.03935   0.35801   0.00000  Uiso   1.00
C368   C     0.25000   0.46065   0.64199   0.00000  Uiso   1.00
C369   C     0.39092   0.14102   0.45791   0.00000  Uiso   1.00
C370   C     0.10908   0.35898   0.54209   0.00000  Uiso   1.00
C371   C     0.10908   0.35898   0.45791   0.00000  Uiso   1.00
C372   C     0.44059   0.30940   0.50000   0.00000  Uiso   1.00
C373   C     0.39092   0.14102   0.54209   0.00000  Uiso   1.00
C374   C     0.10908   0.14102   0.54209   0.00000  Uiso   1.00
C375   C     0.39092   0.35898   0.45791   0.00000  Uiso   1.00
C376   C     0.39092   0.35898   0.54209   0.00000  Uiso   1.00
C377   C     0.10908   0.14102   0.45791   0.00000  Uiso   1.00
C378   C     0.14092   0.39102   0.45791   0.00000  Uiso   1.00
C379   C     0.35908   0.10898   0.54209   0.00000  Uiso   1.00
C380   C     0.35908   0.10898   0.45791   0.00000  Uiso   1.00
C381   C     0.14092   0.39102   0.54209   0.00000  Uiso   1.00
C382   C     0.35908   0.39102   0.54209   0.00000  Uiso   1.00
C383   C     0.44059   0.19060   0.50000   0.00000  Uiso   1.00
C384   C     0.14092   0.10898   0.45791   0.00000  Uiso   1.00
C385   C     0.14092   0.10898   0.54209   0.00000  Uiso   1.00
C386   C     0.35908   0.39102   0.45791   0.00000  Uiso   1.00
C387   C     0.09295   0.34287   0.50000   0.00000  Uiso   1.00
C388   C     0.40705   0.15713   0.50000   0.00000  Uiso   1.00
C389   C     0.40705   0.34287   0.50000   0.00000  Uiso   1.00
C390   C     0.09295   0.15713   0.50000   0.00000  Uiso   1.00
C391   C     0.34295   0.09287   0.50000   0.00000  Uiso   1.00
C392   C     0.15705   0.40713   0.50000   0.00000  Uiso   1.00
C393   C     0.15705   0.09287   0.50000   0.00000  Uiso   1.00
C394   C     0.05941   0.30940   0.50000   0.00000  Uiso   1.00
C395   C     0.34295   0.40713   0.50000   0.00000  Uiso   1.00
C396   C     0.30941   0.44060   0.50000   0.00000  Uiso   1.00
C397   C     0.19059   0.05940   0.50000   0.00000  Uiso   1.00
C398   C     0.19059   0.44060   0.50000   0.00000  Uiso   1.00
C399   C     0.30941   0.05940   0.50000   0.00000  Uiso   1.00
C400   C     0.00000   0.21065   0.35801   0.00000  Uiso   1.00
Cu401  Cu    0.00000   0.25000   0.54689   0.00000  Uiso   1.00
Cu402  Cu    0.00000   0.25000   0.45311   0.00000  Uiso   1.00
Cu403  Cu    0.25000   0.00000   0.54689   0.00000  Uiso   1.00
Cu404  Cu    0.25000   0.00000   0.45311   0.00000  Uiso   1.00
H405   H     0.40281   0.15308   0.42497   0.00000  Uiso   1.00
H406   H     0.34719   0.09692   0.57503   0.00000  Uiso   1.00
H407   H     0.34719   0.09692   0.42497   0.00000  Uiso   1.00
H408   H     0.15281   0.40308   0.57503   0.00000  Uiso   1.00
H409   H     0.34719   0.40308   0.57503   0.00000  Uiso   1.00
H410   H     0.15281   0.09692   0.42497   0.00000  Uiso   1.00
H411   H     0.15281   0.09692   0.57503   0.00000  Uiso   1.00
H412   H     0.34719   0.40308   0.42497   0.00000  Uiso   1.00
H413   H     0.09719   0.34692   0.57503   0.00000  Uiso   1.00
H414   H     0.09719   0.34692   0.42497   0.00000  Uiso   1.00
H415   H     0.40281   0.15308   0.57503   0.00000  Uiso   1.00
H416   H     0.09719   0.15308   0.57503   0.00000  Uiso   1.00
H417   H     0.40281   0.34692   0.42497   0.00000  Uiso   1.00
H418   H     0.40281   0.34692   0.57503   0.00000  Uiso   1.00
H419   H     0.09719   0.15308   0.42497   0.00000  Uiso   1.00
H420   H     0.15281   0.40308   0.42497   0.00000  Uiso   1.00
N421   N    -0.00000   0.25000   0.61736   0.00000  Uiso   1.00
N422   N     0.00000   0.25000   0.38264   0.00000  Uiso   1.00
N423   N     0.25000   0.00000   0.61736   0.00000  Uiso   1.00
N424   N     0.25000   0.00000   0.38264   0.00000  Uiso   1.00
O425   O     0.04508   0.20491   0.53958   0.00000  Uiso   1.00
O426   O     0.20491   0.04509   0.46042   0.00000  Uiso   1.00
O427   O     0.20491   0.04509   0.53958   0.00000  Uiso   1.00
O428   O     0.29508   0.45491   0.46042   0.00000  Uiso   1.00
O429   O     0.20491   0.45491   0.46042   0.00000  Uiso   1.00
O430   O     0.29508   0.04509   0.53958   0.00000  Uiso   1.00
O431   O     0.29508   0.04509   0.46042   0.00000  Uiso   1.00
O432   O     0.20491   0.45491   0.53958   0.00000  Uiso   1.00
O433   O     0.45491   0.29509   0.46042   0.00000  Uiso   1.00
O434   O     0.45491   0.29509   0.53958   0.00000  Uiso   1.00
O435   O     0.04508   0.20491   0.46042   0.00000  Uiso   1.00
O436   O     0.45491   0.20491   0.46042   0.00000  Uiso   1.00
O437   O     0.04508   0.29509   0.53958   0.00000  Uiso   1.00
O438   O     0.04508   0.29509   0.46042   0.00000  Uiso   1.00
O439   O     0.45491   0.20491   0.53958   0.00000  Uiso   1.00
O440   O     0.29508   0.45491   0.53958   0.00000  Uiso   1.00
Br441  Br    0.50000   0.15386   0.38947   0.00000  Uiso   1.00
Br442  Br    0.50000   0.34614   0.61053   0.00000  Uiso   1.00
Br443  Br    0.50000   0.34614   0.38947   0.00000  Uiso   1.00
Br444  Br    0.50000   0.15386   0.61053   0.00000  Uiso   1.00
Br445  Br    0.75000   0.40386   0.38947   0.00000  Uiso   1.00
Br446  Br    0.75000   0.09614   0.61053   0.00000  Uiso   1.00
Br447  Br    0.75000   0.09614   0.38947   0.00000  Uiso   1.00
Br448  Br    0.75000   0.40386   0.61053   0.00000  Uiso   1.00
C449   C     0.55941   0.19060   0.50000   0.00000  Uiso   1.00
C450   C     0.50000   0.28935   0.64199   0.00000  Uiso   1.00
C451   C     0.50000   0.28935   0.35801   0.00000  Uiso   1.00
C452   C     0.50000   0.21065   0.64199   0.00000  Uiso   1.00
C453   C     0.75000   0.46065   0.35801   0.00000  Uiso   1.00
C454   C     0.75000   0.03935   0.64199   0.00000  Uiso   1.00
C455   C     0.75000   0.03935   0.35801   0.00000  Uiso   1.00
C456   C     0.75000   0.46065   0.64199   0.00000  Uiso   1.00
C457   C     0.89092   0.14102   0.45791   0.00000  Uiso   1.00
C458   C     0.60908   0.35898   0.54209   0.00000  Uiso   1.00
C459   C     0.60908   0.35898   0.45791   0.00000  Uiso   1.00
C460   C     0.94059   0.30940   0.50000   0.00000  Uiso   1.00
C461   C     0.89092   0.14102   0.54209   0.00000  Uiso   1.00
C462   C     0.60908   0.14102   0.54209   0.00000  Uiso   1.00
C463   C     0.89092   0.35898   0.45791   0.00000  Uiso   1.00
C464   C     0.89092   0.35898   0.54209   0.00000  Uiso   1.00
C465   C     0.60908   0.14102   0.45791   0.00000  Uiso   1.00
C466   C     0.64092   0.39102   0.45791   0.00000  Uiso   1.00
C467   C     0.85908   0.10898   0.54209   0.00000  Uiso   1.00
C468   C     0.85908   0.10898   0.45791   0.00000  Uiso   1.00
C469   C     0.64092   0.39102   0.54209   0.00000  Uiso   1.00
C470   C     0.85908   0.39102   0.54209   0.00000  Uiso   1.00
C471   C     0.94059   0.19060   0.50000   0.00000  Uiso   1.00
C472   C     0.64092   0.10898   0.45791   0.00000  Uiso   1.00
C473   C     0.64092   0.10898   0.54209   0.00000  Uiso   1.00
C474   C     0.85908   0.39102   0.45791   0.00000  Uiso   1.00
C475   C     0.59295   0.34287   0.50000   0.00000  Uiso   1.00
C476   C     0.90705   0.15713   0.50000   0.00000  Uiso   1.00
C477   C     0.90705   0.34287   0.50000   0.00000  Uiso   1.00
C478   C     0.59295   0.15713   0.50000   0.00000  Uiso   1.00
C479   C     0.84295   0.09287   0.50000   0.00000  Uiso   1.00
C480   C     0.65705   0.40713   0.50000   0.00000  Uiso   1.00
C481   C     0.65705   0.09287   0.50000   0.00000  Uiso   1.00
C482   C     0.55941   0.30940   0.50000   0.00000  Uiso   1.00
C483   C     0.84295   0.40713   0.50000   0.00000  Uiso   1.00
C484   C     0.80941   0.44060   0.50000   0.00000  Uiso   1.00
C485   C     0.69059   0.05940   0.50000   0.00000  Uiso   1.00
C486   C     0.69059   0.44060   0.50000   0.00000  Uiso   1.00
C487   C     0.80941   0.05940   0.50000   0.00000  Uiso   1.00
C488   C     0.50000   0.21065   0.35801   0.00000  Uiso   1.00
Cu489  Cu    0.50000   0.25000   0.54689   0.00000  Uiso   1.00
Cu490  Cu    0.50000   0.25000   0.45311   0.00000  Uiso   1.00
Cu491  Cu    0.75000   0.00000   0.54689   0.00000  Uiso   1.00
Cu492  Cu    0.75000   0.00000   0.45311   0.00000  Uiso   1.00
H493   H     0.90281   0.15308   0.42497   0.00000  Uiso   1.00
H494   H     0.84719   0.09692   0.57503   0.00000  Uiso   1.00
H495   H     0.84719   0.09692   0.42497   0.00000  Uiso   1.00
H496   H     0.65281   0.40308   0.57503   0.00000  Uiso   1.00
H497   H     0.84719   0.40308   0.57503   0.00000  Uiso   1.00
H498   H     0.65281   0.09692   0.42497   0.00000  Uiso   1.00
H499   H     0.65281   0.09692   0.57503   0.00000  Uiso   1.00
H500   H     0.84719   0.40308   0.42497   0.00000  Uiso   1.00
H501   H     0.59719   0.34692   0.57503   0.00000  Uiso   1.00
H502   H     0.59719   0.34692   0.42497   0.00000  Uiso   1.00
H503   H     0.90281   0.15308   0.57503   0.00000  Uiso   1.00
H504   H     0.59719   0.15308   0.57503   0.00000  Uiso   1.00
H505   H     0.90281   0.34692   0.42497   0.00000  Uiso   1.00
H506   H     0.90281   0.34692   0.57503   0.00000  Uiso   1.00
H507   H     0.59719   0.15308   0.42497   0.00000  Uiso   1.00
H508   H     0.65281   0.40308   0.42497   0.00000  Uiso   1.00
N509   N     0.50000   0.25000   0.61736   0.00000  Uiso   1.00
N510   N     0.50000   0.25000   0.38264   0.00000  Uiso   1.00
N511   N     0.75000   0.00000   0.61736   0.00000  Uiso   1.00
N512   N     0.75000   0.00000   0.38264   0.00000  Uiso   1.00
O513   O     0.54508   0.20491   0.53958   0.00000  Uiso   1.00
O514   O     0.70491   0.04509   0.46042   0.00000  Uiso   1.00
O515   O     0.70491   0.04509   0.53958   0.00000  Uiso   1.00
O516   O     0.79508   0.45491   0.46042   0.00000  Uiso   1.00
O517   O     0.70491   0.45491   0.46042   0.00000  Uiso   1.00
O518   O     0.79508   0.04509   0.53958   0.00000  Uiso   1.00
O519   O     0.79508   0.04509   0.46042   0.00000  Uiso   1.00
O520   O     0.70491   0.45491   0.53958   0.00000  Uiso   1.00
O521   O     0.95491   0.29509   0.46042   0.00000  Uiso   1.00
O522   O     0.95491   0.29509   0.53958   0.00000  Uiso   1.00
O523   O     0.54508   0.20491   0.46042   0.00000  Uiso   1.00
O524   O     0.95491   0.20491   0.46042   0.00000  Uiso   1.00
O525   O     0.54508   0.29509   0.53958   0.00000  Uiso   1.00
O526   O     0.54508   0.29509   0.46042   0.00000  Uiso   1.00
O527   O     0.95491   0.20491   0.53958   0.00000  Uiso   1.00
O528   O     0.79508   0.45491   0.53958   0.00000  Uiso   1.00
Br529  Br    0.00000   0.65386   0.38947   0.00000  Uiso   1.00
Br530  Br   -0.00000   0.84614   0.61053   0.00000  Uiso   1.00
Br531  Br    0.00000   0.84614   0.38947   0.00000  Uiso   1.00
Br532  Br    0.00000   0.65386   0.61053   0.00000  Uiso   1.00
Br533  Br    0.25000   0.90386   0.38947   0.00000  Uiso   1.00
Br534  Br    0.25000   0.59614   0.61053   0.00000  Uiso   1.00
Br535  Br    0.25000   0.59614   0.38947   0.00000  Uiso   1.00
Br536  Br    0.25000   0.90386   0.61053   0.00000  Uiso   1.00
C537   C     0.05941   0.69060   0.50000   0.00000  Uiso   1.00
C538   C    -0.00000   0.78935   0.64199   0.00000  Uiso   1.00
C539   C    -0.00000   0.78935   0.35801   0.00000  Uiso   1.00
C540   C    -0.00000   0.71065   0.64199   0.00000  Uiso   1.00
C541   C     0.25000   0.96065   0.35801   0.00000  Uiso   1.00
C542   C     0.25000   0.53935   0.64199   0.00000  Uiso   1.00
C543   C     0.25000   0.53935   0.35801   0.00000  Uiso   1.00
C544   C     0.25000   0.96065   0.64199   0.00000  Uiso   1.00
C545   C     0.39092   0.64102   0.45791   0.00000  Uiso   1.00
C546   C     0.10908   0.85898   0.54209   0.00000  Uiso   1.00
C547   C     0.10908   0.85898   0.45791   0.00000  Uiso   1.00
C548   C     0.44059   0.80940   0.50000   0.00000  Uiso   1.00
C549   C     0.39092   0.64102   0.54209   0.00000  Uiso   1.00
C550   C     0.10908   0.64102   0.54209   0.00000  Uiso   1.00
C551   C     0.39092   0.85898   0.45791   0.00000  Uiso   1.00
C552   C     0.39092   0.85898   0.54209   0.00000  Uiso   1.00
C553   C     0.10908   0.64102   0.45791   0.00000  Uiso   1.00
C554   C     0.14092   0.89102   0.45791   0.00000  Uiso   1.00
C555   C     0.35908   0.60898   0.54209   0.00000  Uiso   1.00
C556   C     0.35908   0.60898   0.45791   0.00000  Uiso   1.00
C557   C     0.14092   0.89102   0.54209   0.00000  Uiso   1.00
C558   C     0.35908   0.89102   0.54209   0.00000  Uiso   1.00
C559   C     0.44059   0.69060   0.50000   0.00000  Uiso   1.00
C560   C     0.14092   0.60898   0.45791   0.00000  Uiso   1.00
C561   C     0.14092   0.60898   0.54209   0.00000  Uiso   1.00
C562   C     0.35908   0.89102   0.45791   0.00000  Uiso   1.00
C563   C     0.09295   0.84287   0.50000   0.00000  Uiso   1.00
C564   C     0.40705   0.65713   0.50000   0.00000  Uiso   1.00
C565   C     0.40705   0.84287   0.50000   0.00000  Uiso   1.00
C566   C     0.09295   0.65713   0.50000   0.00000  Uiso   1.00
C567   C     0.34295   0.59287   0.50000   0.00000  Uiso   1.00
C568   C     0.15705   0.90713   0.50000   0.00000  Uiso   1.00
C569   C     0.15705   0.59287   0.50000   0.00000  Uiso   1.00
C570   C     0.05941   0.80940   0.50000   0.00000  Uiso   1.00
C571   C     0.34295   0.90713   0.50000   0.00000  Uiso   1.00
C572   C     0.30941   0.94060   0.50000   0.00000  Uiso   1.00
C573   C     0.19059   0.55940   0.50000   0.00000  Uiso   1.00
C574   C     0.19059   0.94060   0.50000   0.00000  Uiso   1.00
C575   C     0.30941   0.55940   0.50000   0.00000  Uiso   1.00
C576   C     0.00000   0.71065   0.35801   0.00000  Uiso   1.00
Cu577  Cu    0.00000   0.75000   0.54689   0.00000  Uiso   1.00
Cu578  Cu    0.00000   0.75000   0.45311   0.00000  Uiso   1.00
Cu579  Cu    0.25000   0.50000   0.54689   0.00000  Uiso   1.00
Cu580  Cu    0.25000   0.50000   0.45311   0.00000  Uiso   1.00
H581   H     0.40281   0.65308   0.42497   0.00000  Uiso   1.00
H582   H     0.34719   0.59692   0.57503   0.00000  Uiso   1.00
H583   H     0.34719   0.59692   0.42497   0.00000  Uiso   1.00
H584   H     0.15281   0.90308   0.57503   0.00000  Uiso   1.00
H585   H     0.34719   0.90308   0.57503   0.00000  Uiso   1.00
H586   H     0.15281   0.59692   0.42497   0.00000  Uiso   1.00
H587   H     0.15281   0.59692   0.57503   0.00000  Uiso   1.00
H588   H     0.34719   0.90308   0.42497   0.00000  Uiso   1.00
H589   H     0.09719   0.84692   0.57503   0.00000  Uiso   1.00
H590   H     0.09719   0.84692   0.42497   0.00000  Uiso   1.00
H591   H     0.40281   0.65308   0.57503   0.00000  Uiso   1.00
H592   H     0.09719   0.65308   0.57503   0.00000  Uiso   1.00
H593   H     0.40281   0.84692   0.42497   0.00000  Uiso   1.00
H594   H     0.40281   0.84692   0.57503   0.00000  Uiso   1.00
H595   H     0.09719   0.65308   0.42497   0.00000  Uiso   1.00
H596   H     0.15281   0.90308   0.42497   0.00000  Uiso   1.00
N597   N    -0.00000   0.75000   0.61736   0.00000  Uiso   1.00
N598   N     0.00000   0.75000   0.38264   0.00000  Uiso   1.00
N599   N     0.25000   0.50000   0.61736   0.00000  Uiso   1.00
N600   N     0.25000   0.50000   0.38264   0.00000  Uiso   1.00
O601   O     0.04508   0.70491   0.53958   0.00000  Uiso   1.00
O602   O     0.20491   0.54509   0.46042   0.00000  Uiso   1.00
O603   O     0.20491   0.54509   0.53958   0.00000  Uiso   1.00
O604   O     0.29508   0.95491   0.46042   0.00000  Uiso   1.00
O605   O     0.20491   0.95491   0.46042   0.00000  Uiso   1.00
O606   O     0.29508   0.54509   0.53958   0.00000  Uiso   1.00
O607   O     0.29508   0.54509   0.46042   0.00000  Uiso   1.00
O608   O     0.20491   0.95491   0.53958   0.00000  Uiso   1.00
O609   O     0.45491   0.79509   0.46042   0.00000  Uiso   1.00
O610   O     0.45491   0.79509   0.53958   0.00000  Uiso   1.00
O611   O     0.04508   0.70491   0.46042   0.00000  Uiso   1.00
O612   O     0.45491   0.70491   0.46042   0.00000  Uiso   1.00
O613   O     0.04508   0.79509   0.53958   0.00000  Uiso   1.00
O614   O     0.04508   0.79509   0.46042   0.00000  Uiso   1.00
O615   O     0.45491   0.70491   0.53958   0.00000  Uiso   1.00
O616   O     0.29508   0.95491   0.53958   0.00000  Uiso   1.00
Br617  Br    0.50000   0.65386   0.38947   0.00000  Uiso   1.00
Br618  Br    0.50000   0.84614   0.61053   0.00000  Uiso   1.00
Br619  Br    0.50000   0.84614   0.38947   0.00000  Uiso   1.00
Br620  Br    0.50000   0.65386   0.61053   0.00000  Uiso   1.00
Br621  Br    0.75000   0.90386   0.38947   0.00000  Uiso   1.00
Br622  Br    0.75000   0.59614   0.61053   0.00000  Uiso   1.00
Br623  Br    0.75000   0.59614   0.38947   0.00000  Uiso   1.00
Br624  Br    0.75000   0.90386   0.61053   0.00000  Uiso   1.00
C625   C     0.55941   0.69060   0.50000   0.00000  Uiso   1.00
C626   C     0.50000   0.78935   0.64199   0.00000  Uiso   1.00
C627   C     0.50000   0.78935   0.35801   0.00000  Uiso   1.00
C628   C     0.50000   0.71065   0.64199   0.00000  Uiso   1.00
C629   C     0.75000   0.96065   0.35801   0.00000  Uiso   1.00
C630   C     0.75000   0.53935   0.64199   0.00000  Uiso   1.00
C631   C     0.75000   0.53935   0.35801   0.00000  Uiso   1.00
C632   C     0.75000   0.96065   0.64199   0.00000  Uiso   1.00
C633   C     0.89092   0.64102   0.45791   0.00000  Uiso   1.00
C634   C     0.60908   0.85898   0.54209   0.00000  Uiso   1.00
C635   C     0.60908   0.85898   0.45791   0.00000  Uiso   1.00
C636   C     0.94059   0.80940   0.50000   0.00000  Uiso   1.00
C637   C     0.89092   0.64102   0.54209   0.00000  Uiso   1.00
C638   C     0.60908   0.64102   0.54209   0.00000  Uiso   1.00
C639   C     0.89092   0.85898   0.45791   0.00000  Uiso   1.00
C640   C     0.89092   0.85898   0.54209   0.00000  Uiso   1.00
C641   C     0.60908   0.64102   0.45791   0.00000  Uiso   1.00
C642   C     0.64092   0.89102   0.45791   0.00000  Uiso   1.00
C643   C     0.85908   0.60898   0.54209   0.00000  Uiso   1.00
C644   C     0.85908   0.60898   0.45791   0.00000  Uiso   1.00
C645   C     0.64092   0.89102   0.54209   0.00000  Uiso   1.00
C646   C     0.85908   0.89102   0.54209   0.00000  Uiso   1.00
C647   C     0.94059   0.69060   0.50000   0.00000  Uiso   1.00
C648   C     0.64092   0.60898   0.45791   0.00000  Uiso   1.00
C649   C     0.64092   0.60898   0.54209   0.00000  Uiso   1.00
C650   C     0.85908   0.89102   0.45791   0.00000  Uiso   1.00
C651   C     0.59295   0.84287   0.50000   0.00000  Uiso   1.00
C652   C     0.90705   0.65713   0.50000   0.00000  Uiso   1.00
C653   C     0.90705   0.84287   0.50000   0.00000  Uiso   1.00
C654   C     0.59295   0.65713   0.50000   0.00000  Uiso   1.00
C655   C     0.84295   0.59287   0.50000   0.00000  Uiso   1.00
C656   C     0.65705   0.90713   0.50000   0.00000  Uiso   1.00
C657   C     0.65705   0.59287   0.50000   0.00000  Uiso   1.00
C658   C     0.55941   0.80940   0.50000   0.00000  Uiso   1.00
C659   C     0.84295   0.90713   0.50000   0.00000  Uiso   1.00
C660   C     0.80941   0.94060   0.50000   0.00000  Uiso   1.00
C661   C     0.69059   0.55940   0.50000   0.00000  Uiso   1.00
C662   C     0.69059   0.94060   0.50000   0.00000  Uiso   1.00
C663   C     0.80941   0.55940   0.50000   0.00000  Uiso   1.00
C664   C     0.50000   0.71065   0.35801   0.00000  Uiso   1.00
Cu665  Cu    0.50000   0.75000   0.54689   0.00000  Uiso   1.00
Cu666  Cu    0.50000   0.75000   0.45311   0.00000  Uiso   1.00
Cu667  Cu    0.75000   0.50000   0.54689   0.00000  Uiso   1.00
Cu668  Cu    0.75000   0.50000   0.45311   0.00000  Uiso   1.00
H669   H     0.90281   0.65308   0.42497   0.00000  Uiso   1.00
H670   H     0.84719   0.59692   0.57503   0.00000  Uiso   1.00
H671   H     0.84719   0.59692   0.42497   0.00000  Uiso   1.00
H672   H     0.65281   0.90308   0.57503   0.00000  Uiso   1.00
H673   H     0.84719   0.90308   0.57503   0.00000  Uiso   1.00
H674   H     0.65281   0.59692   0.42497   0.00000  Uiso   1.00
H675   H     0.65281   0.59692   0.57503   0.00000  Uiso   1.00
H676   H     0.84719   0.90308   0.42497   0.00000  Uiso   1.00
H677   H     0.59719   0.84692   0.57503   0.00000  Uiso   1.00
H678   H     0.59719   0.84692   0.42497   0.00000  Uiso   1.00
H679   H     0.90281   0.65308   0.57503   0.00000  Uiso   1.00
H680   H     0.59719   0.65308   0.57503   0.00000  Uiso   1.00
H681   H     0.90281   0.84692   0.42497   0.00000  Uiso   1.00
H682   H     0.90281   0.84692   0.57503   0.00000  Uiso   1.00
H683   H     0.59719   0.65308   0.42497   0.00000  Uiso   1.00
H684   H     0.65281   0.90308   0.42497   0.00000  Uiso   1.00
N685   N     0.50000   0.75000   0.61736   0.00000  Uiso   1.00
N686   N     0.50000   0.75000   0.38264   0.00000  Uiso   1.00
N687   N     0.75000   0.50000   0.61736   0.00000  Uiso   1.00
N688   N     0.75000   0.50000   0.38264   0.00000  Uiso   1.00
O689   O     0.54508   0.70491   0.53958   0.00000  Uiso   1.00
O690   O     0.70491   0.54509   0.46042   0.00000  Uiso   1.00
O691   O     0.70491   0.54509   0.53958   0.00000  Uiso   1.00
O692   O     0.79508   0.95491   0.46042   0.00000  Uiso   1.00
O693   O     0.70491   0.95491   0.46042   0.00000  Uiso   1.00
O694   O     0.79508   0.54509   0.53958   0.00000  Uiso   1.00
O695   O     0.79508   0.54509   0.46042   0.00000  Uiso   1.00
O696   O     0.70491   0.95491   0.53958   0.00000  Uiso   1.00
O697   O     0.95491   0.79509   0.46042   0.00000  Uiso   1.00
O698   O     0.95491   0.79509   0.53958   0.00000  Uiso   1.00
O699   O     0.54508   0.70491   0.46042   0.00000  Uiso   1.00
O700   O     0.95491   0.70491   0.46042   0.00000  Uiso   1.00
O701   O     0.54508   0.79509   0.53958   0.00000  Uiso   1.00
O702   O     0.54508   0.79509   0.46042   0.00000  Uiso   1.00
O703   O     0.95491   0.70491   0.53958   0.00000  Uiso   1.00
O704   O     0.79508   0.95491   0.53958   0.00000  Uiso   1.00
Br705  Br    0.00000   0.15386   0.72280   0.00000  Uiso   1.00
Br706  Br   -0.00000   0.34614   0.94387   0.00000  Uiso   1.00
Br707  Br    0.00000   0.34614   0.72280   0.00000  Uiso   1.00
Br708  Br    0.00000   0.15386   0.94387   0.00000  Uiso   1.00
Br709  Br    0.25000   0.40386   0.72280   0.00000  Uiso   1.00
Br710  Br    0.25000   0.09614   0.94387   0.00000  Uiso   1.00
Br711  Br    0.25000   0.09614   0.72280   0.00000  Uiso   1.00
Br712  Br    0.25000   0.40386   0.94387   0.00000  Uiso   1.00
C713   C     0.05941   0.19060   0.83333   0.00000  Uiso   1.00
C714   C    -0.00000   0.28935   0.97533   0.00000  Uiso   1.00
C715   C    -0.00000   0.28935   0.69134   0.00000  Uiso   1.00
C716   C    -0.00000   0.21065   0.97533   0.00000  Uiso   1.00
C717   C     0.25000   0.46065   0.69134   0.00000  Uiso   1.00
C718   C     0.25000   0.03935   0.97533   0.00000  Uiso   1.00
C719   C     0.25000   0.03935   0.69134   0.00000  Uiso   1.00
C720   C     0.25000   0.46065   0.97533   0.00000  Uiso   1.00
C721   C     0.39092   0.14102   0.79124   0.00000  Uiso   1.00
C722   C     0.10908   0.35898   0.87542   0.00000  Uiso   1.00
C723   C     0.10908   0.35898   0.79124   0.00000  Uiso   1.00
C724   C     0.44059   0.30940   0.83333   0.00000  Uiso   1.00
C725   C     0.39092   0.14102   0.87542   0.00000  Uiso   1.00
C726   C     0.10908   0.14102   0.87542   0.00000  Uiso   1.00
C727   C     0.39092   0.35898   0.79124   0.00000  Uiso   1.00
C728   C     0.39092   0.35898   0.87542   0.00000  Uiso   1.00
C729   C     0.10908   0.14102   0.79124   0.00000  Uiso   1.00
C730   C     0.14092   0.39102   0.79124   0.00000  Uiso   1.00
C731   C     0.35908   0.10898   0.87542   0.00000  Uiso   1.00
C732   C     0.35908   0.10898   0.79124   0.00000  Uiso   1.00
C733   C     0.14092   0.39102   0.87542   0.00000  Uiso   1.00
C734   C     0.35908   0.39102   0.87542   0.00000  Uiso   1.00
C735   C     0.44059   0.19060   0.83333   0.00000  Uiso   1.00
C736   C     0.14092   0.10898   0.79124   0.00000  Uiso   1.00
C737   C     0.14092   0.10898   0.87542   0.00000  Uiso   1.00
C738   C     0.35908   0.39102   0.79124   0.00000  Uiso   1.00
C739   C     0.09295   0.34287   0.83333   0.00000  Uiso   1.00
C740   C     0.40705   0.15713   0.83333   0.00000  Uiso   1.00
C741   C     0.40705   0.34287   0.83333   0.00000  Uiso   1.00
C742   C     0.09295   0.15713   0.83333   0.00000  Uiso   1.00
C743   C     0.34295   0.09287   0.83333   0.00000  Uiso   1.00
C744   C     0.15705   0.40713   0.83333   0.00000  Uiso   1.00
C745   C     0.15705   0.09287   0.83333   0.00000  Uiso   1.00
C746   C     0.05941   0.30940   0.83333   0.00000  Uiso   1.00
C747   C     0.34295   0.40713   0.83333   0.00000  Uiso   1.00
C748   C     0.30941   0.44060   0.83333   0.00000  Uiso   1.00
C749   C     0.19059   0.05940   0.83333   0.00000  Uiso   1.00
C750   C     0.19059   0.44060   0.83333   0.00000  Uiso   1.00
C751   C     0.30941   0.05940   0.83333   0.00000  Uiso   1.00
C752   C     0.00000   0.21065   0.69134   0.00000  Uiso   1.00
Cu753  Cu    0.00000   0.25000   0.88022   0.00000  Uiso   1.00
Cu754  Cu    0.00000   0.25000   0.78645   0.00000  Uiso   1.00
Cu755  Cu    0.25000   0.00000   0.88022   0.00000  Uiso   1.00
Cu756  Cu    0.25000   0.00000   0.78645   0.00000  Uiso   1.00
H757   H     0.40281   0.15308   0.75831   0.00000  Uiso   1.00
H758   H     0.34719   0.09692   0.90836   0.00000  Uiso   1.00
H759   H     0.34719   0.09692   0.75831   0.00000  Uiso   1.00
H760   H     0.15281   0.40308   0.90836   0.00000  Uiso   1.00
H761   H     0.34719   0.40308   0.90836   0.00000  Uiso   1.00
H762   H     0.15281   0.09692   0.75831   0.00000  Uiso   1.00
H763   H     0.15281   0.09692   0.90836   0.00000  Uiso   1.00
H764   H     0.34719   0.40308   0.75831   0.00000  Uiso   1.00
H765   H     0.09719   0.34692   0.90836   0.00000  Uiso   1.00
H766   H     0.09719   0.34692   0.75831   0.00000  Uiso   1.00
H767   H     0.40281   0.15308   0.90836   0.00000  Uiso   1.00
H768   H     0.09719   0.15308   0.90836   0.00000  Uiso   1.00
H769   H     0.40281   0.34692   0.75831   0.00000  Uiso   1.00
H770   H     0.40281   0.34692   0.90836   0.00000  Uiso   1.00
H771   H     0.09719   0.15308   0.75831   0.00000  Uiso   1.00
H772   H     0.15281   0.40308   0.75831   0.00000  Uiso   1.00
N773   N    -0.00000   0.25000   0.95069   0.00000  Uiso   1.00
N774   N     0.00000   0.25000   0.71598   0.00000  Uiso   1.00
N775   N     0.25000   0.00000   0.95069   0.00000  Uiso   1.00
N776   N     0.25000   0.00000   0.71598   0.00000  Uiso   1.00
O777   O     0.04508   0.20491   0.87291   0.00000  Uiso   1.00
O778   O     0.20491   0.04509   0.79375   0.00000  Uiso   1.00
O779   O     0.20491   0.04509   0.87291   0.00000  Uiso   1.00
O780   O     0.29508   0.45491   0.79375   0.00000  Uiso   1.00
O781   O     0.20491   0.45491   0.79375   0.00000  Uiso   1.00
O782   O     0.29508   0.04509   0.87291   0.00000  Uiso   1.00
O783   O     0.29508   0.04509   0.79375   0.00000  Uiso   1.00
O784   O     0.20491   0.45491   0.87291   0.00000  Uiso   1.00
O785   O     0.45491   0.29509   0.79375   0.00000  Uiso   1.00
O786   O     0.45491   0.29509   0.87291   0.00000  Uiso   1.00
O787   O     0.04508   0.20491   0.79375   0.00000  Uiso   1.00
O788   O     0.45491   0.20491   0.79375   0.00000  Uiso   1.00
O789   O     0.04508   0.29509   0.87291   0.00000  Uiso   1.00
O790   O     0.04508   0.29509   0.79375   0.00000  Uiso   1.00
O791   O     0.45491   0.20491   0.87291   0.00000  Uiso   1.00
O792   O     0.29508   0.45491   0.87291   0.00000  Uiso   1.00
Br793  Br    0.50000   0.15386   0.72280   0.00000  Uiso   1.00
Br794  Br    0.50000   0.34614   0.94387   0.00000  Uiso   1.00
Br795  Br    0.50000   0.34614   0.72280   0.00000  Uiso   1.00
Br796  Br    0.50000   0.15386   0.94387   0.00000  Uiso   1.00
Br797  Br    0.75000   0.40386   0.72280   0.00000  Uiso   1.00
Br798  Br    0.75000   0.09614   0.94387   0.00000  Uiso   1.00
Br799  Br    0.75000   0.09614   0.72280   0.00000  Uiso   1.00
Br800  Br    0.75000   0.40386   0.94387   0.00000  Uiso   1.00
C801   C     0.55941   0.19060   0.83333   0.00000  Uiso   1.00
C802   C     0.50000   0.28935   0.97533   0.00000  Uiso   1.00
C803   C     0.50000   0.28935   0.69134   0.00000  Uiso   1.00
C804   C     0.50000   0.21065   0.97533   0.00000  Uiso   1.00
C805   C     0.75000   0.46065   0.69134   0.00000  Uiso   1.00
C806   C     0.75000   0.03935   0.97533   0.00000  Uiso   1.00
C807   C     0.75000   0.03935   0.69134   0.00000  Uiso   1.00
C808   C     0.75000   0.46065   0.97533   0.00000  Uiso   1.00
C809   C     0.89092   0.14102   0.79124   0.00000  Uiso   1.00
C810   C     0.60908   0.35898   0.87542   0.00000  Uiso   1.00
C811   C     0.60908   0.35898   0.79124   0.00000  Uiso   1.00
C812   C     0.94059   0.30940   0.83333   0.00000  Uiso   1.00
C813   C     0.89092   0.14102   0.87542   0.00000  Uiso   1.00
C814   C     0.60908   0.14102   0.87542   0.00000  Uiso   1.00
C815   C     0.89092   0.35898   0.79124   0.00000  Uiso   1.00
C816   C     0.89092   0.35898   0.87542   0.00000  Uiso   1.00
C817   C     0.60908   0.14102   0.79124   0.00000  Uiso   1.00
C818   C     0.64092   0.39102   0.79124   0.00000  Uiso   1.00
C819   C     0.85908   0.10898   0.87542   0.00000  Uiso   1.00
C820   C     0.85908   0.10898   0.79124   0.00000  Uiso   1.00
C821   C     0.64092   0.39102   0.87542   0.00000  Uiso   1.00
C822   C     0.85908   0.39102   0.87542   0.00000  Uiso   1.00
C823   C     0.94059   0.19060   0.83333   0.00000  Uiso   1.00
C824   C     0.64092   0.10898   0.79124   0.00000  Uiso   1.00
C825   C     0.64092   0.10898   0.87542   0.00000  Uiso   1.00
C826   C     0.85908   0.39102   0.79124   0.00000  Uiso   1.00
C827   C     0.59295   0.34287   0.83333   0.00000  Uiso   1.00
C828   C     0.90705   0.15713   0.83333   0.00000  Uiso   1.00
C829   C     0.90705   0.34287   0.83333   0.00000  Uiso   1.00
C830   C     0.59295   0.15713   0.83333   0.00000  Uiso   1.00
C831   C     0.84295   0.09287   0.83333   0.00000  Uiso   1.00
C832   C     0.65705   0.40713   0.83333   0.00000  Uiso   1.00
C833   C     0.65705   0.09287   0.83333   0.00000  Uiso   1.00
C834   C     0.55941   0.30940   0.83333   0.00000  Uiso   1.00
C835   C     0.84295   0.40713   0.83333   0.00000  Uiso   1.00
C836   C     0.80941   0.44060   0.83333   0.00000  Uiso   1.00
C837   C     0.69059   0.05940   0.83333   0.00000  Uiso   1.00
C838   C     0.69059   0.44060   0.83333   0.00000  Uiso   1.00
C839   C     0.80941   0.05940   0.83333   0.00000  Uiso   1.00
C840   C     0.50000   0.21065   0.69134   0.00000  Uiso   1.00
Cu841  Cu    0.50000   0.25000   0.88022   0.00000  Uiso   1.00
Cu842  Cu    0.50000   0.25000   0.78645   0.00000  Uiso   1.00
Cu843  Cu    0.75000   0.00000   0.88022   0.00000  Uiso   1.00
Cu844  Cu    0.75000   0.00000   0.78645   0.00000  Uiso   1.00
H845   H     0.90281   0.15308   0.75831   0.00000  Uiso   1.00
H846   H     0.84719   0.09692   0.90836   0.00000  Uiso   1.00
H847   H     0.84719   0.09692   0.75831   0.00000  Uiso   1.00
H848   H     0.65281   0.40308   0.90836   0.00000  Uiso   1.00
H849   H     0.84719   0.40308   0.90836   0.00000  Uiso   1.00
H850   H     0.65281   0.09692   0.75831   0.00000  Uiso   1.00
H851   H     0.65281   0.09692   0.90836   0.00000  Uiso   1.00
H852   H     0.84719   0.40308   0.75831   0.00000  Uiso   1.00
H853   H     0.59719   0.34692   0.90836   0.00000  Uiso   1.00
H854   H     0.59719   0.34692   0.75831   0.00000  Uiso   1.00
H855   H     0.90281   0.15308   0.90836   0.00000  Uiso   1.00
H856   H     0.59719   0.15308   0.90836   0.00000  Uiso   1.00
H857   H     0.90281   0.34692   0.75831   0.00000  Uiso   1.00
H858   H     0.90281   0.34692   0.90836   0.00000  Uiso   1.00
H859   H     0.59719   0.15308   0.75831   0.00000  Uiso   1.00
H860   H     0.65281   0.40308   0.75831   0.00000  Uiso   1.00
N861   N     0.50000   0.25000   0.95069   0.00000  Uiso   1.00
N862   N     0.50000   0.25000   0.71598   0.00000  Uiso   1.00
N863   N     0.75000   0.00000   0.95069   0.00000  Uiso   1.00
N864   N     0.75000   0.00000   0.71598   0.00000  Uiso   1.00
O865   O     0.54508   0.20491   0.87291   0.00000  Uiso   1.00
O866   O     0.70491   0.04509   0.79375   0.00000  Uiso   1.00
O867   O     0.70491   0.04509   0.87291   0.00000  Uiso   1.00
O868   O     0.79508   0.45491   0.79375   0.00000  Uiso   1.00
O869   O     0.70491   0.45491   0.79375   0.00000  Uiso   1.00
O870   O     0.79508   0.04509   0.87291   0.00000  Uiso   1.00
O871   O     0.79508   0.04509   0.79375   0.00000  Uiso   1.00
O872   O     0.70491   0.45491   0.87291   0.00000  Uiso   1.00
O873   O     0.95491   0.29509   0.79375   0.00000  Uiso   1.00
O874   O     0.95491   0.29509   0.87291   0.00000  Uiso   1.00
O875   O     0.54508   0.20491   0.79375   0.00000  Uiso   1.00
O876   O     0.95491   0.20491   0.79375   0.00000  Uiso   1.00
O877   O     0.54508   0.29509   0.87291   0.00000  Uiso   1.00
O878   O     0.54508   0.29509   0.79375   0.00000  Uiso   1.00
O879   O     0.95491   0.20491   0.87291   0.00000  Uiso   1.00
O880   O     0.79508   0.45491   0.87291   0.00000  Uiso   1.00
Br881  Br    0.00000   0.65386   0.72280   0.00000  Uiso   1.00
Br882  Br   -0.00000   0.84614   0.94387   0.00000  Uiso   1.00
Br883  Br    0.00000   0.84614   0.72280   0.00000  Uiso   1.00
Br884  Br    0.00000   0.65386   0.94387   0.00000  Uiso   1.00
Br885  Br    0.25000   0.90386   0.72280   0.00000  Uiso   1.00
Br886  Br    0.25000   0.59614   0.94387   0.00000  Uiso   1.00
Br887  Br    0.25000   0.59614   0.72280   0.00000  Uiso   1.00
Br888  Br    0.25000   0.90386   0.94387   0.00000  Uiso   1.00
C889   C     0.05941   0.69060   0.83333   0.00000  Uiso   1.00
C890   C    -0.00000   0.78935   0.97533   0.00000  Uiso   1.00
C891   C    -0.00000   0.78935   0.69134   0.00000  Uiso   1.00
C892   C    -0.00000   0.71065   0.97533   0.00000  Uiso   1.00
C893   C     0.25000   0.96065   0.69134   0.00000  Uiso   1.00
C894   C     0.25000   0.53935   0.97533   0.00000  Uiso   1.00
C895   C     0.25000   0.53935   0.69134   0.00000  Uiso   1.00
C896   C     0.25000   0.96065   0.97533   0.00000  Uiso   1.00
C897   C     0.39092   0.64102   0.79124   0.00000  Uiso   1.00
C898   C     0.10908   0.85898   0.87542   0.00000  Uiso   1.00
C899   C     0.10908   0.85898   0.79124   0.00000  Uiso   1.00
C900   C     0.44059   0.80940   0.83333   0.00000  Uiso   1.00
C901   C     0.39092   0.64102   0.87542   0.00000  Uiso   1.00
C902   C     0.10908   0.64102   0.87542   0.00000  Uiso   1.00
C903   C     0.39092   0.85898   0.79124   0.00000  Uiso   1.00
C904   C     0.39092   0.85898   0.87542   0.00000  Uiso   1.00
C905   C     0.10908   0.64102   0.79124   0.00000  Uiso   1.00
C906   C     0.14092   0.89102   0.79124   0.00000  Uiso   1.00
C907   C     0.35908   0.60898   0.87542   0.00000  Uiso   1.00
C908   C     0.35908   0.60898   0.79124   0.00000  Uiso   1.00
C909   C     0.14092   0.89102   0.87542   0.00000  Uiso   1.00
C910   C     0.35908   0.89102   0.87542   0.00000  Uiso   1.00
C911   C     0.44059   0.69060   0.83333   0.00000  Uiso   1.00
C912   C     0.14092   0.60898   0.79124   0.00000  Uiso   1.00
C913   C     0.14092   0.60898   0.87542   0.00000  Uiso   1.00
C914   C     0.35908   0.89102   0.79124   0.00000  Uiso   1.00
C915   C     0.09295   0.84287   0.83333   0.00000  Uiso   1.00
C916   C     0.40705   0.65713   0.83333   0.00000  Uiso   1.00
C917   C     0.40705   0.84287   0.83333   0.00000  Uiso   1.00
C918   C     0.09295   0.65713   0.83333   0.00000  Uiso   1.00
C919   C     0.34295   0.59287   0.83333   0.00000  Uiso   1.00
C920   C     0.15705   0.90713   0.83333   0.00000  Uiso   1.00
C921   C     0.15705   0.59287   0.83333   0.00000  Uiso   1.00
C922   C     0.05941   0.80940   0.83333   0.00000  Uiso   1.00
C923   C     0.34295   0.90713   0.83333   0.00000  Uiso   1.00
C924   C     0.30941   0.94060   0.83333   0.00000  Uiso   1.00
C925   C     0.19059   0.55940   0.83333   0.00000  Uiso   1.00
C926   C     0.19059   0.94060   0.83333   0.00000  Uiso   1.00
C927   C     0.30941   0.55940   0.83333   0.00000  Uiso   1.00
C928   C     0.00000   0.71065   0.69134   0.00000  Uiso   1.00
Cu929  Cu    0.00000   0.75000   0.88022   0.00000  Uiso   1.00
Cu930  Cu    0.00000   0.75000   0.78645   0.00000  Uiso   1.00
Cu931  Cu    0.25000   0.50000   0.88022   0.00000  Uiso   1.00
Cu932  Cu    0.25000   0.50000   0.78645   0.00000  Uiso   1.00
H933   H     0.40281   0.65308   0.75831   0.00000  Uiso   1.00
H934   H     0.34719   0.59692   0.90836   0.00000  Uiso   1.00
H935   H     0.34719   0.59692   0.75831   0.00000  Uiso   1.00
H936   H     0.15281   0.90308   0.90836   0.00000  Uiso   1.00
H937   H     0.34719   0.90308   0.90836   0.00000  Uiso   1.00
H938   H     0.15281   0.59692   0.75831   0.00000  Uiso   1.00
H939   H     0.15281   0.59692   0.90836   0.00000  Uiso   1.00
H940   H     0.34719   0.90308   0.75831   0.00000  Uiso   1.00
H941   H     0.09719   0.84692   0.90836   0.00000  Uiso   1.00
H942   H     0.09719   0.84692   0.75831   0.00000  Uiso   1.00
H943   H     0.40281   0.65308   0.90836   0.00000  Uiso   1.00
H944   H     0.09719   0.65308   0.90836   0.00000  Uiso   1.00
H945   H     0.40281   0.84692   0.75831   0.00000  Uiso   1.00
H946   H     0.40281   0.84692   0.90836   0.00000  Uiso   1.00
H947   H     0.09719   0.65308   0.75831   0.00000  Uiso   1.00
H948   H     0.15281   0.90308   0.75831   0.00000  Uiso   1.00
N949   N    -0.00000   0.75000   0.95069   0.00000  Uiso   1.00
N950   N     0.00000   0.75000   0.71598   0.00000  Uiso   1.00
N951   N     0.25000   0.50000   0.95069   0.00000  Uiso   1.00
N952   N     0.25000   0.50000   0.71598   0.00000  Uiso   1.00
O953   O     0.04508   0.70491   0.87291   0.00000  Uiso   1.00
O954   O     0.20491   0.54509   0.79375   0.00000  Uiso   1.00
O955   O     0.20491   0.54509   0.87291   0.00000  Uiso   1.00
O956   O     0.29508   0.95491   0.79375   0.00000  Uiso   1.00
O957   O     0.20491   0.95491   0.79375   0.00000  Uiso   1.00
O958   O     0.29508   0.54509   0.87291   0.00000  Uiso   1.00
O959   O     0.29508   0.54509   0.79375   0.00000  Uiso   1.00
O960   O     0.20491   0.95491   0.87291   0.00000  Uiso   1.00
O961   O     0.45491   0.79509   0.79375   0.00000  Uiso   1.00
O962   O     0.45491   0.79509   0.87291   0.00000  Uiso   1.00
O963   O     0.04508   0.70491   0.79375   0.00000  Uiso   1.00
O964   O     0.45491   0.70491   0.79375   0.00000  Uiso   1.00
O965   O     0.04508   0.79509   0.87291   0.00000  Uiso   1.00
O966   O     0.04508   0.79509   0.79375   0.00000  Uiso   1.00
O967   O     0.45491   0.70491   0.87291   0.00000  Uiso   1.00
O968   O     0.29508   0.95491   0.87291   0.00000  Uiso   1.00
Br969  Br    0.50000   0.65386   0.72280   0.00000  Uiso   1.00
Br970  Br    0.50000   0.84614   0.94387   0.00000  Uiso   1.00
Br971  Br    0.50000   0.84614   0.72280   0.00000  Uiso   1.00
Br972  Br    0.50000   0.65386   0.94387   0.00000  Uiso   1.00
Br973  Br    0.75000   0.90386   0.72280   0.00000  Uiso   1.00
Br974  Br    0.75000   0.59614   0.94387   0.00000  Uiso   1.00
Br975  Br    0.75000   0.59614   0.72280   0.00000  Uiso   1.00
Br976  Br    0.75000   0.90386   0.94387   0.00000  Uiso   1.00
C977   C     0.55941   0.69060   0.83333   0.00000  Uiso   1.00
C978   C     0.50000   0.78935   0.97533   0.00000  Uiso   1.00
C979   C     0.50000   0.78935   0.69134   0.00000  Uiso   1.00
C980   C     0.50000   0.71065   0.97533   0.00000  Uiso   1.00
C981   C     0.75000   0.96065   0.69134   0.00000  Uiso   1.00
C982   C     0.75000   0.53935   0.97533   0.00000  Uiso   1.00
C983   C     0.75000   0.53935   0.69134   0.00000  Uiso   1.00
C984   C     0.75000   0.96065   0.97533   0.00000  Uiso   1.00
C985   C     0.89092   0.64102   0.79124   0.00000  Uiso   1.00
C986   C     0.60908   0.85898   0.87542   0.00000  Uiso   1.00
C987   C     0.60908   0.85898   0.79124   0.00000  Uiso   1.00
C988   C     0.94059   0.80940   0.83333   0.00000  Uiso   1.00
C989   C     0.89092   0.64102   0.87542   0.00000  Uiso   1.00
C990   C     0.60908   0.64102   0.87542   0.00000  Uiso   1.00
C991   C     0.89092   0.85898   0.79124   0.00000  Uiso   1.00
C992   C     0.89092   0.85898   0.87542   0.00000  Uiso   1.00
C993   C     0.60908   0.64102   0.79124   0.00000  Uiso   1.00
C994   C     0.64092   0.89102   0.79124   0.00000  Uiso   1.00
C995   C     0.85908   0.60898   0.87542   0.00000  Uiso   1.00
C996   C     0.85908   0.60898   0.79124   0.00000  Uiso   1.00
C997   C     0.64092   0.89102   0.87542   0.00000  Uiso   1.00
C998   C     0.85908   0.89102   0.87542   0.00000  Uiso   1.00
C999   C     0.94059   0.69060   0.83333   0.00000  Uiso   1.00
C1000  C     0.64092   0.60898   0.79124   0.00000  Uiso   1.00
C1001  C     0.64092   0.60898   0.87542   0.00000  Uiso   1.00
C1002  C     0.85908   0.89102   0.79124   0.00000  Uiso   1.00
C1003  C     0.59295   0.84287   0.83333   0.00000  Uiso   1.00
C1004  C     0.90705   0.65713   0.83333   0.00000  Uiso   1.00
C1005  C     0.90705   0.84287   0.83333   0.00000  Uiso   1.00
C1006  C     0.59295   0.65713   0.83333   0.00000  Uiso   1.00
C1007  C     0.84295   0.59287   0.83333   0.00000  Uiso   1.00
C1008  C     0.65705   0.90713   0.83333   0.00000  Uiso   1.00
C1009  C     0.65705   0.59287   0.83333   0.00000  Uiso   1.00
C1010  C     0.55941   0.80940   0.83333   0.00000  Uiso   1.00
C1011  C     0.84295   0.90713   0.83333   0.00000  Uiso   1.00
C1012  C     0.80941   0.94060   0.83333   0.00000  Uiso   1.00
C1013  C     0.69059   0.55940   0.83333   0.00000  Uiso   1.00
C1014  C     0.69059   0.94060   0.83333   0.00000  Uiso   1.00
C1015  C     0.80941   0.55940   0.83333   0.00000  Uiso   1.00
C1016  C     0.50000   0.71065   0.69134   0.00000  Uiso   1.00
Cu1017 Cu    0.50000   0.75000   0.88022   0.00000  Uiso   1.00
Cu1018 Cu    0.50000   0.75000   0.78645   0.00000  Uiso   1.00
Cu1019 Cu    0.75000   0.50000   0.88022   0.00000  Uiso   1.00
Cu1020 Cu    0.75000   0.50000   0.78645   0.00000  Uiso   1.00
H1021  H     0.90281   0.65308   0.75831   0.00000  Uiso   1.00
H1022  H     0.84719   0.59692   0.90836   0.00000  Uiso   1.00
H1023  H     0.84719   0.59692   0.75831   0.00000  Uiso   1.00
H1024  H     0.65281   0.90308   0.90836   0.00000  Uiso   1.00
H1025  H     0.84719   0.90308   0.90836   0.00000  Uiso   1.00
H1026  H     0.65281   0.59692   0.75831   0.00000  Uiso   1.00
H1027  H     0.65281   0.59692   0.90836   0.00000  Uiso   1.00
H1028  H     0.84719   0.90308   0.75831   0.00000  Uiso   1.00
H1029  H     0.59719   0.84692   0.90836   0.00000  Uiso   1.00
H1030  H     0.59719   0.84692   0.75831   0.00000  Uiso   1.00
H1031  H     0.90281   0.65308   0.90836   0.00000  Uiso   1.00
H1032  H     0.59719   0.65308   0.90836   0.00000  Uiso   1.00
H1033  H     0.90281   0.84692   0.75831   0.00000  Uiso   1.00
H1034  H     0.90281   0.84692   0.90836   0.00000  Uiso   1.00
H1035  H     0.59719   0.65308   0.75831   0.00000  Uiso   1.00
H1036  H     0.65281   0.90308   0.75831   0.00000  Uiso   1.00
N1037  N     0.50000   0.75000   0.95069   0.00000  Uiso   1.00
N1038  N     0.50000   0.75000   0.71598   0.00000  Uiso   1.00
N1039  N     0.75000   0.50000   0.95069   0.00000  Uiso   1.00
N1040  N     0.75000   0.50000   0.71598   0.00000  Uiso   1.00
O1041  O     0.54508   0.70491   0.87291   0.00000  Uiso   1.00
O1042  O     0.70491   0.54509   0.79375   0.00000  Uiso   1.00
O1043  O     0.70491   0.54509   0.87291   0.00000  Uiso   1.00
O1044  O     0.79508   0.95491   0.79375   0.00000  Uiso   1.00
O1045  O     0.70491   0.95491   0.79375   0.00000  Uiso   1.00
O1046  O     0.79508   0.54509   0.87291   0.00000  Uiso   1.00
O1047  O     0.79508   0.54509   0.79375   0.00000  Uiso   1.00
O1048  O     0.70491   0.95491   0.87291   0.00000  Uiso   1.00
O1049  O     0.95491   0.79509   0.79375   0.00000  Uiso   1.00
O1050  O     0.95491   0.79509   0.87291   0.00000  Uiso   1.00
O1051  O     0.54508   0.70491   0.79375   0.00000  Uiso   1.00
O1052  O     0.95491   0.70491   0.79375   0.00000  Uiso   1.00
O1053  O     0.54508   0.79509   0.87291   0.00000  Uiso   1.00
O1054  O     0.54508   0.79509   0.79375   0.00000  Uiso   1.00
O1055  O     0.95491   0.70491   0.87291   0.00000  Uiso   1.00
O1056  O     0.79508   0.95491   0.87291   0.00000  Uiso   1.00
loop_
_geom_bond_atom_site_label_1
_geom_bond_atom_site_label_2
_geom_bond_distance
_geom_bond_site_symmetry_2
_ccdc_geom_bond_type
Br1    C48     1.927   .     S
Br2    C10     1.927   .     S
Br3    C11     1.927   .     S
Br4    C12     1.927   .     S
Br5    C13     1.927   .     S
Br6    C14     1.927   .     S
Br7    C15     1.927   .     S
Br8    C16     1.927   .     S
C9     O73     1.300   .     A
C9     O83     1.300   .     A
C9     C38     1.451   .     S
C10    N69     1.376   .     A
C10    C363    1.424   .     S
C11    C714    1.424   1_554 S
C11    N70     1.376   .     S
C12    N69     1.376   .     A
C12    C400    1.424   .     S
C13    C720    1.424   1_554 S
C13    N248    1.376   .     S
C14    N71     1.376   .     A
C14    C367    1.424   .     S
C15    N72     1.376   .     A
C15    C718    1.424   1_554 S
C16    C365    1.424   .     S
C16    N247    1.376   .     S
C17    C36     1.401   .     A
C17    H53     1.083   .     S
C17    C28     1.383   .     A
C18    C35     1.401   .     A
C18    C29     1.383   .     A
C18    H61     1.083   .     S
C19    H62     1.083   .     S
C19    C26     1.383   .     A
C19    C35     1.401   .     A
C20    O82     1.300   .     A
C20    O81     1.300   .     A
C20    C37     1.451   .     S
C21    C36     1.401   .     A
C21    C27     1.383   .     A
C21    H63     1.083   .     S
C22    C38     1.401   .     A
C22    C33     1.383   .     A
C22    H64     1.083   .     S
C23    C37     1.401   .     A
C23    C34     1.383   .     A
C23    H65     1.083   .     S
C24    H66     1.083   .     S
C24    C37     1.401   .     A
C24    C30     1.383   .     A
C25    H67     1.083   .     S
C25    C32     1.383   .     A
C25    C38     1.401   .     A
C26    H68     1.083   .     S
C26    C40     1.401   .     A
C27    H54     1.083   .     S
C27    C39     1.401   .     A
C28    H55     1.083   .     S
C28    C39     1.401   .     A
C29    H56     1.083   .     S
C29    C40     1.401   .     A
C30    H57     1.083   .     S
C30    C43     1.401   .     A
C31    O87     1.300   .     A
C31    O84     1.300   .     A
C31    C36     1.451   .     S
C32    H58     1.083   .     S
C32    C41     1.401   .     A
C33    C41     1.401   .     A
C33    H59     1.083   .     S
C34    H60     1.083   .     S
C34    C43     1.401   .     A
C35    C42     1.451   .     S
C39    C47     1.451   .     S
C40    C46     1.451   .     S
C41    C45     1.451   .     S
C42    O86     1.300   .     A
C42    O85     1.300   .     A
C43    C44     1.451   .     S
C44    O76     1.300   .     A
C44    O88     1.300   .     A
C45    O74     1.300   .     A
C45    O75     1.300   .     A
C46    O77     1.300   .     A
C46    O80     1.300   .     A
C47    O79     1.300   .     A
C47    O78     1.300   .     A
C48    N70     1.376   .     A
C48    C716    1.424   1_554 S
Cu49   O85     1.964   .     S
Cu49   O73     1.964   .     S
Cu49   Cu50    2.707   .     S
Cu49   N69     2.034   .     S
Cu49   O170    1.964   1_455 S
Cu49   O175    1.964   1_455 S
Cu50   O83     1.964   .     S
Cu50   N70     2.034   .     S
Cu50   O86     1.964   .     S
Cu50   O169    1.964   1_455 S
Cu50   O172    1.964   1_455 S
Cu51   O75     1.964   .     S
Cu51   N71     2.034   .     S
Cu51   Cu52    2.707   .     S
Cu51   O78     1.964   .     S
Cu51   O256    1.964   1_545 S
Cu51   O264    1.964   1_545 S
Cu52   O74     1.964   .     S
Cu52   O79     1.964   .     S
Cu52   N72     2.034   .     S
Cu52   O252    1.964   1_545 S
Cu52   O253    1.964   1_545 S
N71    C192    1.376   1_545 S
N72    C189    1.376   1_545 S
O76    Cu228   1.964   .     S
O77    Cu228   1.964   .     S
O80    Cu227   1.964   .     S
O81    Cu138   1.964   .     S
O82    Cu137   1.964   .     S
O84    Cu138   1.964   .     S
O87    Cu137   1.964   .     S
O88    Cu227   1.964   .     S
Br89   C136    1.927   .     S
Br90   C98     1.927   .     S
Br91   C99     1.927   .     S
Br92   C100    1.927   .     S
Br93   C101    1.927   .     S
Br94   C102    1.927   .     S
Br95   C103    1.927   .     S
Br96   C104    1.927   .     S
C97    O161    1.300   .     A
C97    O171    1.300   .     A
C97    C126    1.451   .     S
C98    N157    1.376   .     A
C98    C451    1.424   .     S
C99    C802    1.424   1_554 S
C99    N158    1.376   .     S
C100   N157    1.376   .     A
C100   C488    1.424   .     S
C101   C808    1.424   1_554 S
C101   N336    1.376   .     S
C102   N159    1.376   .     A
C102   C455    1.424   .     S
C103   N160    1.376   .     A
C103   C806    1.424   1_554 S
C104   C453    1.424   .     S
C104   N335    1.376   .     S
C105   C124    1.401   .     A
C105   H141    1.083   .     S
C105   C116    1.383   .     A
C106   C123    1.401   .     A
C106   C117    1.383   .     A
C106   H149    1.083   .     S
C107   H150    1.083   .     S
C107   C114    1.383   .     A
C107   C123    1.401   .     A
C108   O170    1.300   .     A
C108   O169    1.300   .     A
C108   C125    1.451   .     S
C109   C124    1.401   .     A
C109   C115    1.383   .     A
C109   H151    1.083   .     S
C110   C126    1.401   .     A
C110   C121    1.383   .     A
C110   H152    1.083   .     S
C111   C125    1.401   .     A
C111   C122    1.383   .     A
C111   H153    1.083   .     S
C112   H154    1.083   .     S
C112   C125    1.401   .     A
C112   C118    1.383   .     A
C113   H155    1.083   .     S
C113   C120    1.383   .     A
C113   C126    1.401   .     A
C114   H156    1.083   .     S
C114   C128    1.401   .     A
C115   H142    1.083   .     S
C115   C127    1.401   .     A
C116   H143    1.083   .     S
C116   C127    1.401   .     A
C117   H144    1.083   .     S
C117   C128    1.401   .     A
C118   H145    1.083   .     S
C118   C131    1.401   .     A
C119   O175    1.300   .     A
C119   O172    1.300   .     A
C119   C124    1.451   .     S
C120   H146    1.083   .     S
C120   C129    1.401   .     A
C121   C129    1.401   .     A
C121   H147    1.083   .     S
C122   H148    1.083   .     S
C122   C131    1.401   .     A
C123   C130    1.451   .     S
C127   C135    1.451   .     S
C128   C134    1.451   .     S
C129   C133    1.451   .     S
C130   O174    1.300   .     A
C130   O173    1.300   .     A
C131   C132    1.451   .     S
C132   O164    1.300   .     A
C132   O176    1.300   .     A
C133   O162    1.300   .     A
C133   O163    1.300   .     A
C134   O165    1.300   .     A
C134   O168    1.300   .     A
C135   O167    1.300   .     A
C135   O166    1.300   .     A
C136   N158    1.376   .     A
C136   C804    1.424   1_554 S
Cu137  O173    1.964   .     S
Cu137  O161    1.964   .     S
Cu137  Cu138   2.707   .     S
Cu137  N157    2.034   .     S
Cu138  O171    1.964   .     S
Cu138  N158    2.034   .     S
Cu138  O174    1.964   .     S
Cu139  O163    1.964   .     S
Cu139  N159    2.034   .     S
Cu139  Cu140   2.707   .     S
Cu139  O166    1.964   .     S
Cu139  O344    1.964   1_545 S
Cu139  O352    1.964   1_545 S
Cu140  O162    1.964   .     S
Cu140  O167    1.964   .     S
Cu140  N160    2.034   .     S
Cu140  O340    1.964   1_545 S
Cu140  O341    1.964   1_545 S
N159   C280    1.376   1_545 S
N160   C277    1.376   1_545 S
O164   Cu316   1.964   .     S
O165   Cu316   1.964   .     S
O168   Cu315   1.964   .     S
O169   Cu50    1.964   1_655 S
O170   Cu49    1.964   1_655 S
O172   Cu50    1.964   1_655 S
O175   Cu49    1.964   1_655 S
O176   Cu315   1.964   .     S
Br177  C224    1.927   .     S
Br178  C186    1.927   .     S
Br179  C187    1.927   .     S
Br180  C188    1.927   .     S
Br181  C189    1.927   .     S
Br182  C190    1.927   .     S
Br183  C191    1.927   .     S
Br184  C192    1.927   .     S
C185   O249    1.300   .     A
C185   O259    1.300   .     A
C185   C214    1.451   .     S
C186   N245    1.376   .     A
C186   C539    1.424   .     S
C187   C890    1.424   1_554 S
C187   N246    1.376   .     S
C188   N245    1.376   .     A
C188   C576    1.424   .     S
C189   C896    1.424   1_554 S
C189   N72     1.376   1_565 S
C190   N247    1.376   .     A
C190   C543    1.424   .     S
C191   N248    1.376   .     A
C191   C894    1.424   1_554 S
C192   C541    1.424   .     S
C192   N71     1.376   1_565 S
C193   C212    1.401   .     A
C193   H229    1.083   .     S
C193   C204    1.383   .     A
C194   C211    1.401   .     A
C194   C205    1.383   .     A
C194   H237    1.083   .     S
C195   H238    1.083   .     S
C195   C202    1.383   .     A
C195   C211    1.401   .     A
C196   O258    1.300   .     A
C196   O257    1.300   .     A
C196   C213    1.451   .     S
C197   C212    1.401   .     A
C197   C203    1.383   .     A
C197   H239    1.083   .     S
C198   C214    1.401   .     A
C198   C209    1.383   .     A
C198   H240    1.083   .     S
C199   C213    1.401   .     A
C199   C210    1.383   .     A
C199   H241    1.083   .     S
C200   H242    1.083   .     S
C200   C213    1.401   .     A
C200   C206    1.383   .     A
C201   H243    1.083   .     S
C201   C208    1.383   .     A
C201   C214    1.401   .     A
C202   H244    1.083   .     S
C202   C216    1.401   .     A
C203   H230    1.083   .     S
C203   C215    1.401   .     A
C204   H231    1.083   .     S
C204   C215    1.401   .     A
C205   H232    1.083   .     S
C205   C216    1.401   .     A
C206   H233    1.083   .     S
C206   C219    1.401   .     A
C207   O263    1.300   .     A
C207   O260    1.300   .     A
C207   C212    1.451   .     S
C208   H234    1.083   .     S
C208   C217    1.401   .     A
C209   C217    1.401   .     A
C209   H235    1.083   .     S
C210   H236    1.083   .     S
C210   C219    1.401   .     A
C211   C218    1.451   .     S
C215   C223    1.451   .     S
C216   C222    1.451   .     S
C217   C221    1.451   .     S
C218   O262    1.300   .     A
C218   O261    1.300   .     A
C219   C220    1.451   .     S
C220   O252    1.300   .     A
C220   O264    1.300   .     A
C221   O250    1.300   .     A
C221   O251    1.300   .     A
C222   O253    1.300   .     A
C222   O256    1.300   .     A
C223   O255    1.300   .     A
C223   O254    1.300   .     A
C224   N246    1.376   .     A
C224   C892    1.424   1_554 S
Cu225  O261    1.964   .     S
Cu225  O249    1.964   .     S
Cu225  Cu226   2.707   .     S
Cu225  N245    2.034   .     S
Cu225  O346    1.964   1_455 S
Cu225  O351    1.964   1_455 S
Cu226  O259    1.964   .     S
Cu226  N246    2.034   .     S
Cu226  O262    1.964   .     S
Cu226  O345    1.964   1_455 S
Cu226  O348    1.964   1_455 S
Cu227  O251    1.964   .     S
Cu227  N247    2.034   .     S
Cu227  Cu228   2.707   .     S
Cu227  O254    1.964   .     S
Cu228  O250    1.964   .     S
Cu228  O255    1.964   .     S
Cu228  N248    2.034   .     S
O252   Cu52    1.964   1_565 S
O253   Cu52    1.964   1_565 S
O256   Cu51    1.964   1_565 S
O257   Cu314   1.964   .     S
O258   Cu313   1.964   .     S
O260   Cu314   1.964   .     S
O263   Cu313   1.964   .     S
O264   Cu51    1.964   1_565 S
Br265  C312    1.927   .     S
Br266  C274    1.927   .     S
Br267  C275    1.927   .     S
Br268  C276    1.927   .     S
Br269  C277    1.927   .     S
Br270  C278    1.927   .     S
Br271  C279    1.927   .     S
Br272  C280    1.927   .     S
C273   O337    1.300   .     A
C273   O347    1.300   .     A
C273   C302    1.451   .     S
C274   N333    1.376   .     A
C274   C627    1.424   .     S
C275   C978    1.424   1_554 S
C275   N334    1.376   .     S
C276   N333    1.376   .     A
C276   C664    1.424   .     S
C277   C984    1.424   1_554 S
C277   N160    1.376   1_565 S
C278   N335    1.376   .     A
C278   C631    1.424   .     S
C279   N336    1.376   .     A
C279   C982    1.424   1_554 S
C280   C629    1.424   .     S
C280   N159    1.376   1_565 S
C281   C300    1.401   .     A
C281   H317    1.083   .     S
C281   C292    1.383   .     A
C282   C299    1.401   .     A
C282   C293    1.383   .     A
C282   H325    1.083   .     S
C283   H326    1.083   .     S
C283   C290    1.383   .     A
C283   C299    1.401   .     A
C284   O346    1.300   .     A
C284   O345    1.300   .     A
C284   C301    1.451   .     S
C285   C300    1.401   .     A
C285   C291    1.383   .     A
C285   H327    1.083   .     S
C286   C302    1.401   .     A
C286   C297    1.383   .     A
C286   H328    1.083   .     S
C287   C301    1.401   .     A
C287   C298    1.383   .     A
C287   H329    1.083   .     S
C288   H330    1.083   .     S
C288   C301    1.401   .     A
C288   C294    1.383   .     A
C289   H331    1.083   .     S
C289   C296    1.383   .     A
C289   C302    1.401   .     A
C290   H332    1.083   .     S
C290   C304    1.401   .     A
C291   H318    1.083   .     S
C291   C303    1.401   .     A
C292   H319    1.083   .     S
C292   C303    1.401   .     A
C293   H320    1.083   .     S
C293   C304    1.401   .     A
C294   H321    1.083   .     S
C294   C307    1.401   .     A
C295   O351    1.300   .     A
C295   O348    1.300   .     A
C295   C300    1.451   .     S
C296   H322    1.083   .     S
C296   C305    1.401   .     A
C297   C305    1.401   .     A
C297   H323    1.083   .     S
C298   H324    1.083   .     S
C298   C307    1.401   .     A
C299   C306    1.451   .     S
C303   C311    1.451   .     S
C304   C310    1.451   .     S
C305   C309    1.451   .     S
C306   O350    1.300   .     A
C306   O349    1.300   .     A
C307   C308    1.451   .     S
C308   O340    1.300   .     A
C308   O352    1.300   .     A
C309   O338    1.300   .     A
C309   O339    1.300   .     A
C310   O341    1.300   .     A
C310   O344    1.300   .     A
C311   O343    1.300   .     A
C311   O342    1.300   .     A
C312   N334    1.376   .     A
C312   C980    1.424   1_554 S
Cu313  O349    1.964   .     S
Cu313  O337    1.964   .     S
Cu313  Cu314   2.707   .     S
Cu313  N333    2.034   .     S
Cu314  O347    1.964   .     S
Cu314  N334    2.034   .     S
Cu314  O350    1.964   .     S
Cu315  O339    1.964   .     S
Cu315  N335    2.034   .     S
Cu315  Cu316   2.707   .     S
Cu315  O342    1.964   .     S
Cu316  O338    1.964   .     S
Cu316  O343    1.964   .     S
Cu316  N336    2.034   .     S
O340   Cu140   1.964   1_565 S
O341   Cu140   1.964   1_565 S
O344   Cu139   1.964   1_565 S
O345   Cu226   1.964   1_655 S
O346   Cu225   1.964   1_655 S
O348   Cu226   1.964   1_655 S
O351   Cu225   1.964   1_655 S
O352   Cu139   1.964   1_565 S
Br353  C400    1.927   .     S
Br354  C362    1.927   .     S
Br355  C363    1.927   .     S
Br356  C364    1.927   .     S
Br357  C365    1.927   .     S
Br358  C366    1.927   .     S
Br359  C367    1.927   .     S
Br360  C368    1.927   .     S
C361   O425    1.300   .     A
C361   O435    1.300   .     A
C361   C390    1.451   .     S
C362   N421    1.376   .     A
C362   C715    1.424   .     S
C363   N422    1.376   .     S
C364   N421    1.376   .     A
C364   C752    1.424   .     S
C365   N600    1.376   .     S
C366   N423    1.376   .     A
C366   C719    1.424   .     S
C367   N424    1.376   .     A
C368   C717    1.424   .     S
C368   N599    1.376   .     S
C369   C388    1.401   .     A
C369   H405    1.083   .     S
C369   C380    1.383   .     A
C370   C387    1.401   .     A
C370   C381    1.383   .     A
C370   H413    1.083   .     S
C371   H414    1.083   .     S
C371   C378    1.383   .     A
C371   C387    1.401   .     A
C372   O434    1.300   .     A
C372   O433    1.300   .     A
C372   C389    1.451   .     S
C373   C388    1.401   .     A
C373   C379    1.383   .     A
C373   H415    1.083   .     S
C374   C390    1.401   .     A
C374   C385    1.383   .     A
C374   H416    1.083   .     S
C375   C389    1.401   .     A
C375   C386    1.383   .     A
C375   H417    1.083   .     S
C376   H418    1.083   .     S
C376   C389    1.401   .     A
C376   C382    1.383   .     A
C377   H419    1.083   .     S
C377   C384    1.383   .     A
C377   C390    1.401   .     A
C378   H420    1.083   .     S
C378   C392    1.401   .     A
C379   H406    1.083   .     S
C379   C391    1.401   .     A
C380   H407    1.083   .     S
C380   C391    1.401   .     A
C381   H408    1.083   .     S
C381   C392    1.401   .     A
C382   H409    1.083   .     S
C382   C395    1.401   .     A
C383   O439    1.300   .     A
C383   O436    1.300   .     A
C383   C388    1.451   .     S
C384   H410    1.083   .     S
C384   C393    1.401   .     A
C385   C393    1.401   .     A
C385   H411    1.083   .     S
C386   H412    1.083   .     S
C386   C395    1.401   .     A
C387   C394    1.451   .     S
C391   C399    1.451   .     S
C392   C398    1.451   .     S
C393   C397    1.451   .     S
C394   O438    1.300   .     A
C394   O437    1.300   .     A
C395   C396    1.451   .     S
C396   O428    1.300   .     A
C396   O440    1.300   .     A
C397   O426    1.300   .     A
C397   O427    1.300   .     A
C398   O429    1.300   .     A
C398   O432    1.300   .     A
C399   O431    1.300   .     A
C399   O430    1.300   .     A
C400   N422    1.376   .     A
Cu401  O437    1.964   .     S
Cu401  O425    1.964   .     S
Cu401  Cu402   2.707   .     S
Cu401  N421    2.034   .     S
Cu401  O522    1.964   1_455 S
Cu401  O527    1.964   1_455 S
Cu402  O435    1.964   .     S
Cu402  N422    2.034   .     S
Cu402  O438    1.964   .     S
Cu402  O521    1.964   1_455 S
Cu402  O524    1.964   1_455 S
Cu403  O427    1.964   .     S
Cu403  N423    2.034   .     S
Cu403  Cu404   2.707   .     S
Cu403  O430    1.964   .     S
Cu403  O608    1.964   1_545 S
Cu403  O616    1.964   1_545 S
Cu404  O426    1.964   .     S
Cu404  O431    1.964   .     S
Cu404  N424    2.034   .     S
Cu404  O604    1.964   1_545 S
Cu404  O605    1.964   1_545 S
N423   C544    1.376   1_545 S
N424   C541    1.376   1_545 S
O428   Cu580   1.964   .     S
O429   Cu580   1.964   .     S
O432   Cu579   1.964   .     S
O433   Cu490   1.964   .     S
O434   Cu489   1.964   .     S
O436   Cu490   1.964   .     S
O439   Cu489   1.964   .     S
O440   Cu579   1.964   .     S
Br441  C488    1.927   .     S
Br442  C450    1.927   .     S
Br443  C451    1.927   .     S
Br444  C452    1.927   .     S
Br445  C453    1.927   .     S
Br446  C454    1.927   .     S
Br447  C455    1.927   .     S
Br448  C456    1.927   .     S
C449   O513    1.300   .     A
C449   O523    1.300   .     A
C449   C478    1.451   .     S
C450   N509    1.376   .     A
C450   C803    1.424   .     S
C451   N510    1.376   .     S
C452   N509    1.376   .     A
C452   C840    1.424   .     S
C453   N688    1.376   .     S
C454   N511    1.376   .     A
C454   C807    1.424   .     S
C455   N512    1.376   .     A
C456   C805    1.424   .     S
C456   N687    1.376   .     S
C457   C476    1.401   .     A
C457   H493    1.083   .     S
C457   C468    1.383   .     A
C458   C475    1.401   .     A
C458   C469    1.383   .     A
C458   H501    1.083   .     S
C459   H502    1.083   .     S
C459   C466    1.383   .     A
C459   C475    1.401   .     A
C460   O522    1.300   .     A
C460   O521    1.300   .     A
C460   C477    1.451   .     S
C461   C476    1.401   .     A
C461   C467    1.383   .     A
C461   H503    1.083   .     S
C462   C478    1.401   .     A
C462   C473    1.383   .     A
C462   H504    1.083   .     S
C463   C477    1.401   .     A
C463   C474    1.383   .     A
C463   H505    1.083   .     S
C464   H506    1.083   .     S
C464   C477    1.401   .     A
C464   C470    1.383   .     A
C465   H507    1.083   .     S
C465   C472    1.383   .     A
C465   C478    1.401   .     A
C466   H508    1.083   .     S
C466   C480    1.401   .     A
C467   H494    1.083   .     S
C467   C479    1.401   .     A
C468   H495    1.083   .     S
C468   C479    1.401   .     A
C469   H496    1.083   .     S
C469   C480    1.401   .     A
C470   H497    1.083   .     S
C470   C483    1.401   .     A
C471   O527    1.300   .     A
C471   O524    1.300   .     A
C471   C476    1.451   .     S
C472   H498    1.083   .     S
C472   C481    1.401   .     A
C473   C481    1.401   .     A
C473   H499    1.083   .     S
C474   H500    1.083   .     S
C474   C483    1.401   .     A
C475   C482    1.451   .     S
C479   C487    1.451   .     S
C480   C486    1.451   .     S
C481   C485    1.451   .     S
C482   O526    1.300   .     A
C482   O525    1.300   .     A
C483   C484    1.451   .     S
C484   O516    1.300   .     A
C484   O528    1.300   .     A
C485   O514    1.300   .     A
C485   O515    1.300   .     A
C486   O517    1.300   .     A
C486   O520    1.300   .     A
C487   O519    1.300   .     A
C487   O518    1.300   .     A
C488   N510    1.376   .     A
Cu489  O525    1.964   .     S
Cu489  O513    1.964   .     S
Cu489  Cu490   2.707   .     S
Cu489  N509    2.034   .     S
Cu490  O523    1.964   .     S
Cu490  N510    2.034   .     S
Cu490  O526    1.964   .     S
Cu491  O515    1.964   .     S
Cu491  N511    2.034   .     S
Cu491  Cu492   2.707   .     S
Cu491  O518    1.964   .     S
Cu491  O696    1.964   1_545 S
Cu491  O704    1.964   1_545 S
Cu492  O514    1.964   .     S
Cu492  O519    1.964   .     S
Cu492  N512    2.034   .     S
Cu492  O692    1.964   1_545 S
Cu492  O693    1.964   1_545 S
N511   C632    1.376   1_545 S
N512   C629    1.376   1_545 S
O516   Cu668   1.964   .     S
O517   Cu668   1.964   .     S
O520   Cu667   1.964   .     S
O521   Cu402   1.964   1_655 S
O522   Cu401   1.964   1_655 S
O524   Cu402   1.964   1_655 S
O527   Cu401   1.964   1_655 S
O528   Cu667   1.964   .     S
Br529  C576    1.927   .     S
Br530  C538    1.927   .     S
Br531  C539    1.927   .     S
Br532  C540    1.927   .     S
Br533  C541    1.927   .     S
Br534  C542    1.927   .     S
Br535  C543    1.927   .     S
Br536  C544    1.927   .     S
C537   O601    1.300   .     A
C537   O611    1.300   .     A
C537   C566    1.451   .     S
C538   N597    1.376   .     A
C538   C891    1.424   .     S
C539   N598    1.376   .     S
C540   N597    1.376   .     A
C540   C928    1.424   .     S
C541   N424    1.376   1_565 S
C542   N599    1.376   .     A
C542   C895    1.424   .     S
C543   N600    1.376   .     A
C544   C893    1.424   .     S
C544   N423    1.376   1_565 S
C545   C564    1.401   .     A
C545   H581    1.083   .     S
C545   C556    1.383   .     A
C546   C563    1.401   .     A
C546   C557    1.383   .     A
C546   H589    1.083   .     S
C547   H590    1.083   .     S
C547   C554    1.383   .     A
C547   C563    1.401   .     A
C548   O610    1.300   .     A
C548   O609    1.300   .     A
C548   C565    1.451   .     S
C549   C564    1.401   .     A
C549   C555    1.383   .     A
C549   H591    1.083   .     S
C550   C566    1.401   .     A
C550   C561    1.383   .     A
C550   H592    1.083   .     S
C551   C565    1.401   .     A
C551   C562    1.383   .     A
C551   H593    1.083   .     S
C552   H594    1.083   .     S
C552   C565    1.401   .     A
C552   C558    1.383   .     A
C553   H595    1.083   .     S
C553   C560    1.383   .     A
C553   C566    1.401   .     A
C554   H596    1.083   .     S
C554   C568    1.401   .     A
C555   H582    1.083   .     S
C555   C567    1.401   .     A
C556   H583    1.083   .     S
C556   C567    1.401   .     A
C557   H584    1.083   .     S
C557   C568    1.401   .     A
C558   H585    1.083   .     S
C558   C571    1.401   .     A
C559   O615    1.300   .     A
C559   O612    1.300   .     A
C559   C564    1.451   .     S
C560   H586    1.083   .     S
C560   C569    1.401   .     A
C561   C569    1.401   .     A
C561   H587    1.083   .     S
C562   H588    1.083   .     S
C562   C571    1.401   .     A
C563   C570    1.451   .     S
C567   C575    1.451   .     S
C568   C574    1.451   .     S
C569   C573    1.451   .     S
C570   O614    1.300   .     A
C570   O613    1.300   .     A
C571   C572    1.451   .     S
C572   O604    1.300   .     A
C572   O616    1.300   .     A
C573   O602    1.300   .     A
C573   O603    1.300   .     A
C574   O605    1.300   .     A
C574   O608    1.300   .     A
C575   O607    1.300   .     A
C575   O606    1.300   .     A
C576   N598    1.376   .     A
Cu577  O613    1.964   .     S
Cu577  O601    1.964   .     S
Cu577  Cu578   2.707   .     S
Cu577  N597    2.034   .     S
Cu577  O698    1.964   1_455 S
Cu577  O703    1.964   1_455 S
Cu578  O611    1.964   .     S
Cu578  N598    2.034   .     S
Cu578  O614    1.964   .     S
Cu578  O697    1.964   1_455 S
Cu578  O700    1.964   1_455 S
Cu579  O603    1.964   .     S
Cu579  N599    2.034   .     S
Cu579  Cu580   2.707   .     S
Cu579  O606    1.964   .     S
Cu580  O602    1.964   .     S
Cu580  O607    1.964   .     S
Cu580  N600    2.034   .     S
O604   Cu404   1.964   1_565 S
O605   Cu404   1.964   1_565 S
O608   Cu403   1.964   1_565 S
O609   Cu666   1.964   .     S
O610   Cu665   1.964   .     S
O612   Cu666   1.964   .     S
O615   Cu665   1.964   .     S
O616   Cu403   1.964   1_565 S
Br617  C664    1.927   .     S
Br618  C626    1.927   .     S
Br619  C627    1.927   .     S
Br620  C628    1.927   .     S
Br621  C629    1.927   .     S
Br622  C630    1.927   .     S
Br623  C631    1.927   .     S
Br624  C632    1.927   .     S
C625   O689    1.300   .     A
C625   O699    1.300   .     A
C625   C654    1.451   .     S
C626   N685    1.376   .     A
C626   C979    1.424   .     S
C627   N686    1.376   .     S
C628   N685    1.376   .     A
C628   C1016   1.424   .     S
C629   N512    1.376   1_565 S
C630   N687    1.376   .     A
C630   C983    1.424   .     S
C631   N688    1.376   .     A
C632   C981    1.424   .     S
C632   N511    1.376   1_565 S
C633   C652    1.401   .     A
C633   H669    1.083   .     S
C633   C644    1.383   .     A
C634   C651    1.401   .     A
C634   C645    1.383   .     A
C634   H677    1.083   .     S
C635   H678    1.083   .     S
C635   C642    1.383   .     A
C635   C651    1.401   .     A
C636   O698    1.300   .     A
C636   O697    1.300   .     A
C636   C653    1.451   .     S
C637   C652    1.401   .     A
C637   C643    1.383   .     A
C637   H679    1.083   .     S
C638   C654    1.401   .     A
C638   C649    1.383   .     A
C638   H680    1.083   .     S
C639   C653    1.401   .     A
C639   C650    1.383   .     A
C639   H681    1.083   .     S
C640   H682    1.083   .     S
C640   C653    1.401   .     A
C640   C646    1.383   .     A
C641   H683    1.083   .     S
C641   C648    1.383   .     A
C641   C654    1.401   .     A
C642   H684    1.083   .     S
C642   C656    1.401   .     A
C643   H670    1.083   .     S
C643   C655    1.401   .     A
C644   H671    1.083   .     S
C644   C655    1.401   .     A
C645   H672    1.083   .     S
C645   C656    1.401   .     A
C646   H673    1.083   .     S
C646   C659    1.401   .     A
C647   O703    1.300   .     A
C647   O700    1.300   .     A
C647   C652    1.451   .     S
C648   H674    1.083   .     S
C648   C657    1.401   .     A
C649   C657    1.401   .     A
C649   H675    1.083   .     S
C650   H676    1.083   .     S
C650   C659    1.401   .     A
C651   C658    1.451   .     S
C655   C663    1.451   .     S
C656   C662    1.451   .     S
C657   C661    1.451   .     S
C658   O702    1.300   .     A
C658   O701    1.300   .     A
C659   C660    1.451   .     S
C660   O692    1.300   .     A
C660   O704    1.300   .     A
C661   O690    1.300   .     A
C661   O691    1.300   .     A
C662   O693    1.300   .     A
C662   O696    1.300   .     A
C663   O695    1.300   .     A
C663   O694    1.300   .     A
C664   N686    1.376   .     A
Cu665  O701    1.964   .     S
Cu665  O689    1.964   .     S
Cu665  Cu666   2.707   .     S
Cu665  N685    2.034   .     S
Cu666  O699    1.964   .     S
Cu666  N686    2.034   .     S
Cu666  O702    1.964   .     S
Cu667  O691    1.964   .     S
Cu667  N687    2.034   .     S
Cu667  Cu668   2.707   .     S
Cu667  O694    1.964   .     S
Cu668  O690    1.964   .     S
Cu668  O695    1.964   .     S
Cu668  N688    2.034   .     S
O692   Cu492   1.964   1_565 S
O693   Cu492   1.964   1_565 S
O696   Cu491   1.964   1_565 S
O697   Cu578   1.964   1_655 S
O698   Cu577   1.964   1_655 S
O700   Cu578   1.964   1_655 S
O703   Cu577   1.964   1_655 S
O704   Cu491   1.964   1_565 S
Br705  C752    1.927   .     S
Br706  C714    1.927   .     S
Br707  C715    1.927   .     S
Br708  C716    1.927   .     S
Br709  C717    1.927   .     S
Br710  C718    1.927   .     S
Br711  C719    1.927   .     S
Br712  C720    1.927   .     S
C713   O777    1.300   .     A
C713   O787    1.300   .     A
C713   C742    1.451   .     S
C714   N773    1.376   .     A
C714   C11     1.424   1_556 S
C715   N774    1.376   .     S
C716   N773    1.376   .     A
C716   C48     1.424   1_556 S
C717   N952    1.376   .     S
C718   N775    1.376   .     A
C718   C15     1.424   1_556 S
C719   N776    1.376   .     A
C720   C13     1.424   1_556 S
C720   N951    1.376   .     S
C721   C740    1.401   .     A
C721   H757    1.083   .     S
C721   C732    1.383   .     A
C722   C739    1.401   .     A
C722   C733    1.383   .     A
C722   H765    1.083   .     S
C723   H766    1.083   .     S
C723   C730    1.383   .     A
C723   C739    1.401   .     A
C724   O786    1.300   .     A
C724   O785    1.300   .     A
C724   C741    1.451   .     S
C725   C740    1.401   .     A
C725   C731    1.383   .     A
C725   H767    1.083   .     S
C726   C742    1.401   .     A
C726   C737    1.383   .     A
C726   H768    1.083   .     S
C727   C741    1.401   .     A
C727   C738    1.383   .     A
C727   H769    1.083   .     S
C728   H770    1.083   .     S
C728   C741    1.401   .     A
C728   C734    1.383   .     A
C729   H771    1.083   .     S
C729   C736    1.383   .     A
C729   C742    1.401   .     A
C730   H772    1.083   .     S
C730   C744    1.401   .     A
C731   H758    1.083   .     S
C731   C743    1.401   .     A
C732   H759    1.083   .     S
C732   C743    1.401   .     A
C733   H760    1.083   .     S
C733   C744    1.401   .     A
C734   H761    1.083   .     S
C734   C747    1.401   .     A
C735   O791    1.300   .     A
C735   O788    1.300   .     A
C735   C740    1.451   .     S
C736   H762    1.083   .     S
C736   C745    1.401   .     A
C737   C745    1.401   .     A
C737   H763    1.083   .     S
C738   H764    1.083   .     S
C738   C747    1.401   .     A
C739   C746    1.451   .     S
C743   C751    1.451   .     S
C744   C750    1.451   .     S
C745   C749    1.451   .     S
C746   O790    1.300   .     A
C746   O789    1.300   .     A
C747   C748    1.451   .     S
C748   O780    1.300   .     A
C748   O792    1.300   .     A
C749   O778    1.300   .     A
C749   O779    1.300   .     A
C750   O781    1.300   .     A
C750   O784    1.300   .     A
C751   O783    1.300   .     A
C751   O782    1.300   .     A
C752   N774    1.376   .     A
Cu753  O789    1.964   .     S
Cu753  O777    1.964   .     S
Cu753  Cu754   2.707   .     S
Cu753  N773    2.034   .     S
Cu753  O874    1.964   1_455 S
Cu753  O879    1.964   1_455 S
Cu754  O787    1.964   .     S
Cu754  N774    2.034   .     S
Cu754  O790    1.964   .     S
Cu754  O873    1.964   1_455 S
Cu754  O876    1.964   1_455 S
Cu755  O779    1.964   .     S
Cu755  N775    2.034   .     S
Cu755  Cu756   2.707   .     S
Cu755  O782    1.964   .     S
Cu755  O960    1.964   1_545 S
Cu755  O968    1.964   1_545 S
Cu756  O778    1.964   .     S
Cu756  O783    1.964   .     S
Cu756  N776    2.034   .     S
Cu756  O956    1.964   1_545 S
Cu756  O957    1.964   1_545 S
N775   C896    1.376   1_545 S
N776   C893    1.376   1_545 S
O780   Cu932   1.964   .     S
O781   Cu932   1.964   .     S
O784   Cu931   1.964   .     S
O785   Cu842   1.964   .     S
O786   Cu841   1.964   .     S
O788   Cu842   1.964   .     S
O791   Cu841   1.964   .     S
O792   Cu931   1.964   .     S
Br793  C840    1.927   .     S
Br794  C802    1.927   .     S
Br795  C803    1.927   .     S
Br796  C804    1.927   .     S
Br797  C805    1.927   .     S
Br798  C806    1.927   .     S
Br799  C807    1.927   .     S
Br800  C808    1.927   .     S
C801   O865    1.300   .     A
C801   O875    1.300   .     A
C801   C830    1.451   .     S
C802   N861    1.376   .     A
C802   C99     1.424   1_556 S
C803   N862    1.376   .     S
C804   N861    1.376   .     A
C804   C136    1.424   1_556 S
C805   N1040   1.376   .     S
C806   N863    1.376   .     A
C806   C103    1.424   1_556 S
C807   N864    1.376   .     A
C808   C101    1.424   1_556 S
C808   N1039   1.376   .     S
C809   C828    1.401   .     A
C809   H845    1.083   .     S
C809   C820    1.383   .     A
C810   C827    1.401   .     A
C810   C821    1.383   .     A
C810   H853    1.083   .     S
C811   H854    1.083   .     S
C811   C818    1.383   .     A
C811   C827    1.401   .     A
C812   O874    1.300   .     A
C812   O873    1.300   .     A
C812   C829    1.451   .     S
C813   C828    1.401   .     A
C813   C819    1.383   .     A
C813   H855    1.083   .     S
C814   C830    1.401   .     A
C814   C825    1.383   .     A
C814   H856    1.083   .     S
C815   C829    1.401   .     A
C815   C826    1.383   .     A
C815   H857    1.083   .     S
C816   H858    1.083   .     S
C816   C829    1.401   .     A
C816   C822    1.383   .     A
C817   H859    1.083   .     S
C817   C824    1.383   .     A
C817   C830    1.401   .     A
C818   H860    1.083   .     S
C818   C832    1.401   .     A
C819   H846    1.083   .     S
C819   C831    1.401   .     A
C820   H847    1.083   .     S
C820   C831    1.401   .     A
C821   H848    1.083   .     S
C821   C832    1.401   .     A
C822   H849    1.083   .     S
C822   C835    1.401   .     A
C823   O879    1.300   .     A
C823   O876    1.300   .     A
C823   C828    1.451   .     S
C824   H850    1.083   .     S
C824   C833    1.401   .     A
C825   C833    1.401   .     A
C825   H851    1.083   .     S
C826   H852    1.083   .     S
C826   C835    1.401   .     A
C827   C834    1.451   .     S
C831   C839    1.451   .     S
C832   C838    1.451   .     S
C833   C837    1.451   .     S
C834   O878    1.300   .     A
C834   O877    1.300   .     A
C835   C836    1.451   .     S
C836   O868    1.300   .     A
C836   O880    1.300   .     A
C837   O866    1.300   .     A
C837   O867    1.300   .     A
C838   O869    1.300   .     A
C838   O872    1.300   .     A
C839   O871    1.300   .     A
C839   O870    1.300   .     A
C840   N862    1.376   .     A
Cu841  O877    1.964   .     S
Cu841  O865    1.964   .     S
Cu841  Cu842   2.707   .     S
Cu841  N861    2.034   .     S
Cu842  O875    1.964   .     S
Cu842  N862    2.034   .     S
Cu842  O878    1.964   .     S
Cu843  O867    1.964   .     S
Cu843  N863    2.034   .     S
Cu843  Cu844   2.707   .     S
Cu843  O870    1.964   .     S
Cu843  O1048   1.964   1_545 S
Cu843  O1056   1.964   1_545 S
Cu844  O866    1.964   .     S
Cu844  O871    1.964   .     S
Cu844  N864    2.034   .     S
Cu844  O1044   1.964   1_545 S
Cu844  O1045   1.964   1_545 S
N863   C984    1.376   1_545 S
N864   C981    1.376   1_545 S
O868   Cu1020  1.964   .     S
O869   Cu1020  1.964   .     S
O872   Cu1019  1.964   .     S
O873   Cu754   1.964   1_655 S
O874   Cu753   1.964   1_655 S
O876   Cu754   1.964   1_655 S
O879   Cu753   1.964   1_655 S
O880   Cu1019  1.964   .     S
Br881  C928    1.927   .     S
Br882  C890    1.927   .     S
Br883  C891    1.927   .     S
Br884  C892    1.927   .     S
Br885  C893    1.927   .     S
Br886  C894    1.927   .     S
Br887  C895    1.927   .     S
Br888  C896    1.927   .     S
C889   O953    1.300   .     A
C889   O963    1.300   .     A
C889   C918    1.451   .     S
C890   N949    1.376   .     A
C890   C187    1.424   1_556 S
C891   N950    1.376   .     S
C892   N949    1.376   .     A
C892   C224    1.424   1_556 S
C893   N776    1.376   1_565 S
C894   N951    1.376   .     A
C894   C191    1.424   1_556 S
C895   N952    1.376   .     A
C896   C189    1.424   1_556 S
C896   N775    1.376   1_565 S
C897   C916    1.401   .     A
C897   H933    1.083   .     S
C897   C908    1.383   .     A
C898   C915    1.401   .     A
C898   C909    1.383   .     A
C898   H941    1.083   .     S
C899   H942    1.083   .     S
C899   C906    1.383   .     A
C899   C915    1.401   .     A
C900   O962    1.300   .     A
C900   O961    1.300   .     A
C900   C917    1.451   .     S
C901   C916    1.401   .     A
C901   C907    1.383   .     A
C901   H943    1.083   .     S
C902   C918    1.401   .     A
C902   C913    1.383   .     A
C902   H944    1.083   .     S
C903   C917    1.401   .     A
C903   C914    1.383   .     A
C903   H945    1.083   .     S
C904   H946    1.083   .     S
C904   C917    1.401   .     A
C904   C910    1.383   .     A
C905   H947    1.083   .     S
C905   C912    1.383   .     A
C905   C918    1.401   .     A
C906   H948    1.083   .     S
C906   C920    1.401   .     A
C907   H934    1.083   .     S
C907   C919    1.401   .     A
C908   H935    1.083   .     S
C908   C919    1.401   .     A
C909   H936    1.083   .     S
C909   C920    1.401   .     A
C910   H937    1.083   .     S
C910   C923    1.401   .     A
C911   O967    1.300   .     A
C911   O964    1.300   .     A
C911   C916    1.451   .     S
C912   H938    1.083   .     S
C912   C921    1.401   .     A
C913   C921    1.401   .     A
C913   H939    1.083   .     S
C914   H940    1.083   .     S
C914   C923    1.401   .     A
C915   C922    1.451   .     S
C919   C927    1.451   .     S
C920   C926    1.451   .     S
C921   C925    1.451   .     S
C922   O966    1.300   .     A
C922   O965    1.300   .     A
C923   C924    1.451   .     S
C924   O956    1.300   .     A
C924   O968    1.300   .     A
C925   O954    1.300   .     A
C925   O955    1.300   .     A
C926   O957    1.300   .     A
C926   O960    1.300   .     A
C927   O959    1.300   .     A
C927   O958    1.300   .     A
C928   N950    1.376   .     A
Cu929  O965    1.964   .     S
Cu929  O953    1.964   .     S
Cu929  Cu930   2.707   .     S
Cu929  N949    2.034   .     S
Cu929  O1050   1.964   1_455 S
Cu929  O1055   1.964   1_455 S
Cu930  O963    1.964   .     S
Cu930  N950    2.034   .     S
Cu930  O966    1.964   .     S
Cu930  O1049   1.964   1_455 S
Cu930  O1052   1.964   1_455 S
Cu931  O955    1.964   .     S
Cu931  N951    2.034   .     S
Cu931  Cu932   2.707   .     S
Cu931  O958    1.964   .     S
Cu932  O954    1.964   .     S
Cu932  O959    1.964   .     S
Cu932  N952    2.034   .     S
O956   Cu756   1.964   1_565 S
O957   Cu756   1.964   1_565 S
O960   Cu755   1.964   1_565 S
O961   Cu1018  1.964   .     S
O962   Cu1017  1.964   .     S
O964   Cu1018  1.964   .     S
O967   Cu1017  1.964   .     S
O968   Cu755   1.964   1_565 S
Br969  C1016   1.927   .     S
Br970  C978    1.927   .     S
Br971  C979    1.927   .     S
Br972  C980    1.927   .     S
Br973  C981    1.927   .     S
Br974  C982    1.927   .     S
Br975  C983    1.927   .     S
Br976  C984    1.927   .     S
C977   O1041   1.300   .     A
C977   O1051   1.300   .     A
C977   C1006   1.451   .     S
C978   N1037   1.376   .     A
C978   C275    1.424   1_556 S
C979   N1038   1.376   .     S
C980   N1037   1.376   .     A
C980   C312    1.424   1_556 S
C981   N864    1.376   1_565 S
C982   N1039   1.376   .     A
C982   C279    1.424   1_556 S
C983   N1040   1.376   .     A
C984   C277    1.424   1_556 S
C984   N863    1.376   1_565 S
C985   C1004   1.401   .     A
C985   H1021   1.083   .     S
C985   C996    1.383   .     A
C986   C1003   1.401   .     A
C986   C997    1.383   .     A
C986   H1029   1.083   .     S
C987   H1030   1.083   .     S
C987   C994    1.383   .     A
C987   C1003   1.401   .     A
C988   O1050   1.300   .     A
C988   O1049   1.300   .     A
C988   C1005   1.451   .     S
C989   C1004   1.401   .     A
C989   C995    1.383   .     A
C989   H1031   1.083   .     S
C990   C1006   1.401   .     A
C990   C1001   1.383   .     A
C990   H1032   1.083   .     S
C991   C1005   1.401   .     A
C991   C1002   1.383   .     A
C991   H1033   1.083   .     S
C992   H1034   1.083   .     S
C992   C1005   1.401   .     A
C992   C998    1.383   .     A
C993   H1035   1.083   .     S
C993   C1000   1.383   .     A
C993   C1006   1.401   .     A
C994   H1036   1.083   .     S
C994   C1008   1.401   .     A
C995   H1022   1.083   .     S
C995   C1007   1.401   .     A
C996   H1023   1.083   .     S
C996   C1007   1.401   .     A
C997   H1024   1.083   .     S
C997   C1008   1.401   .     A
C998   H1025   1.083   .     S
C998   C1011   1.401   .     A
C999   O1055   1.300   .     A
C999   O1052   1.300   .     A
C999   C1004   1.451   .     S
C1000  H1026   1.083   .     S
C1000  C1009   1.401   .     A
C1001  C1009   1.401   .     A
C1001  H1027   1.083   .     S
C1002  H1028   1.083   .     S
C1002  C1011   1.401   .     A
C1003  C1010   1.451   .     S
C1007  C1015   1.451   .     S
C1008  C1014   1.451   .     S
C1009  C1013   1.451   .     S
C1010  O1054   1.300   .     A
C1010  O1053   1.300   .     A
C1011  C1012   1.451   .     S
C1012  O1044   1.300   .     A
C1012  O1056   1.300   .     A
C1013  O1042   1.300   .     A
C1013  O1043   1.300   .     A
C1014  O1045   1.300   .     A
C1014  O1048   1.300   .     A
C1015  O1047   1.300   .     A
C1015  O1046   1.300   .     A
C1016  N1038   1.376   .     A
Cu1017 O1053   1.964   .     S
Cu1017 O1041   1.964   .     S
Cu1017 Cu1018  2.707   .     S
Cu1017 N1037   2.034   .     S
Cu1018 O1051   1.964   .     S
Cu1018 N1038   2.034   .     S
Cu1018 O1054   1.964   .     S
Cu1019 O1043   1.964   .     S
Cu1019 N1039   2.034   .     S
Cu1019 Cu1020  2.707   .     S
Cu1019 O1046   1.964   .     S
Cu1020 O1042   1.964   .     S
Cu1020 O1047   1.964   .     S
Cu1020 N1040   2.034   .     S
O1044  Cu844   1.964   1_565 S
O1045  Cu844   1.964   1_565 S
O1048  Cu843   1.964   1_565 S
O1049  Cu930   1.964   1_655 S
O1050  Cu929   1.964   1_655 S
O1052  Cu930   1.964   1_655 S
O1055  Cu929   1.964   1_655 S
O1056  Cu843   1.964   1_565 S
