data_str_m2_o1_o18_pcu_sym.210
_audit_creation_date              2020-01-03
_audit_creation_method            'Materials Studio'
_symmetry_space_group_name_H-M    'P1'
_symmetry_Int_Tables_number       1
_symmetry_cell_setting            triclinic
loop_
_symmetry_equiv_pos_as_xyz
  x,y,z
_cell_length_a                    28.6624
_cell_length_b                    32.4775
_cell_length_c                    31.0032
_cell_angle_alpha                 89.4877
_cell_angle_beta                  74.2114
_cell_angle_gamma                 90.7358
loop_
_atom_site_label
_atom_site_type_symbol
_atom_site_fract_x
_atom_site_fract_y
_atom_site_fract_z
_atom_site_U_iso_or_equiv
_atom_site_adp_type
_atom_site_occupancy
C1     C     0.33321   0.08746   0.24935   0.00000  Uiso   1.00
C2     C     0.00012   0.24587   0.25068   0.00000  Uiso   1.00
C3     C     0.19021   0.19566   0.04340   0.00000  Uiso   1.00
C4     C     0.13904   0.15768   0.45262   0.00000  Uiso   1.00
C5     C     0.23912   0.20255   0.02089   0.00000  Uiso   1.00
C6     C     0.08994   0.15174   0.47499   0.00000  Uiso   1.00
C7     C     0.30276   0.02026   0.22827   0.00000  Uiso   1.00
C8     C     0.03049   0.31306   0.27184   0.00000  Uiso   1.00
C9     C     0.30352   0.31094   0.22950   0.00000  Uiso   1.00
C10    C     0.02977   0.02238   0.27058   0.00000  Uiso   1.00
C11    C     0.00054   0.29051   0.25094   0.00000  Uiso   1.00
C12    C     0.33275   0.04281   0.24913   0.00000  Uiso   1.00
C13    C     0.18262   0.14000   0.27711   0.00000  Uiso   1.00
C14    C     0.15071   0.19330   0.22284   0.00000  Uiso   1.00
C15    C     0.13319   0.14021   0.27706   0.00000  Uiso   1.00
C16    C     0.20014   0.19312   0.22293   0.00000  Uiso   1.00
C17    C     0.30607   0.16742   0.33598   0.00000  Uiso   1.00
C18    C     0.02728   0.16639   0.16395   0.00000  Uiso   1.00
C19    C     0.29101   0.17252   0.38470   0.00000  Uiso   1.00
C20    C     0.04220   0.16519   0.11479   0.00000  Uiso   1.00
C21    C     0.30523   0.19894   0.45260   0.00000  Uiso   1.00
C22    C     0.02478   0.15187   0.04421   0.00000  Uiso   1.00
C23    C     0.32235   0.18975   0.40733   0.00000  Uiso   1.00
C24    C     0.00891   0.15604   0.09051   0.00000  Uiso   1.00
C25    C     0.24289   0.16383   0.40781   0.00000  Uiso   1.00
C26    C     0.09099   0.17187   0.09217   0.00000  Uiso   1.00
C27    C     0.22375   0.17501   0.45282   0.00000  Uiso   1.00
C28    C     0.10768   0.16999   0.04520   0.00000  Uiso   1.00
C29    C     0.25612   0.19202   0.47569   0.00000  Uiso   1.00
C30    C     0.07405   0.15797   0.02124   0.00000  Uiso   1.00
C31    C     0.17353   0.16983   0.47539   0.00000  Uiso   1.00
C32    C     0.15712   0.17820   0.02186   0.00000  Uiso   1.00
Cu33   Cu    0.04689   0.16667   0.25000   0.00000  Uiso   1.00
Cu34   Cu    0.28645   0.16666   0.25000   0.00000  Uiso   1.00
H35    H     0.11570   0.17691   0.11226   0.00000  Uiso   1.00
H36    H     0.22126   0.14820   0.38948   0.00000  Uiso   1.00
H37    H     0.30424   0.15074   0.10739   0.00000  Uiso   1.00
H38    H     0.02642   0.19699   0.38984   0.00000  Uiso   1.00
H39    H     0.33046   0.21230   0.46917   0.00000  Uiso   1.00
H40    H     0.33164   0.14343   0.02656   0.00000  Uiso   1.00
H41    H     0.17869   0.20604   0.07749   0.00000  Uiso   1.00
H42    H     0.14867   0.15371   0.41692   0.00000  Uiso   1.00
H43    H     0.28092   0.29354   0.21297   0.00000  Uiso   1.00
H44    H     0.05237   0.03978   0.28712   0.00000  Uiso   1.00
H45    H     0.10744   0.11909   0.29864   0.00000  Uiso   1.00
H46    H     0.22590   0.21423   0.20133   0.00000  Uiso   1.00
N47    N     0.11736   0.16668   0.24999   0.00000  Uiso   1.00
N48    N     0.21597   0.16666   0.25001   0.00000  Uiso   1.00
O49    O     0.03958   0.10655   0.25000   0.00000  Uiso   1.00
O50    O     0.29375   0.22678   0.25000   0.00000  Uiso   1.00
O51    O     0.29372   0.10654   0.25001   0.00000  Uiso   1.00
O52    O     0.03961   0.22679   0.24999   0.00000  Uiso   1.00
O53    O     0.01852   0.16668   0.31492   0.00000  Uiso   1.00
O54    O     0.31481   0.16666   0.18509   0.00000  Uiso   1.00
O55    O     0.27267   0.16667   0.31492   0.00000  Uiso   1.00
O56    O     0.06067   0.16667   0.18508   0.00000  Uiso   1.00
O57    O     0.27084   0.21984   0.04248   0.00000  Uiso   1.00
H58    H     0.25356   0.22468   0.07432   0.00000  Uiso   1.00
O59    O     0.05709   0.13878   0.45230   0.00000  Uiso   1.00
H60    H     0.07401   0.13521   0.42014   0.00000  Uiso   1.00
C61    C     0.27232   0.03978   0.20403   0.00000  Uiso   1.00
N62    N     0.24794   0.05540   0.18462   0.00000  Uiso   1.00
C63    C     0.06083   0.29352   0.29618   0.00000  Uiso   1.00
N64    N     0.08511   0.27788   0.31567   0.00000  Uiso   1.00
C65    C     0.19699   0.11078   0.30602   0.00000  Uiso   1.00
N66    N     0.20818   0.08709   0.32934   0.00000  Uiso   1.00
C67    C     0.13639   0.22231   0.19370   0.00000  Uiso   1.00
N68    N     0.12521   0.24580   0.17017   0.00000  Uiso   1.00
C69    C     0.66654   0.08746   0.24935   0.00000  Uiso   1.00
C70    C     0.33345   0.24587   0.25068   0.00000  Uiso   1.00
C71    C     0.52354   0.19566   0.04340   0.00000  Uiso   1.00
C72    C     0.47237   0.15768   0.45262   0.00000  Uiso   1.00
C73    C     0.57245   0.20255   0.02089   0.00000  Uiso   1.00
C74    C     0.42327   0.15174   0.47499   0.00000  Uiso   1.00
C75    C     0.63610   0.02026   0.22827   0.00000  Uiso   1.00
C76    C     0.36383   0.31306   0.27184   0.00000  Uiso   1.00
C77    C     0.63685   0.31094   0.22950   0.00000  Uiso   1.00
C78    C     0.36310   0.02238   0.27058   0.00000  Uiso   1.00
C79    C     0.33388   0.29051   0.25094   0.00000  Uiso   1.00
C80    C     0.66609   0.04281   0.24913   0.00000  Uiso   1.00
C81    C     0.51596   0.14000   0.27711   0.00000  Uiso   1.00
C82    C     0.48405   0.19330   0.22284   0.00000  Uiso   1.00
C83    C     0.46652   0.14021   0.27706   0.00000  Uiso   1.00
C84    C     0.53347   0.19312   0.22293   0.00000  Uiso   1.00
C85    C     0.63941   0.16742   0.33598   0.00000  Uiso   1.00
C86    C     0.36061   0.16639   0.16395   0.00000  Uiso   1.00
C87    C     0.62434   0.17252   0.38470   0.00000  Uiso   1.00
C88    C     0.37553   0.16519   0.11479   0.00000  Uiso   1.00
C89    C     0.63856   0.19894   0.45260   0.00000  Uiso   1.00
C90    C     0.35811   0.15187   0.04421   0.00000  Uiso   1.00
C91    C     0.65568   0.18975   0.40733   0.00000  Uiso   1.00
C92    C     0.34224   0.15604   0.09051   0.00000  Uiso   1.00
C93    C     0.57622   0.16383   0.40781   0.00000  Uiso   1.00
C94    C     0.42433   0.17187   0.09217   0.00000  Uiso   1.00
C95    C     0.55709   0.17501   0.45282   0.00000  Uiso   1.00
C96    C     0.44101   0.16999   0.04520   0.00000  Uiso   1.00
C97    C     0.58945   0.19202   0.47569   0.00000  Uiso   1.00
C98    C     0.40739   0.15797   0.02124   0.00000  Uiso   1.00
C99    C     0.50686   0.16983   0.47539   0.00000  Uiso   1.00
C100   C     0.49045   0.17820   0.02186   0.00000  Uiso   1.00
Cu101  Cu    0.38022   0.16667   0.25000   0.00000  Uiso   1.00
Cu102  Cu    0.61978   0.16666   0.25000   0.00000  Uiso   1.00
H103   H     0.44904   0.17691   0.11226   0.00000  Uiso   1.00
H104   H     0.55460   0.14820   0.38948   0.00000  Uiso   1.00
H105   H     0.63757   0.15074   0.10739   0.00000  Uiso   1.00
H106   H     0.35975   0.19699   0.38984   0.00000  Uiso   1.00
H107   H     0.66379   0.21230   0.46917   0.00000  Uiso   1.00
H108   H     0.66497   0.14343   0.02656   0.00000  Uiso   1.00
H109   H     0.51202   0.20604   0.07749   0.00000  Uiso   1.00
H110   H     0.48201   0.15371   0.41692   0.00000  Uiso   1.00
H111   H     0.61425   0.29354   0.21297   0.00000  Uiso   1.00
H112   H     0.38570   0.03978   0.28712   0.00000  Uiso   1.00
H113   H     0.44077   0.11909   0.29864   0.00000  Uiso   1.00
H114   H     0.55923   0.21423   0.20133   0.00000  Uiso   1.00
N115   N     0.45069   0.16668   0.24999   0.00000  Uiso   1.00
N116   N     0.54931   0.16666   0.25001   0.00000  Uiso   1.00
O117   O     0.37291   0.10655   0.25000   0.00000  Uiso   1.00
O118   O     0.62709   0.22678   0.25000   0.00000  Uiso   1.00
O119   O     0.62706   0.10654   0.25001   0.00000  Uiso   1.00
O120   O     0.37294   0.22679   0.24999   0.00000  Uiso   1.00
O121   O     0.35186   0.16668   0.31492   0.00000  Uiso   1.00
O122   O     0.64814   0.16666   0.18509   0.00000  Uiso   1.00
O123   O     0.60600   0.16667   0.31492   0.00000  Uiso   1.00
O124   O     0.39400   0.16667   0.18508   0.00000  Uiso   1.00
O125   O     0.60417   0.21984   0.04248   0.00000  Uiso   1.00
H126   H     0.58689   0.22468   0.07432   0.00000  Uiso   1.00
O127   O     0.39042   0.13878   0.45230   0.00000  Uiso   1.00
H128   H     0.40734   0.13521   0.42014   0.00000  Uiso   1.00
C129   C     0.60565   0.03978   0.20403   0.00000  Uiso   1.00
N130   N     0.58127   0.05540   0.18462   0.00000  Uiso   1.00
C131   C     0.39417   0.29352   0.29618   0.00000  Uiso   1.00
N132   N     0.41845   0.27788   0.31567   0.00000  Uiso   1.00
C133   C     0.53032   0.11078   0.30602   0.00000  Uiso   1.00
N134   N     0.54151   0.08709   0.32934   0.00000  Uiso   1.00
C135   C     0.46972   0.22231   0.19370   0.00000  Uiso   1.00
N136   N     0.45855   0.24580   0.17017   0.00000  Uiso   1.00
C137   C     0.99987   0.08746   0.24935   0.00000  Uiso   1.00
C138   C     0.66678   0.24587   0.25068   0.00000  Uiso   1.00
C139   C     0.85688   0.19566   0.04340   0.00000  Uiso   1.00
C140   C     0.80570   0.15768   0.45262   0.00000  Uiso   1.00
C141   C     0.90578   0.20255   0.02089   0.00000  Uiso   1.00
C142   C     0.75661   0.15174   0.47499   0.00000  Uiso   1.00
C143   C     0.96943   0.02026   0.22827   0.00000  Uiso   1.00
C144   C     0.69716   0.31306   0.27184   0.00000  Uiso   1.00
C145   C     0.97019   0.31094   0.22950   0.00000  Uiso   1.00
C146   C     0.69643   0.02238   0.27058   0.00000  Uiso   1.00
C147   C     0.66721   0.29051   0.25094   0.00000  Uiso   1.00
C148   C     0.99942   0.04281   0.24913   0.00000  Uiso   1.00
C149   C     0.84929   0.14000   0.27711   0.00000  Uiso   1.00
C150   C     0.81738   0.19330   0.22284   0.00000  Uiso   1.00
C151   C     0.79986   0.14021   0.27706   0.00000  Uiso   1.00
C152   C     0.86681   0.19312   0.22293   0.00000  Uiso   1.00
C153   C     0.97274   0.16742   0.33598   0.00000  Uiso   1.00
C154   C     0.69395   0.16639   0.16395   0.00000  Uiso   1.00
C155   C     0.95767   0.17252   0.38470   0.00000  Uiso   1.00
C156   C     0.70887   0.16519   0.11479   0.00000  Uiso   1.00
C157   C     0.97189   0.19894   0.45260   0.00000  Uiso   1.00
C158   C     0.69144   0.15187   0.04421   0.00000  Uiso   1.00
C159   C     0.98902   0.18975   0.40733   0.00000  Uiso   1.00
C160   C     0.67557   0.15604   0.09051   0.00000  Uiso   1.00
C161   C     0.90956   0.16383   0.40781   0.00000  Uiso   1.00
C162   C     0.75766   0.17187   0.09217   0.00000  Uiso   1.00
C163   C     0.89042   0.17501   0.45282   0.00000  Uiso   1.00
C164   C     0.77435   0.16999   0.04520   0.00000  Uiso   1.00
C165   C     0.92279   0.19202   0.47569   0.00000  Uiso   1.00
C166   C     0.74072   0.15797   0.02124   0.00000  Uiso   1.00
C167   C     0.84020   0.16983   0.47539   0.00000  Uiso   1.00
C168   C     0.82378   0.17820   0.02186   0.00000  Uiso   1.00
Cu169  Cu    0.71355   0.16667   0.25000   0.00000  Uiso   1.00
Cu170  Cu    0.95311   0.16666   0.25000   0.00000  Uiso   1.00
H171   H     0.78237   0.17691   0.11226   0.00000  Uiso   1.00
H172   H     0.88793   0.14820   0.38948   0.00000  Uiso   1.00
H173   H     0.97090   0.15074   0.10739   0.00000  Uiso   1.00
H174   H     0.69309   0.19699   0.38984   0.00000  Uiso   1.00
H175   H     0.99713   0.21230   0.46917   0.00000  Uiso   1.00
H176   H     0.99831   0.14343   0.02656   0.00000  Uiso   1.00
H177   H     0.84535   0.20604   0.07749   0.00000  Uiso   1.00
H178   H     0.81534   0.15371   0.41692   0.00000  Uiso   1.00
H179   H     0.94758   0.29354   0.21297   0.00000  Uiso   1.00
H180   H     0.71903   0.03978   0.28712   0.00000  Uiso   1.00
H181   H     0.77410   0.11909   0.29864   0.00000  Uiso   1.00
H182   H     0.89257   0.21423   0.20133   0.00000  Uiso   1.00
N183   N     0.78403   0.16668   0.24999   0.00000  Uiso   1.00
N184   N     0.88264   0.16666   0.25001   0.00000  Uiso   1.00
O185   O     0.70625   0.10655   0.25000   0.00000  Uiso   1.00
O186   O     0.96042   0.22678   0.25000   0.00000  Uiso   1.00
O187   O     0.96039   0.10654   0.25001   0.00000  Uiso   1.00
O188   O     0.70628   0.22679   0.24999   0.00000  Uiso   1.00
O189   O     0.68519   0.16668   0.31492   0.00000  Uiso   1.00
O190   O     0.98148   0.16666   0.18509   0.00000  Uiso   1.00
O191   O     0.93933   0.16667   0.31492   0.00000  Uiso   1.00
O192   O     0.72733   0.16667   0.18508   0.00000  Uiso   1.00
O193   O     0.93751   0.21984   0.04248   0.00000  Uiso   1.00
H194   H     0.92022   0.22468   0.07432   0.00000  Uiso   1.00
O195   O     0.72376   0.13878   0.45230   0.00000  Uiso   1.00
H196   H     0.74068   0.13521   0.42014   0.00000  Uiso   1.00
C197   C     0.93898   0.03978   0.20403   0.00000  Uiso   1.00
N198   N     0.91460   0.05540   0.18462   0.00000  Uiso   1.00
C199   C     0.72750   0.29352   0.29618   0.00000  Uiso   1.00
N200   N     0.75178   0.27788   0.31567   0.00000  Uiso   1.00
C201   C     0.86365   0.11078   0.30602   0.00000  Uiso   1.00
N202   N     0.87484   0.08709   0.32934   0.00000  Uiso   1.00
C203   C     0.80306   0.22231   0.19370   0.00000  Uiso   1.00
N204   N     0.79188   0.24580   0.17017   0.00000  Uiso   1.00
C205   C     0.33321   0.42080   0.24935   0.00000  Uiso   1.00
C206   C     0.00012   0.57920   0.25068   0.00000  Uiso   1.00
C207   C     0.19021   0.52899   0.04340   0.00000  Uiso   1.00
C208   C     0.13904   0.49101   0.45262   0.00000  Uiso   1.00
C209   C     0.23912   0.53589   0.02089   0.00000  Uiso   1.00
C210   C     0.08994   0.48507   0.47499   0.00000  Uiso   1.00
C211   C     0.30276   0.35359   0.22827   0.00000  Uiso   1.00
C212   C     0.03049   0.64639   0.27184   0.00000  Uiso   1.00
C213   C     0.30352   0.64427   0.22950   0.00000  Uiso   1.00
C214   C     0.02977   0.35572   0.27058   0.00000  Uiso   1.00
C215   C     0.00054   0.62385   0.25094   0.00000  Uiso   1.00
C216   C     0.33275   0.37614   0.24913   0.00000  Uiso   1.00
C217   C     0.18262   0.47333   0.27711   0.00000  Uiso   1.00
C218   C     0.15071   0.52664   0.22284   0.00000  Uiso   1.00
C219   C     0.13319   0.47355   0.27706   0.00000  Uiso   1.00
C220   C     0.20014   0.52646   0.22293   0.00000  Uiso   1.00
C221   C     0.30607   0.50076   0.33598   0.00000  Uiso   1.00
C222   C     0.02728   0.49972   0.16395   0.00000  Uiso   1.00
C223   C     0.29101   0.50585   0.38470   0.00000  Uiso   1.00
C224   C     0.04220   0.49852   0.11479   0.00000  Uiso   1.00
C225   C     0.30523   0.53227   0.45260   0.00000  Uiso   1.00
C226   C     0.02478   0.48521   0.04421   0.00000  Uiso   1.00
C227   C     0.32235   0.52308   0.40733   0.00000  Uiso   1.00
C228   C     0.00891   0.48937   0.09051   0.00000  Uiso   1.00
C229   C     0.24289   0.49717   0.40781   0.00000  Uiso   1.00
C230   C     0.09099   0.50520   0.09217   0.00000  Uiso   1.00
C231   C     0.22375   0.50834   0.45282   0.00000  Uiso   1.00
C232   C     0.10768   0.50332   0.04520   0.00000  Uiso   1.00
C233   C     0.25612   0.52535   0.47569   0.00000  Uiso   1.00
C234   C     0.07405   0.49130   0.02124   0.00000  Uiso   1.00
C235   C     0.17353   0.50316   0.47539   0.00000  Uiso   1.00
C236   C     0.15712   0.51153   0.02186   0.00000  Uiso   1.00
Cu237  Cu    0.04689   0.50001   0.25000   0.00000  Uiso   1.00
Cu238  Cu    0.28645   0.49999   0.25000   0.00000  Uiso   1.00
H239   H     0.11570   0.51025   0.11226   0.00000  Uiso   1.00
H240   H     0.22126   0.48153   0.38948   0.00000  Uiso   1.00
H241   H     0.30424   0.48407   0.10739   0.00000  Uiso   1.00
H242   H     0.02642   0.53032   0.38984   0.00000  Uiso   1.00
H243   H     0.33046   0.54563   0.46917   0.00000  Uiso   1.00
H244   H     0.33164   0.47677   0.02656   0.00000  Uiso   1.00
H245   H     0.17869   0.53937   0.07749   0.00000  Uiso   1.00
H246   H     0.14867   0.48705   0.41692   0.00000  Uiso   1.00
H247   H     0.28092   0.62688   0.21297   0.00000  Uiso   1.00
H248   H     0.05237   0.37311   0.28712   0.00000  Uiso   1.00
H249   H     0.10744   0.45242   0.29864   0.00000  Uiso   1.00
H250   H     0.22590   0.54756   0.20133   0.00000  Uiso   1.00
N251   N     0.11736   0.50001   0.24999   0.00000  Uiso   1.00
N252   N     0.21597   0.49999   0.25001   0.00000  Uiso   1.00
O253   O     0.03958   0.43989   0.25000   0.00000  Uiso   1.00
O254   O     0.29375   0.56011   0.25000   0.00000  Uiso   1.00
O255   O     0.29372   0.43988   0.25001   0.00000  Uiso   1.00
O256   O     0.03961   0.56012   0.24999   0.00000  Uiso   1.00
O257   O     0.01852   0.50001   0.31492   0.00000  Uiso   1.00
O258   O     0.31481   0.49999   0.18509   0.00000  Uiso   1.00
O259   O     0.27267   0.50000   0.31492   0.00000  Uiso   1.00
O260   O     0.06067   0.50000   0.18508   0.00000  Uiso   1.00
O261   O     0.27084   0.55318   0.04248   0.00000  Uiso   1.00
H262   H     0.25356   0.55801   0.07432   0.00000  Uiso   1.00
O263   O     0.05709   0.47212   0.45230   0.00000  Uiso   1.00
H264   H     0.07401   0.46855   0.42014   0.00000  Uiso   1.00
C265   C     0.27232   0.37311   0.20403   0.00000  Uiso   1.00
N266   N     0.24794   0.38873   0.18462   0.00000  Uiso   1.00
C267   C     0.06083   0.62685   0.29618   0.00000  Uiso   1.00
N268   N     0.08511   0.61122   0.31567   0.00000  Uiso   1.00
C269   C     0.19699   0.44412   0.30602   0.00000  Uiso   1.00
N270   N     0.20818   0.42042   0.32934   0.00000  Uiso   1.00
C271   C     0.13639   0.55564   0.19370   0.00000  Uiso   1.00
N272   N     0.12521   0.57913   0.17017   0.00000  Uiso   1.00
C273   C     0.66654   0.42080   0.24935   0.00000  Uiso   1.00
C274   C     0.33345   0.57920   0.25068   0.00000  Uiso   1.00
C275   C     0.52354   0.52899   0.04340   0.00000  Uiso   1.00
C276   C     0.47237   0.49101   0.45262   0.00000  Uiso   1.00
C277   C     0.57245   0.53589   0.02089   0.00000  Uiso   1.00
C278   C     0.42327   0.48507   0.47499   0.00000  Uiso   1.00
C279   C     0.63610   0.35359   0.22827   0.00000  Uiso   1.00
C280   C     0.36383   0.64639   0.27184   0.00000  Uiso   1.00
C281   C     0.63685   0.64427   0.22950   0.00000  Uiso   1.00
C282   C     0.36310   0.35572   0.27058   0.00000  Uiso   1.00
C283   C     0.33388   0.62385   0.25094   0.00000  Uiso   1.00
C284   C     0.66609   0.37614   0.24913   0.00000  Uiso   1.00
C285   C     0.51596   0.47333   0.27711   0.00000  Uiso   1.00
C286   C     0.48405   0.52664   0.22284   0.00000  Uiso   1.00
C287   C     0.46652   0.47355   0.27706   0.00000  Uiso   1.00
C288   C     0.53347   0.52646   0.22293   0.00000  Uiso   1.00
C289   C     0.63941   0.50076   0.33598   0.00000  Uiso   1.00
C290   C     0.36061   0.49972   0.16395   0.00000  Uiso   1.00
C291   C     0.62434   0.50585   0.38470   0.00000  Uiso   1.00
C292   C     0.37553   0.49852   0.11479   0.00000  Uiso   1.00
C293   C     0.63856   0.53227   0.45260   0.00000  Uiso   1.00
C294   C     0.35811   0.48521   0.04421   0.00000  Uiso   1.00
C295   C     0.65568   0.52308   0.40733   0.00000  Uiso   1.00
C296   C     0.34224   0.48937   0.09051   0.00000  Uiso   1.00
C297   C     0.57622   0.49717   0.40781   0.00000  Uiso   1.00
C298   C     0.42433   0.50520   0.09217   0.00000  Uiso   1.00
C299   C     0.55709   0.50834   0.45282   0.00000  Uiso   1.00
C300   C     0.44101   0.50332   0.04520   0.00000  Uiso   1.00
C301   C     0.58945   0.52535   0.47569   0.00000  Uiso   1.00
C302   C     0.40739   0.49130   0.02124   0.00000  Uiso   1.00
C303   C     0.50686   0.50316   0.47539   0.00000  Uiso   1.00
C304   C     0.49045   0.51153   0.02186   0.00000  Uiso   1.00
Cu305  Cu    0.38022   0.50001   0.25000   0.00000  Uiso   1.00
Cu306  Cu    0.61978   0.49999   0.25000   0.00000  Uiso   1.00
H307   H     0.44904   0.51025   0.11226   0.00000  Uiso   1.00
H308   H     0.55460   0.48153   0.38948   0.00000  Uiso   1.00
H309   H     0.63757   0.48407   0.10739   0.00000  Uiso   1.00
H310   H     0.35975   0.53032   0.38984   0.00000  Uiso   1.00
H311   H     0.66379   0.54563   0.46917   0.00000  Uiso   1.00
H312   H     0.66497   0.47677   0.02656   0.00000  Uiso   1.00
H313   H     0.51202   0.53937   0.07749   0.00000  Uiso   1.00
H314   H     0.48201   0.48705   0.41692   0.00000  Uiso   1.00
H315   H     0.61425   0.62688   0.21297   0.00000  Uiso   1.00
H316   H     0.38570   0.37311   0.28712   0.00000  Uiso   1.00
H317   H     0.44077   0.45242   0.29864   0.00000  Uiso   1.00
H318   H     0.55923   0.54756   0.20133   0.00000  Uiso   1.00
N319   N     0.45069   0.50001   0.24999   0.00000  Uiso   1.00
N320   N     0.54931   0.49999   0.25001   0.00000  Uiso   1.00
O321   O     0.37291   0.43989   0.25000   0.00000  Uiso   1.00
O322   O     0.62709   0.56011   0.25000   0.00000  Uiso   1.00
O323   O     0.62706   0.43988   0.25001   0.00000  Uiso   1.00
O324   O     0.37294   0.56012   0.24999   0.00000  Uiso   1.00
O325   O     0.35186   0.50001   0.31492   0.00000  Uiso   1.00
O326   O     0.64814   0.49999   0.18509   0.00000  Uiso   1.00
O327   O     0.60600   0.50000   0.31492   0.00000  Uiso   1.00
O328   O     0.39400   0.50000   0.18508   0.00000  Uiso   1.00
O329   O     0.60417   0.55318   0.04248   0.00000  Uiso   1.00
H330   H     0.58689   0.55801   0.07432   0.00000  Uiso   1.00
O331   O     0.39042   0.47212   0.45230   0.00000  Uiso   1.00
H332   H     0.40734   0.46855   0.42014   0.00000  Uiso   1.00
C333   C     0.60565   0.37311   0.20403   0.00000  Uiso   1.00
N334   N     0.58127   0.38873   0.18462   0.00000  Uiso   1.00
C335   C     0.39417   0.62685   0.29618   0.00000  Uiso   1.00
N336   N     0.41845   0.61122   0.31567   0.00000  Uiso   1.00
C337   C     0.53032   0.44412   0.30602   0.00000  Uiso   1.00
N338   N     0.54151   0.42042   0.32934   0.00000  Uiso   1.00
C339   C     0.46972   0.55564   0.19370   0.00000  Uiso   1.00
N340   N     0.45855   0.57913   0.17017   0.00000  Uiso   1.00
C341   C     0.99987   0.42080   0.24935   0.00000  Uiso   1.00
C342   C     0.66678   0.57920   0.25068   0.00000  Uiso   1.00
C343   C     0.85688   0.52899   0.04340   0.00000  Uiso   1.00
C344   C     0.80570   0.49101   0.45262   0.00000  Uiso   1.00
C345   C     0.90578   0.53589   0.02089   0.00000  Uiso   1.00
C346   C     0.75661   0.48507   0.47499   0.00000  Uiso   1.00
C347   C     0.96943   0.35359   0.22827   0.00000  Uiso   1.00
C348   C     0.69716   0.64639   0.27184   0.00000  Uiso   1.00
C349   C     0.97019   0.64427   0.22950   0.00000  Uiso   1.00
C350   C     0.69643   0.35572   0.27058   0.00000  Uiso   1.00
C351   C     0.66721   0.62385   0.25094   0.00000  Uiso   1.00
C352   C     0.99942   0.37614   0.24913   0.00000  Uiso   1.00
C353   C     0.84929   0.47333   0.27711   0.00000  Uiso   1.00
C354   C     0.81738   0.52664   0.22284   0.00000  Uiso   1.00
C355   C     0.79986   0.47355   0.27706   0.00000  Uiso   1.00
C356   C     0.86681   0.52646   0.22293   0.00000  Uiso   1.00
C357   C     0.97274   0.50076   0.33598   0.00000  Uiso   1.00
C358   C     0.69395   0.49972   0.16395   0.00000  Uiso   1.00
C359   C     0.95767   0.50585   0.38470   0.00000  Uiso   1.00
C360   C     0.70887   0.49852   0.11479   0.00000  Uiso   1.00
C361   C     0.97189   0.53227   0.45260   0.00000  Uiso   1.00
C362   C     0.69144   0.48521   0.04421   0.00000  Uiso   1.00
C363   C     0.98902   0.52308   0.40733   0.00000  Uiso   1.00
C364   C     0.67557   0.48937   0.09051   0.00000  Uiso   1.00
C365   C     0.90956   0.49717   0.40781   0.00000  Uiso   1.00
C366   C     0.75766   0.50520   0.09217   0.00000  Uiso   1.00
C367   C     0.89042   0.50834   0.45282   0.00000  Uiso   1.00
C368   C     0.77435   0.50332   0.04520   0.00000  Uiso   1.00
C369   C     0.92279   0.52535   0.47569   0.00000  Uiso   1.00
C370   C     0.74072   0.49130   0.02124   0.00000  Uiso   1.00
C371   C     0.84020   0.50316   0.47539   0.00000  Uiso   1.00
C372   C     0.82378   0.51153   0.02186   0.00000  Uiso   1.00
Cu373  Cu    0.71355   0.50001   0.25000   0.00000  Uiso   1.00
Cu374  Cu    0.95311   0.49999   0.25000   0.00000  Uiso   1.00
H375   H     0.78237   0.51025   0.11226   0.00000  Uiso   1.00
H376   H     0.88793   0.48153   0.38948   0.00000  Uiso   1.00
H377   H     0.97090   0.48407   0.10739   0.00000  Uiso   1.00
H378   H     0.69309   0.53032   0.38984   0.00000  Uiso   1.00
H379   H     0.99713   0.54563   0.46917   0.00000  Uiso   1.00
H380   H     0.99831   0.47677   0.02656   0.00000  Uiso   1.00
H381   H     0.84535   0.53937   0.07749   0.00000  Uiso   1.00
H382   H     0.81534   0.48705   0.41692   0.00000  Uiso   1.00
H383   H     0.94758   0.62688   0.21297   0.00000  Uiso   1.00
H384   H     0.71903   0.37311   0.28712   0.00000  Uiso   1.00
H385   H     0.77410   0.45242   0.29864   0.00000  Uiso   1.00
H386   H     0.89257   0.54756   0.20133   0.00000  Uiso   1.00
N387   N     0.78403   0.50001   0.24999   0.00000  Uiso   1.00
N388   N     0.88264   0.49999   0.25001   0.00000  Uiso   1.00
O389   O     0.70625   0.43989   0.25000   0.00000  Uiso   1.00
O390   O     0.96042   0.56011   0.25000   0.00000  Uiso   1.00
O391   O     0.96039   0.43988   0.25001   0.00000  Uiso   1.00
O392   O     0.70628   0.56012   0.24999   0.00000  Uiso   1.00
O393   O     0.68519   0.50001   0.31492   0.00000  Uiso   1.00
O394   O     0.98148   0.49999   0.18509   0.00000  Uiso   1.00
O395   O     0.93933   0.50000   0.31492   0.00000  Uiso   1.00
O396   O     0.72733   0.50000   0.18508   0.00000  Uiso   1.00
O397   O     0.93751   0.55318   0.04248   0.00000  Uiso   1.00
H398   H     0.92022   0.55801   0.07432   0.00000  Uiso   1.00
O399   O     0.72376   0.47212   0.45230   0.00000  Uiso   1.00
H400   H     0.74068   0.46855   0.42014   0.00000  Uiso   1.00
C401   C     0.93898   0.37311   0.20403   0.00000  Uiso   1.00
N402   N     0.91460   0.38873   0.18462   0.00000  Uiso   1.00
C403   C     0.72750   0.62685   0.29618   0.00000  Uiso   1.00
N404   N     0.75178   0.61122   0.31567   0.00000  Uiso   1.00
C405   C     0.86365   0.44412   0.30602   0.00000  Uiso   1.00
N406   N     0.87484   0.42042   0.32934   0.00000  Uiso   1.00
C407   C     0.80306   0.55564   0.19370   0.00000  Uiso   1.00
N408   N     0.79188   0.57913   0.17017   0.00000  Uiso   1.00
C409   C     0.33321   0.75413   0.24935   0.00000  Uiso   1.00
C410   C     0.00012   0.91253   0.25068   0.00000  Uiso   1.00
C411   C     0.19021   0.86233   0.04340   0.00000  Uiso   1.00
C412   C     0.13904   0.82434   0.45262   0.00000  Uiso   1.00
C413   C     0.23912   0.86922   0.02089   0.00000  Uiso   1.00
C414   C     0.08994   0.81840   0.47499   0.00000  Uiso   1.00
C415   C     0.30276   0.68693   0.22827   0.00000  Uiso   1.00
C416   C     0.03049   0.97973   0.27184   0.00000  Uiso   1.00
C417   C     0.30352   0.97761   0.22950   0.00000  Uiso   1.00
C418   C     0.02977   0.68905   0.27058   0.00000  Uiso   1.00
C419   C     0.00054   0.95718   0.25094   0.00000  Uiso   1.00
C420   C     0.33275   0.70948   0.24913   0.00000  Uiso   1.00
C421   C     0.18262   0.80666   0.27711   0.00000  Uiso   1.00
C422   C     0.15071   0.85997   0.22284   0.00000  Uiso   1.00
C423   C     0.13319   0.80688   0.27706   0.00000  Uiso   1.00
C424   C     0.20014   0.85979   0.22293   0.00000  Uiso   1.00
C425   C     0.30607   0.83409   0.33598   0.00000  Uiso   1.00
C426   C     0.02728   0.83306   0.16395   0.00000  Uiso   1.00
C427   C     0.29101   0.83918   0.38470   0.00000  Uiso   1.00
C428   C     0.04220   0.83186   0.11479   0.00000  Uiso   1.00
C429   C     0.30523   0.86560   0.45260   0.00000  Uiso   1.00
C430   C     0.02478   0.81854   0.04421   0.00000  Uiso   1.00
C431   C     0.32235   0.85641   0.40733   0.00000  Uiso   1.00
C432   C     0.00891   0.82270   0.09051   0.00000  Uiso   1.00
C433   C     0.24289   0.83050   0.40781   0.00000  Uiso   1.00
C434   C     0.09099   0.83854   0.09217   0.00000  Uiso   1.00
C435   C     0.22375   0.84168   0.45282   0.00000  Uiso   1.00
C436   C     0.10768   0.83665   0.04520   0.00000  Uiso   1.00
C437   C     0.25612   0.85869   0.47569   0.00000  Uiso   1.00
C438   C     0.07405   0.82464   0.02124   0.00000  Uiso   1.00
C439   C     0.17353   0.83650   0.47539   0.00000  Uiso   1.00
C440   C     0.15712   0.84487   0.02186   0.00000  Uiso   1.00
Cu441  Cu    0.04689   0.83334   0.25000   0.00000  Uiso   1.00
Cu442  Cu    0.28645   0.83333   0.25000   0.00000  Uiso   1.00
H443   H     0.11570   0.84358   0.11226   0.00000  Uiso   1.00
H444   H     0.22126   0.81487   0.38948   0.00000  Uiso   1.00
H445   H     0.30424   0.81741   0.10739   0.00000  Uiso   1.00
H446   H     0.02642   0.86365   0.38984   0.00000  Uiso   1.00
H447   H     0.33046   0.87896   0.46917   0.00000  Uiso   1.00
H448   H     0.33164   0.81010   0.02656   0.00000  Uiso   1.00
H449   H     0.17869   0.87270   0.07749   0.00000  Uiso   1.00
H450   H     0.14867   0.82038   0.41692   0.00000  Uiso   1.00
H451   H     0.28092   0.96021   0.21297   0.00000  Uiso   1.00
H452   H     0.05237   0.70645   0.28712   0.00000  Uiso   1.00
H453   H     0.10744   0.78575   0.29864   0.00000  Uiso   1.00
H454   H     0.22590   0.88090   0.20133   0.00000  Uiso   1.00
N455   N     0.11736   0.83334   0.24999   0.00000  Uiso   1.00
N456   N     0.21597   0.83332   0.25001   0.00000  Uiso   1.00
O457   O     0.03958   0.77322   0.25000   0.00000  Uiso   1.00
O458   O     0.29375   0.89345   0.25000   0.00000  Uiso   1.00
O459   O     0.29372   0.77321   0.25001   0.00000  Uiso   1.00
O460   O     0.03961   0.89346   0.24999   0.00000  Uiso   1.00
O461   O     0.01852   0.83334   0.31492   0.00000  Uiso   1.00
O462   O     0.31481   0.83332   0.18509   0.00000  Uiso   1.00
O463   O     0.27267   0.83333   0.31492   0.00000  Uiso   1.00
O464   O     0.06067   0.83333   0.18508   0.00000  Uiso   1.00
O465   O     0.27084   0.88651   0.04248   0.00000  Uiso   1.00
H466   H     0.25356   0.89135   0.07432   0.00000  Uiso   1.00
O467   O     0.05709   0.80545   0.45230   0.00000  Uiso   1.00
H468   H     0.07401   0.80188   0.42014   0.00000  Uiso   1.00
C469   C     0.27232   0.70645   0.20403   0.00000  Uiso   1.00
N470   N     0.24794   0.72206   0.18462   0.00000  Uiso   1.00
C471   C     0.06083   0.96019   0.29618   0.00000  Uiso   1.00
N472   N     0.08511   0.94455   0.31567   0.00000  Uiso   1.00
C473   C     0.19699   0.77745   0.30602   0.00000  Uiso   1.00
N474   N     0.20818   0.75376   0.32934   0.00000  Uiso   1.00
C475   C     0.13639   0.88898   0.19370   0.00000  Uiso   1.00
N476   N     0.12521   0.91246   0.17017   0.00000  Uiso   1.00
C477   C     0.66654   0.75413   0.24935   0.00000  Uiso   1.00
C478   C     0.33345   0.91253   0.25068   0.00000  Uiso   1.00
C479   C     0.52354   0.86233   0.04340   0.00000  Uiso   1.00
C480   C     0.47237   0.82434   0.45262   0.00000  Uiso   1.00
C481   C     0.57245   0.86922   0.02089   0.00000  Uiso   1.00
C482   C     0.42327   0.81840   0.47499   0.00000  Uiso   1.00
C483   C     0.63610   0.68693   0.22827   0.00000  Uiso   1.00
C484   C     0.36383   0.97973   0.27184   0.00000  Uiso   1.00
C485   C     0.63685   0.97761   0.22950   0.00000  Uiso   1.00
C486   C     0.36310   0.68905   0.27058   0.00000  Uiso   1.00
C487   C     0.33388   0.95718   0.25094   0.00000  Uiso   1.00
C488   C     0.66609   0.70948   0.24913   0.00000  Uiso   1.00
C489   C     0.51596   0.80666   0.27711   0.00000  Uiso   1.00
C490   C     0.48405   0.85997   0.22284   0.00000  Uiso   1.00
C491   C     0.46652   0.80688   0.27706   0.00000  Uiso   1.00
C492   C     0.53347   0.85979   0.22293   0.00000  Uiso   1.00
C493   C     0.63941   0.83409   0.33598   0.00000  Uiso   1.00
C494   C     0.36061   0.83306   0.16395   0.00000  Uiso   1.00
C495   C     0.62434   0.83918   0.38470   0.00000  Uiso   1.00
C496   C     0.37553   0.83186   0.11479   0.00000  Uiso   1.00
C497   C     0.63856   0.86560   0.45260   0.00000  Uiso   1.00
C498   C     0.35811   0.81854   0.04421   0.00000  Uiso   1.00
C499   C     0.65568   0.85641   0.40733   0.00000  Uiso   1.00
C500   C     0.34224   0.82270   0.09051   0.00000  Uiso   1.00
C501   C     0.57622   0.83050   0.40781   0.00000  Uiso   1.00
C502   C     0.42433   0.83854   0.09217   0.00000  Uiso   1.00
C503   C     0.55709   0.84168   0.45282   0.00000  Uiso   1.00
C504   C     0.44101   0.83665   0.04520   0.00000  Uiso   1.00
C505   C     0.58945   0.85869   0.47569   0.00000  Uiso   1.00
C506   C     0.40739   0.82464   0.02124   0.00000  Uiso   1.00
C507   C     0.50686   0.83650   0.47539   0.00000  Uiso   1.00
C508   C     0.49045   0.84487   0.02186   0.00000  Uiso   1.00
Cu509  Cu    0.38022   0.83334   0.25000   0.00000  Uiso   1.00
Cu510  Cu    0.61978   0.83333   0.25000   0.00000  Uiso   1.00
H511   H     0.44904   0.84358   0.11226   0.00000  Uiso   1.00
H512   H     0.55460   0.81487   0.38948   0.00000  Uiso   1.00
H513   H     0.63757   0.81741   0.10739   0.00000  Uiso   1.00
H514   H     0.35975   0.86365   0.38984   0.00000  Uiso   1.00
H515   H     0.66379   0.87896   0.46917   0.00000  Uiso   1.00
H516   H     0.66497   0.81010   0.02656   0.00000  Uiso   1.00
H517   H     0.51202   0.87270   0.07749   0.00000  Uiso   1.00
H518   H     0.48201   0.82038   0.41692   0.00000  Uiso   1.00
H519   H     0.61425   0.96021   0.21297   0.00000  Uiso   1.00
H520   H     0.38570   0.70645   0.28712   0.00000  Uiso   1.00
H521   H     0.44077   0.78575   0.29864   0.00000  Uiso   1.00
H522   H     0.55923   0.88090   0.20133   0.00000  Uiso   1.00
N523   N     0.45069   0.83334   0.24999   0.00000  Uiso   1.00
N524   N     0.54931   0.83332   0.25001   0.00000  Uiso   1.00
O525   O     0.37291   0.77322   0.25000   0.00000  Uiso   1.00
O526   O     0.62709   0.89345   0.25000   0.00000  Uiso   1.00
O527   O     0.62706   0.77321   0.25001   0.00000  Uiso   1.00
O528   O     0.37294   0.89346   0.24999   0.00000  Uiso   1.00
O529   O     0.35186   0.83334   0.31492   0.00000  Uiso   1.00
O530   O     0.64814   0.83332   0.18509   0.00000  Uiso   1.00
O531   O     0.60600   0.83333   0.31492   0.00000  Uiso   1.00
O532   O     0.39400   0.83333   0.18508   0.00000  Uiso   1.00
O533   O     0.60417   0.88651   0.04248   0.00000  Uiso   1.00
H534   H     0.58689   0.89135   0.07432   0.00000  Uiso   1.00
O535   O     0.39042   0.80545   0.45230   0.00000  Uiso   1.00
H536   H     0.40734   0.80188   0.42014   0.00000  Uiso   1.00
C537   C     0.60565   0.70645   0.20403   0.00000  Uiso   1.00
N538   N     0.58127   0.72206   0.18462   0.00000  Uiso   1.00
C539   C     0.39417   0.96019   0.29618   0.00000  Uiso   1.00
N540   N     0.41845   0.94455   0.31567   0.00000  Uiso   1.00
C541   C     0.53032   0.77745   0.30602   0.00000  Uiso   1.00
N542   N     0.54151   0.75376   0.32934   0.00000  Uiso   1.00
C543   C     0.46972   0.88898   0.19370   0.00000  Uiso   1.00
N544   N     0.45855   0.91246   0.17017   0.00000  Uiso   1.00
C545   C     0.99987   0.75413   0.24935   0.00000  Uiso   1.00
C546   C     0.66678   0.91253   0.25068   0.00000  Uiso   1.00
C547   C     0.85688   0.86233   0.04340   0.00000  Uiso   1.00
C548   C     0.80570   0.82434   0.45262   0.00000  Uiso   1.00
C549   C     0.90578   0.86922   0.02089   0.00000  Uiso   1.00
C550   C     0.75661   0.81840   0.47499   0.00000  Uiso   1.00
C551   C     0.96943   0.68693   0.22827   0.00000  Uiso   1.00
C552   C     0.69716   0.97973   0.27184   0.00000  Uiso   1.00
C553   C     0.97019   0.97761   0.22950   0.00000  Uiso   1.00
C554   C     0.69643   0.68905   0.27058   0.00000  Uiso   1.00
C555   C     0.66721   0.95718   0.25094   0.00000  Uiso   1.00
C556   C     0.99942   0.70948   0.24913   0.00000  Uiso   1.00
C557   C     0.84929   0.80666   0.27711   0.00000  Uiso   1.00
C558   C     0.81738   0.85997   0.22284   0.00000  Uiso   1.00
C559   C     0.79986   0.80688   0.27706   0.00000  Uiso   1.00
C560   C     0.86681   0.85979   0.22293   0.00000  Uiso   1.00
C561   C     0.97274   0.83409   0.33598   0.00000  Uiso   1.00
C562   C     0.69395   0.83306   0.16395   0.00000  Uiso   1.00
C563   C     0.95767   0.83918   0.38470   0.00000  Uiso   1.00
C564   C     0.70887   0.83186   0.11479   0.00000  Uiso   1.00
C565   C     0.97189   0.86560   0.45260   0.00000  Uiso   1.00
C566   C     0.69144   0.81854   0.04421   0.00000  Uiso   1.00
C567   C     0.98902   0.85641   0.40733   0.00000  Uiso   1.00
C568   C     0.67557   0.82270   0.09051   0.00000  Uiso   1.00
C569   C     0.90956   0.83050   0.40781   0.00000  Uiso   1.00
C570   C     0.75766   0.83854   0.09217   0.00000  Uiso   1.00
C571   C     0.89042   0.84168   0.45282   0.00000  Uiso   1.00
C572   C     0.77435   0.83665   0.04520   0.00000  Uiso   1.00
C573   C     0.92279   0.85869   0.47569   0.00000  Uiso   1.00
C574   C     0.74072   0.82464   0.02124   0.00000  Uiso   1.00
C575   C     0.84020   0.83650   0.47539   0.00000  Uiso   1.00
C576   C     0.82378   0.84487   0.02186   0.00000  Uiso   1.00
Cu577  Cu    0.71355   0.83334   0.25000   0.00000  Uiso   1.00
Cu578  Cu    0.95311   0.83333   0.25000   0.00000  Uiso   1.00
H579   H     0.78237   0.84358   0.11226   0.00000  Uiso   1.00
H580   H     0.88793   0.81487   0.38948   0.00000  Uiso   1.00
H581   H     0.97090   0.81741   0.10739   0.00000  Uiso   1.00
H582   H     0.69309   0.86365   0.38984   0.00000  Uiso   1.00
H583   H     0.99713   0.87896   0.46917   0.00000  Uiso   1.00
H584   H     0.99831   0.81010   0.02656   0.00000  Uiso   1.00
H585   H     0.84535   0.87270   0.07749   0.00000  Uiso   1.00
H586   H     0.81534   0.82038   0.41692   0.00000  Uiso   1.00
H587   H     0.94758   0.96021   0.21297   0.00000  Uiso   1.00
H588   H     0.71903   0.70645   0.28712   0.00000  Uiso   1.00
H589   H     0.77410   0.78575   0.29864   0.00000  Uiso   1.00
H590   H     0.89257   0.88090   0.20133   0.00000  Uiso   1.00
N591   N     0.78403   0.83334   0.24999   0.00000  Uiso   1.00
N592   N     0.88264   0.83332   0.25001   0.00000  Uiso   1.00
O593   O     0.70625   0.77322   0.25000   0.00000  Uiso   1.00
O594   O     0.96042   0.89345   0.25000   0.00000  Uiso   1.00
O595   O     0.96039   0.77321   0.25001   0.00000  Uiso   1.00
O596   O     0.70628   0.89346   0.24999   0.00000  Uiso   1.00
O597   O     0.68519   0.83334   0.31492   0.00000  Uiso   1.00
O598   O     0.98148   0.83332   0.18509   0.00000  Uiso   1.00
O599   O     0.93933   0.83333   0.31492   0.00000  Uiso   1.00
O600   O     0.72733   0.83333   0.18508   0.00000  Uiso   1.00
O601   O     0.93751   0.88651   0.04248   0.00000  Uiso   1.00
H602   H     0.92022   0.89135   0.07432   0.00000  Uiso   1.00
O603   O     0.72376   0.80545   0.45230   0.00000  Uiso   1.00
H604   H     0.74068   0.80188   0.42014   0.00000  Uiso   1.00
C605   C     0.93898   0.70645   0.20403   0.00000  Uiso   1.00
N606   N     0.91460   0.72206   0.18462   0.00000  Uiso   1.00
C607   C     0.72750   0.96019   0.29618   0.00000  Uiso   1.00
N608   N     0.75178   0.94455   0.31567   0.00000  Uiso   1.00
C609   C     0.86365   0.77745   0.30602   0.00000  Uiso   1.00
N610   N     0.87484   0.75376   0.32934   0.00000  Uiso   1.00
C611   C     0.80306   0.88898   0.19370   0.00000  Uiso   1.00
N612   N     0.79188   0.91246   0.17017   0.00000  Uiso   1.00
C613   C     0.33321   0.08746   0.74935   0.00000  Uiso   1.00
C614   C     0.00012   0.24587   0.75068   0.00000  Uiso   1.00
C615   C     0.19021   0.19566   0.54340   0.00000  Uiso   1.00
C616   C     0.13904   0.15768   0.95262   0.00000  Uiso   1.00
C617   C     0.23912   0.20255   0.52089   0.00000  Uiso   1.00
C618   C     0.08994   0.15174   0.97499   0.00000  Uiso   1.00
C619   C     0.30276   0.02026   0.72827   0.00000  Uiso   1.00
C620   C     0.03049   0.31306   0.77184   0.00000  Uiso   1.00
C621   C     0.30352   0.31094   0.72950   0.00000  Uiso   1.00
C622   C     0.02977   0.02238   0.77058   0.00000  Uiso   1.00
C623   C     0.00054   0.29051   0.75094   0.00000  Uiso   1.00
C624   C     0.33275   0.04281   0.74913   0.00000  Uiso   1.00
C625   C     0.18262   0.14000   0.77711   0.00000  Uiso   1.00
C626   C     0.15071   0.19330   0.72284   0.00000  Uiso   1.00
C627   C     0.13319   0.14021   0.77706   0.00000  Uiso   1.00
C628   C     0.20014   0.19312   0.72293   0.00000  Uiso   1.00
C629   C     0.30607   0.16742   0.83598   0.00000  Uiso   1.00
C630   C     0.02728   0.16639   0.66395   0.00000  Uiso   1.00
C631   C     0.29101   0.17252   0.88470   0.00000  Uiso   1.00
C632   C     0.04220   0.16519   0.61479   0.00000  Uiso   1.00
C633   C     0.30523   0.19894   0.95260   0.00000  Uiso   1.00
C634   C     0.02478   0.15187   0.54421   0.00000  Uiso   1.00
C635   C     0.32235   0.18975   0.90733   0.00000  Uiso   1.00
C636   C     0.00891   0.15604   0.59051   0.00000  Uiso   1.00
C637   C     0.24289   0.16383   0.90781   0.00000  Uiso   1.00
C638   C     0.09099   0.17187   0.59217   0.00000  Uiso   1.00
C639   C     0.22375   0.17501   0.95282   0.00000  Uiso   1.00
C640   C     0.10768   0.16999   0.54520   0.00000  Uiso   1.00
C641   C     0.25612   0.19202   0.97569   0.00000  Uiso   1.00
C642   C     0.07405   0.15797   0.52124   0.00000  Uiso   1.00
C643   C     0.17353   0.16983   0.97539   0.00000  Uiso   1.00
C644   C     0.15712   0.17820   0.52186   0.00000  Uiso   1.00
Cu645  Cu    0.04689   0.16667   0.75000   0.00000  Uiso   1.00
Cu646  Cu    0.28645   0.16666   0.75000   0.00000  Uiso   1.00
H647   H     0.11570   0.17691   0.61226   0.00000  Uiso   1.00
H648   H     0.22126   0.14820   0.88948   0.00000  Uiso   1.00
H649   H     0.30424   0.15074   0.60739   0.00000  Uiso   1.00
H650   H     0.02642   0.19699   0.88984   0.00000  Uiso   1.00
H651   H     0.33046   0.21230   0.96917   0.00000  Uiso   1.00
H652   H     0.33164   0.14343   0.52656   0.00000  Uiso   1.00
H653   H     0.17869   0.20604   0.57749   0.00000  Uiso   1.00
H654   H     0.14867   0.15371   0.91692   0.00000  Uiso   1.00
H655   H     0.28092   0.29354   0.71297   0.00000  Uiso   1.00
H656   H     0.05237   0.03978   0.78712   0.00000  Uiso   1.00
H657   H     0.10744   0.11909   0.79864   0.00000  Uiso   1.00
H658   H     0.22590   0.21423   0.70133   0.00000  Uiso   1.00
N659   N     0.11736   0.16668   0.74999   0.00000  Uiso   1.00
N660   N     0.21597   0.16666   0.75001   0.00000  Uiso   1.00
O661   O     0.03958   0.10655   0.75000   0.00000  Uiso   1.00
O662   O     0.29375   0.22678   0.75000   0.00000  Uiso   1.00
O663   O     0.29372   0.10654   0.75001   0.00000  Uiso   1.00
O664   O     0.03961   0.22679   0.74999   0.00000  Uiso   1.00
O665   O     0.01852   0.16668   0.81492   0.00000  Uiso   1.00
O666   O     0.31481   0.16666   0.68509   0.00000  Uiso   1.00
O667   O     0.27267   0.16667   0.81492   0.00000  Uiso   1.00
O668   O     0.06067   0.16667   0.68508   0.00000  Uiso   1.00
O669   O     0.27084   0.21984   0.54248   0.00000  Uiso   1.00
H670   H     0.25356   0.22468   0.57432   0.00000  Uiso   1.00
O671   O     0.05709   0.13878   0.95230   0.00000  Uiso   1.00
H672   H     0.07401   0.13521   0.92014   0.00000  Uiso   1.00
C673   C     0.27232   0.03978   0.70403   0.00000  Uiso   1.00
N674   N     0.24794   0.05540   0.68462   0.00000  Uiso   1.00
C675   C     0.06083   0.29352   0.79618   0.00000  Uiso   1.00
N676   N     0.08511   0.27788   0.81567   0.00000  Uiso   1.00
C677   C     0.19699   0.11078   0.80602   0.00000  Uiso   1.00
N678   N     0.20818   0.08709   0.82934   0.00000  Uiso   1.00
C679   C     0.13639   0.22231   0.69370   0.00000  Uiso   1.00
N680   N     0.12521   0.24580   0.67017   0.00000  Uiso   1.00
C681   C     0.66654   0.08746   0.74935   0.00000  Uiso   1.00
C682   C     0.33345   0.24587   0.75068   0.00000  Uiso   1.00
C683   C     0.52354   0.19566   0.54340   0.00000  Uiso   1.00
C684   C     0.47237   0.15768   0.95262   0.00000  Uiso   1.00
C685   C     0.57245   0.20255   0.52089   0.00000  Uiso   1.00
C686   C     0.42327   0.15174   0.97499   0.00000  Uiso   1.00
C687   C     0.63610   0.02026   0.72827   0.00000  Uiso   1.00
C688   C     0.36383   0.31306   0.77184   0.00000  Uiso   1.00
C689   C     0.63685   0.31094   0.72950   0.00000  Uiso   1.00
C690   C     0.36310   0.02238   0.77058   0.00000  Uiso   1.00
C691   C     0.33388   0.29051   0.75094   0.00000  Uiso   1.00
C692   C     0.66609   0.04281   0.74913   0.00000  Uiso   1.00
C693   C     0.51596   0.14000   0.77711   0.00000  Uiso   1.00
C694   C     0.48405   0.19330   0.72284   0.00000  Uiso   1.00
C695   C     0.46652   0.14021   0.77706   0.00000  Uiso   1.00
C696   C     0.53347   0.19312   0.72293   0.00000  Uiso   1.00
C697   C     0.63941   0.16742   0.83598   0.00000  Uiso   1.00
C698   C     0.36061   0.16639   0.66395   0.00000  Uiso   1.00
C699   C     0.62434   0.17252   0.88470   0.00000  Uiso   1.00
C700   C     0.37553   0.16519   0.61479   0.00000  Uiso   1.00
C701   C     0.63856   0.19894   0.95260   0.00000  Uiso   1.00
C702   C     0.35811   0.15187   0.54421   0.00000  Uiso   1.00
C703   C     0.65568   0.18975   0.90733   0.00000  Uiso   1.00
C704   C     0.34224   0.15604   0.59051   0.00000  Uiso   1.00
C705   C     0.57622   0.16383   0.90781   0.00000  Uiso   1.00
C706   C     0.42433   0.17187   0.59217   0.00000  Uiso   1.00
C707   C     0.55709   0.17501   0.95282   0.00000  Uiso   1.00
C708   C     0.44101   0.16999   0.54520   0.00000  Uiso   1.00
C709   C     0.58945   0.19202   0.97569   0.00000  Uiso   1.00
C710   C     0.40739   0.15797   0.52124   0.00000  Uiso   1.00
C711   C     0.50686   0.16983   0.97539   0.00000  Uiso   1.00
C712   C     0.49045   0.17820   0.52186   0.00000  Uiso   1.00
Cu713  Cu    0.38022   0.16667   0.75000   0.00000  Uiso   1.00
Cu714  Cu    0.61978   0.16666   0.75000   0.00000  Uiso   1.00
H715   H     0.44904   0.17691   0.61226   0.00000  Uiso   1.00
H716   H     0.55460   0.14820   0.88948   0.00000  Uiso   1.00
H717   H     0.63757   0.15074   0.60739   0.00000  Uiso   1.00
H718   H     0.35975   0.19699   0.88984   0.00000  Uiso   1.00
H719   H     0.66379   0.21230   0.96917   0.00000  Uiso   1.00
H720   H     0.66497   0.14343   0.52656   0.00000  Uiso   1.00
H721   H     0.51202   0.20604   0.57749   0.00000  Uiso   1.00
H722   H     0.48201   0.15371   0.91692   0.00000  Uiso   1.00
H723   H     0.61425   0.29354   0.71297   0.00000  Uiso   1.00
H724   H     0.38570   0.03978   0.78712   0.00000  Uiso   1.00
H725   H     0.44077   0.11909   0.79864   0.00000  Uiso   1.00
H726   H     0.55923   0.21423   0.70133   0.00000  Uiso   1.00
N727   N     0.45069   0.16668   0.74999   0.00000  Uiso   1.00
N728   N     0.54931   0.16666   0.75001   0.00000  Uiso   1.00
O729   O     0.37291   0.10655   0.75000   0.00000  Uiso   1.00
O730   O     0.62709   0.22678   0.75000   0.00000  Uiso   1.00
O731   O     0.62706   0.10654   0.75001   0.00000  Uiso   1.00
O732   O     0.37294   0.22679   0.74999   0.00000  Uiso   1.00
O733   O     0.35186   0.16668   0.81492   0.00000  Uiso   1.00
O734   O     0.64814   0.16666   0.68509   0.00000  Uiso   1.00
O735   O     0.60600   0.16667   0.81492   0.00000  Uiso   1.00
O736   O     0.39400   0.16667   0.68508   0.00000  Uiso   1.00
O737   O     0.60417   0.21984   0.54248   0.00000  Uiso   1.00
H738   H     0.58689   0.22468   0.57432   0.00000  Uiso   1.00
O739   O     0.39042   0.13878   0.95230   0.00000  Uiso   1.00
H740   H     0.40734   0.13521   0.92014   0.00000  Uiso   1.00
C741   C     0.60565   0.03978   0.70403   0.00000  Uiso   1.00
N742   N     0.58127   0.05540   0.68462   0.00000  Uiso   1.00
C743   C     0.39417   0.29352   0.79618   0.00000  Uiso   1.00
N744   N     0.41845   0.27788   0.81567   0.00000  Uiso   1.00
C745   C     0.53032   0.11078   0.80602   0.00000  Uiso   1.00
N746   N     0.54151   0.08709   0.82934   0.00000  Uiso   1.00
C747   C     0.46972   0.22231   0.69370   0.00000  Uiso   1.00
N748   N     0.45855   0.24580   0.67017   0.00000  Uiso   1.00
C749   C     0.99987   0.08746   0.74935   0.00000  Uiso   1.00
C750   C     0.66678   0.24587   0.75068   0.00000  Uiso   1.00
C751   C     0.85688   0.19566   0.54340   0.00000  Uiso   1.00
C752   C     0.80570   0.15768   0.95262   0.00000  Uiso   1.00
C753   C     0.90578   0.20255   0.52089   0.00000  Uiso   1.00
C754   C     0.75661   0.15174   0.97499   0.00000  Uiso   1.00
C755   C     0.96943   0.02026   0.72827   0.00000  Uiso   1.00
C756   C     0.69716   0.31306   0.77184   0.00000  Uiso   1.00
C757   C     0.97019   0.31094   0.72950   0.00000  Uiso   1.00
C758   C     0.69643   0.02238   0.77058   0.00000  Uiso   1.00
C759   C     0.66721   0.29051   0.75094   0.00000  Uiso   1.00
C760   C     0.99942   0.04281   0.74913   0.00000  Uiso   1.00
C761   C     0.84929   0.14000   0.77711   0.00000  Uiso   1.00
C762   C     0.81738   0.19330   0.72284   0.00000  Uiso   1.00
C763   C     0.79986   0.14021   0.77706   0.00000  Uiso   1.00
C764   C     0.86681   0.19312   0.72293   0.00000  Uiso   1.00
C765   C     0.97274   0.16742   0.83598   0.00000  Uiso   1.00
C766   C     0.69395   0.16639   0.66395   0.00000  Uiso   1.00
C767   C     0.95767   0.17252   0.88470   0.00000  Uiso   1.00
C768   C     0.70887   0.16519   0.61479   0.00000  Uiso   1.00
C769   C     0.97189   0.19894   0.95260   0.00000  Uiso   1.00
C770   C     0.69144   0.15187   0.54421   0.00000  Uiso   1.00
C771   C     0.98902   0.18975   0.90733   0.00000  Uiso   1.00
C772   C     0.67557   0.15604   0.59051   0.00000  Uiso   1.00
C773   C     0.90956   0.16383   0.90781   0.00000  Uiso   1.00
C774   C     0.75766   0.17187   0.59217   0.00000  Uiso   1.00
C775   C     0.89042   0.17501   0.95282   0.00000  Uiso   1.00
C776   C     0.77435   0.16999   0.54520   0.00000  Uiso   1.00
C777   C     0.92279   0.19202   0.97569   0.00000  Uiso   1.00
C778   C     0.74072   0.15797   0.52124   0.00000  Uiso   1.00
C779   C     0.84020   0.16983   0.97539   0.00000  Uiso   1.00
C780   C     0.82378   0.17820   0.52186   0.00000  Uiso   1.00
Cu781  Cu    0.71355   0.16667   0.75000   0.00000  Uiso   1.00
Cu782  Cu    0.95311   0.16666   0.75000   0.00000  Uiso   1.00
H783   H     0.78237   0.17691   0.61226   0.00000  Uiso   1.00
H784   H     0.88793   0.14820   0.88948   0.00000  Uiso   1.00
H785   H     0.97090   0.15074   0.60739   0.00000  Uiso   1.00
H786   H     0.69309   0.19699   0.88984   0.00000  Uiso   1.00
H787   H     0.99713   0.21230   0.96917   0.00000  Uiso   1.00
H788   H     0.99831   0.14343   0.52656   0.00000  Uiso   1.00
H789   H     0.84535   0.20604   0.57749   0.00000  Uiso   1.00
H790   H     0.81534   0.15371   0.91692   0.00000  Uiso   1.00
H791   H     0.94758   0.29354   0.71297   0.00000  Uiso   1.00
H792   H     0.71903   0.03978   0.78712   0.00000  Uiso   1.00
H793   H     0.77410   0.11909   0.79864   0.00000  Uiso   1.00
H794   H     0.89257   0.21423   0.70133   0.00000  Uiso   1.00
N795   N     0.78403   0.16668   0.74999   0.00000  Uiso   1.00
N796   N     0.88264   0.16666   0.75001   0.00000  Uiso   1.00
O797   O     0.70625   0.10655   0.75000   0.00000  Uiso   1.00
O798   O     0.96042   0.22678   0.75000   0.00000  Uiso   1.00
O799   O     0.96039   0.10654   0.75001   0.00000  Uiso   1.00
O800   O     0.70628   0.22679   0.74999   0.00000  Uiso   1.00
O801   O     0.68519   0.16668   0.81492   0.00000  Uiso   1.00
O802   O     0.98148   0.16666   0.68509   0.00000  Uiso   1.00
O803   O     0.93933   0.16667   0.81492   0.00000  Uiso   1.00
O804   O     0.72733   0.16667   0.68508   0.00000  Uiso   1.00
O805   O     0.93751   0.21984   0.54248   0.00000  Uiso   1.00
H806   H     0.92022   0.22468   0.57432   0.00000  Uiso   1.00
O807   O     0.72376   0.13878   0.95230   0.00000  Uiso   1.00
H808   H     0.74068   0.13521   0.92014   0.00000  Uiso   1.00
C809   C     0.93898   0.03978   0.70403   0.00000  Uiso   1.00
N810   N     0.91460   0.05540   0.68462   0.00000  Uiso   1.00
C811   C     0.72750   0.29352   0.79618   0.00000  Uiso   1.00
N812   N     0.75178   0.27788   0.81567   0.00000  Uiso   1.00
C813   C     0.86365   0.11078   0.80602   0.00000  Uiso   1.00
N814   N     0.87484   0.08709   0.82934   0.00000  Uiso   1.00
C815   C     0.80306   0.22231   0.69370   0.00000  Uiso   1.00
N816   N     0.79188   0.24580   0.67017   0.00000  Uiso   1.00
C817   C     0.33321   0.42080   0.74935   0.00000  Uiso   1.00
C818   C     0.00012   0.57920   0.75068   0.00000  Uiso   1.00
C819   C     0.19021   0.52899   0.54340   0.00000  Uiso   1.00
C820   C     0.13904   0.49101   0.95262   0.00000  Uiso   1.00
C821   C     0.23912   0.53589   0.52089   0.00000  Uiso   1.00
C822   C     0.08994   0.48507   0.97499   0.00000  Uiso   1.00
C823   C     0.30276   0.35359   0.72827   0.00000  Uiso   1.00
C824   C     0.03049   0.64639   0.77184   0.00000  Uiso   1.00
C825   C     0.30352   0.64427   0.72950   0.00000  Uiso   1.00
C826   C     0.02977   0.35572   0.77058   0.00000  Uiso   1.00
C827   C     0.00054   0.62385   0.75094   0.00000  Uiso   1.00
C828   C     0.33275   0.37614   0.74913   0.00000  Uiso   1.00
C829   C     0.18262   0.47333   0.77711   0.00000  Uiso   1.00
C830   C     0.15071   0.52664   0.72284   0.00000  Uiso   1.00
C831   C     0.13319   0.47355   0.77706   0.00000  Uiso   1.00
C832   C     0.20014   0.52646   0.72293   0.00000  Uiso   1.00
C833   C     0.30607   0.50076   0.83598   0.00000  Uiso   1.00
C834   C     0.02728   0.49972   0.66395   0.00000  Uiso   1.00
C835   C     0.29101   0.50585   0.88470   0.00000  Uiso   1.00
C836   C     0.04220   0.49852   0.61479   0.00000  Uiso   1.00
C837   C     0.30523   0.53227   0.95260   0.00000  Uiso   1.00
C838   C     0.02478   0.48521   0.54421   0.00000  Uiso   1.00
C839   C     0.32235   0.52308   0.90733   0.00000  Uiso   1.00
C840   C     0.00891   0.48937   0.59051   0.00000  Uiso   1.00
C841   C     0.24289   0.49717   0.90781   0.00000  Uiso   1.00
C842   C     0.09099   0.50520   0.59217   0.00000  Uiso   1.00
C843   C     0.22375   0.50834   0.95282   0.00000  Uiso   1.00
C844   C     0.10768   0.50332   0.54520   0.00000  Uiso   1.00
C845   C     0.25612   0.52535   0.97569   0.00000  Uiso   1.00
C846   C     0.07405   0.49130   0.52124   0.00000  Uiso   1.00
C847   C     0.17353   0.50316   0.97539   0.00000  Uiso   1.00
C848   C     0.15712   0.51153   0.52186   0.00000  Uiso   1.00
Cu849  Cu    0.04689   0.50001   0.75000   0.00000  Uiso   1.00
Cu850  Cu    0.28645   0.49999   0.75000   0.00000  Uiso   1.00
H851   H     0.11570   0.51025   0.61226   0.00000  Uiso   1.00
H852   H     0.22126   0.48153   0.88948   0.00000  Uiso   1.00
H853   H     0.30424   0.48407   0.60739   0.00000  Uiso   1.00
H854   H     0.02642   0.53032   0.88984   0.00000  Uiso   1.00
H855   H     0.33046   0.54563   0.96917   0.00000  Uiso   1.00
H856   H     0.33164   0.47677   0.52656   0.00000  Uiso   1.00
H857   H     0.17869   0.53937   0.57749   0.00000  Uiso   1.00
H858   H     0.14867   0.48705   0.91692   0.00000  Uiso   1.00
H859   H     0.28092   0.62688   0.71297   0.00000  Uiso   1.00
H860   H     0.05237   0.37311   0.78712   0.00000  Uiso   1.00
H861   H     0.10744   0.45242   0.79864   0.00000  Uiso   1.00
H862   H     0.22590   0.54756   0.70133   0.00000  Uiso   1.00
N863   N     0.11736   0.50001   0.74999   0.00000  Uiso   1.00
N864   N     0.21597   0.49999   0.75001   0.00000  Uiso   1.00
O865   O     0.03958   0.43989   0.75000   0.00000  Uiso   1.00
O866   O     0.29375   0.56011   0.75000   0.00000  Uiso   1.00
O867   O     0.29372   0.43988   0.75001   0.00000  Uiso   1.00
O868   O     0.03961   0.56012   0.74999   0.00000  Uiso   1.00
O869   O     0.01852   0.50001   0.81492   0.00000  Uiso   1.00
O870   O     0.31481   0.49999   0.68509   0.00000  Uiso   1.00
O871   O     0.27267   0.50000   0.81492   0.00000  Uiso   1.00
O872   O     0.06067   0.50000   0.68508   0.00000  Uiso   1.00
O873   O     0.27084   0.55318   0.54248   0.00000  Uiso   1.00
H874   H     0.25356   0.55801   0.57432   0.00000  Uiso   1.00
O875   O     0.05709   0.47212   0.95230   0.00000  Uiso   1.00
H876   H     0.07401   0.46855   0.92014   0.00000  Uiso   1.00
C877   C     0.27232   0.37311   0.70403   0.00000  Uiso   1.00
N878   N     0.24794   0.38873   0.68462   0.00000  Uiso   1.00
C879   C     0.06083   0.62685   0.79618   0.00000  Uiso   1.00
N880   N     0.08511   0.61122   0.81567   0.00000  Uiso   1.00
C881   C     0.19699   0.44412   0.80602   0.00000  Uiso   1.00
N882   N     0.20818   0.42042   0.82934   0.00000  Uiso   1.00
C883   C     0.13639   0.55564   0.69370   0.00000  Uiso   1.00
N884   N     0.12521   0.57913   0.67017   0.00000  Uiso   1.00
C885   C     0.66654   0.42080   0.74935   0.00000  Uiso   1.00
C886   C     0.33345   0.57920   0.75068   0.00000  Uiso   1.00
C887   C     0.52354   0.52899   0.54340   0.00000  Uiso   1.00
C888   C     0.47237   0.49101   0.95262   0.00000  Uiso   1.00
C889   C     0.57245   0.53589   0.52089   0.00000  Uiso   1.00
C890   C     0.42327   0.48507   0.97499   0.00000  Uiso   1.00
C891   C     0.63610   0.35359   0.72827   0.00000  Uiso   1.00
C892   C     0.36383   0.64639   0.77184   0.00000  Uiso   1.00
C893   C     0.63685   0.64427   0.72950   0.00000  Uiso   1.00
C894   C     0.36310   0.35572   0.77058   0.00000  Uiso   1.00
C895   C     0.33388   0.62385   0.75094   0.00000  Uiso   1.00
C896   C     0.66609   0.37614   0.74913   0.00000  Uiso   1.00
C897   C     0.51596   0.47333   0.77711   0.00000  Uiso   1.00
C898   C     0.48405   0.52664   0.72284   0.00000  Uiso   1.00
C899   C     0.46652   0.47355   0.77706   0.00000  Uiso   1.00
C900   C     0.53347   0.52646   0.72293   0.00000  Uiso   1.00
C901   C     0.63941   0.50076   0.83598   0.00000  Uiso   1.00
C902   C     0.36061   0.49972   0.66395   0.00000  Uiso   1.00
C903   C     0.62434   0.50585   0.88470   0.00000  Uiso   1.00
C904   C     0.37553   0.49852   0.61479   0.00000  Uiso   1.00
C905   C     0.63856   0.53227   0.95260   0.00000  Uiso   1.00
C906   C     0.35811   0.48521   0.54421   0.00000  Uiso   1.00
C907   C     0.65568   0.52308   0.90733   0.00000  Uiso   1.00
C908   C     0.34224   0.48937   0.59051   0.00000  Uiso   1.00
C909   C     0.57622   0.49717   0.90781   0.00000  Uiso   1.00
C910   C     0.42433   0.50520   0.59217   0.00000  Uiso   1.00
C911   C     0.55709   0.50834   0.95282   0.00000  Uiso   1.00
C912   C     0.44101   0.50332   0.54520   0.00000  Uiso   1.00
C913   C     0.58945   0.52535   0.97569   0.00000  Uiso   1.00
C914   C     0.40739   0.49130   0.52124   0.00000  Uiso   1.00
C915   C     0.50686   0.50316   0.97539   0.00000  Uiso   1.00
C916   C     0.49045   0.51153   0.52186   0.00000  Uiso   1.00
Cu917  Cu    0.38022   0.50001   0.75000   0.00000  Uiso   1.00
Cu918  Cu    0.61978   0.49999   0.75000   0.00000  Uiso   1.00
H919   H     0.44904   0.51025   0.61226   0.00000  Uiso   1.00
H920   H     0.55460   0.48153   0.88948   0.00000  Uiso   1.00
H921   H     0.63757   0.48407   0.60739   0.00000  Uiso   1.00
H922   H     0.35975   0.53032   0.88984   0.00000  Uiso   1.00
H923   H     0.66379   0.54563   0.96917   0.00000  Uiso   1.00
H924   H     0.66497   0.47677   0.52656   0.00000  Uiso   1.00
H925   H     0.51202   0.53937   0.57749   0.00000  Uiso   1.00
H926   H     0.48201   0.48705   0.91692   0.00000  Uiso   1.00
H927   H     0.61425   0.62688   0.71297   0.00000  Uiso   1.00
H928   H     0.38570   0.37311   0.78712   0.00000  Uiso   1.00
H929   H     0.44077   0.45242   0.79864   0.00000  Uiso   1.00
H930   H     0.55923   0.54756   0.70133   0.00000  Uiso   1.00
N931   N     0.45069   0.50001   0.74999   0.00000  Uiso   1.00
N932   N     0.54931   0.49999   0.75001   0.00000  Uiso   1.00
O933   O     0.37291   0.43989   0.75000   0.00000  Uiso   1.00
O934   O     0.62709   0.56011   0.75000   0.00000  Uiso   1.00
O935   O     0.62706   0.43988   0.75001   0.00000  Uiso   1.00
O936   O     0.37294   0.56012   0.74999   0.00000  Uiso   1.00
O937   O     0.35186   0.50001   0.81492   0.00000  Uiso   1.00
O938   O     0.64814   0.49999   0.68509   0.00000  Uiso   1.00
O939   O     0.60600   0.50000   0.81492   0.00000  Uiso   1.00
O940   O     0.39400   0.50000   0.68508   0.00000  Uiso   1.00
O941   O     0.60417   0.55318   0.54248   0.00000  Uiso   1.00
H942   H     0.58689   0.55801   0.57432   0.00000  Uiso   1.00
O943   O     0.39042   0.47212   0.95230   0.00000  Uiso   1.00
H944   H     0.40734   0.46855   0.92014   0.00000  Uiso   1.00
C945   C     0.60565   0.37311   0.70403   0.00000  Uiso   1.00
N946   N     0.58127   0.38873   0.68462   0.00000  Uiso   1.00
C947   C     0.39417   0.62685   0.79618   0.00000  Uiso   1.00
N948   N     0.41845   0.61122   0.81567   0.00000  Uiso   1.00
C949   C     0.53032   0.44412   0.80602   0.00000  Uiso   1.00
N950   N     0.54151   0.42042   0.82934   0.00000  Uiso   1.00
C951   C     0.46972   0.55564   0.69370   0.00000  Uiso   1.00
N952   N     0.45855   0.57913   0.67017   0.00000  Uiso   1.00
C953   C     0.99987   0.42080   0.74935   0.00000  Uiso   1.00
C954   C     0.66678   0.57920   0.75068   0.00000  Uiso   1.00
C955   C     0.85688   0.52899   0.54340   0.00000  Uiso   1.00
C956   C     0.80570   0.49101   0.95262   0.00000  Uiso   1.00
C957   C     0.90578   0.53589   0.52089   0.00000  Uiso   1.00
C958   C     0.75661   0.48507   0.97499   0.00000  Uiso   1.00
C959   C     0.96943   0.35359   0.72827   0.00000  Uiso   1.00
C960   C     0.69716   0.64639   0.77184   0.00000  Uiso   1.00
C961   C     0.97019   0.64427   0.72950   0.00000  Uiso   1.00
C962   C     0.69643   0.35572   0.77058   0.00000  Uiso   1.00
C963   C     0.66721   0.62385   0.75094   0.00000  Uiso   1.00
C964   C     0.99942   0.37614   0.74913   0.00000  Uiso   1.00
C965   C     0.84929   0.47333   0.77711   0.00000  Uiso   1.00
C966   C     0.81738   0.52664   0.72284   0.00000  Uiso   1.00
C967   C     0.79986   0.47355   0.77706   0.00000  Uiso   1.00
C968   C     0.86681   0.52646   0.72293   0.00000  Uiso   1.00
C969   C     0.97274   0.50076   0.83598   0.00000  Uiso   1.00
C970   C     0.69395   0.49972   0.66395   0.00000  Uiso   1.00
C971   C     0.95767   0.50585   0.88470   0.00000  Uiso   1.00
C972   C     0.70887   0.49852   0.61479   0.00000  Uiso   1.00
C973   C     0.97189   0.53227   0.95260   0.00000  Uiso   1.00
C974   C     0.69144   0.48521   0.54421   0.00000  Uiso   1.00
C975   C     0.98902   0.52308   0.90733   0.00000  Uiso   1.00
C976   C     0.67557   0.48937   0.59051   0.00000  Uiso   1.00
C977   C     0.90956   0.49717   0.90781   0.00000  Uiso   1.00
C978   C     0.75766   0.50520   0.59217   0.00000  Uiso   1.00
C979   C     0.89042   0.50834   0.95282   0.00000  Uiso   1.00
C980   C     0.77435   0.50332   0.54520   0.00000  Uiso   1.00
C981   C     0.92279   0.52535   0.97569   0.00000  Uiso   1.00
C982   C     0.74072   0.49130   0.52124   0.00000  Uiso   1.00
C983   C     0.84020   0.50316   0.97539   0.00000  Uiso   1.00
C984   C     0.82378   0.51153   0.52186   0.00000  Uiso   1.00
Cu985  Cu    0.71355   0.50001   0.75000   0.00000  Uiso   1.00
Cu986  Cu    0.95311   0.49999   0.75000   0.00000  Uiso   1.00
H987   H     0.78237   0.51025   0.61226   0.00000  Uiso   1.00
H988   H     0.88793   0.48153   0.88948   0.00000  Uiso   1.00
H989   H     0.97090   0.48407   0.60739   0.00000  Uiso   1.00
H990   H     0.69309   0.53032   0.88984   0.00000  Uiso   1.00
H991   H     0.99713   0.54563   0.96917   0.00000  Uiso   1.00
H992   H     0.99831   0.47677   0.52656   0.00000  Uiso   1.00
H993   H     0.84535   0.53937   0.57749   0.00000  Uiso   1.00
H994   H     0.81534   0.48705   0.91692   0.00000  Uiso   1.00
H995   H     0.94758   0.62688   0.71297   0.00000  Uiso   1.00
H996   H     0.71903   0.37311   0.78712   0.00000  Uiso   1.00
H997   H     0.77410   0.45242   0.79864   0.00000  Uiso   1.00
H998   H     0.89257   0.54756   0.70133   0.00000  Uiso   1.00
N999   N     0.78403   0.50001   0.74999   0.00000  Uiso   1.00
N1000  N     0.88264   0.49999   0.75001   0.00000  Uiso   1.00
O1001  O     0.70625   0.43989   0.75000   0.00000  Uiso   1.00
O1002  O     0.96042   0.56011   0.75000   0.00000  Uiso   1.00
O1003  O     0.96039   0.43988   0.75001   0.00000  Uiso   1.00
O1004  O     0.70628   0.56012   0.74999   0.00000  Uiso   1.00
O1005  O     0.68519   0.50001   0.81492   0.00000  Uiso   1.00
O1006  O     0.98148   0.49999   0.68509   0.00000  Uiso   1.00
O1007  O     0.93933   0.50000   0.81492   0.00000  Uiso   1.00
O1008  O     0.72733   0.50000   0.68508   0.00000  Uiso   1.00
O1009  O     0.93751   0.55318   0.54248   0.00000  Uiso   1.00
H1010  H     0.92022   0.55801   0.57432   0.00000  Uiso   1.00
O1011  O     0.72376   0.47212   0.95230   0.00000  Uiso   1.00
H1012  H     0.74068   0.46855   0.92014   0.00000  Uiso   1.00
C1013  C     0.93898   0.37311   0.70403   0.00000  Uiso   1.00
N1014  N     0.91460   0.38873   0.68462   0.00000  Uiso   1.00
C1015  C     0.72750   0.62685   0.79618   0.00000  Uiso   1.00
N1016  N     0.75178   0.61122   0.81567   0.00000  Uiso   1.00
C1017  C     0.86365   0.44412   0.80602   0.00000  Uiso   1.00
N1018  N     0.87484   0.42042   0.82934   0.00000  Uiso   1.00
C1019  C     0.80306   0.55564   0.69370   0.00000  Uiso   1.00
N1020  N     0.79188   0.57913   0.67017   0.00000  Uiso   1.00
C1021  C     0.33321   0.75413   0.74935   0.00000  Uiso   1.00
C1022  C     0.00012   0.91253   0.75068   0.00000  Uiso   1.00
C1023  C     0.19021   0.86233   0.54340   0.00000  Uiso   1.00
C1024  C     0.13904   0.82434   0.95262   0.00000  Uiso   1.00
C1025  C     0.23912   0.86922   0.52089   0.00000  Uiso   1.00
C1026  C     0.08994   0.81840   0.97499   0.00000  Uiso   1.00
C1027  C     0.30276   0.68693   0.72827   0.00000  Uiso   1.00
C1028  C     0.03049   0.97973   0.77184   0.00000  Uiso   1.00
C1029  C     0.30352   0.97761   0.72950   0.00000  Uiso   1.00
C1030  C     0.02977   0.68905   0.77058   0.00000  Uiso   1.00
C1031  C     0.00054   0.95718   0.75094   0.00000  Uiso   1.00
C1032  C     0.33275   0.70948   0.74913   0.00000  Uiso   1.00
C1033  C     0.18262   0.80666   0.77711   0.00000  Uiso   1.00
C1034  C     0.15071   0.85997   0.72284   0.00000  Uiso   1.00
C1035  C     0.13319   0.80688   0.77706   0.00000  Uiso   1.00
C1036  C     0.20014   0.85979   0.72293   0.00000  Uiso   1.00
C1037  C     0.30607   0.83409   0.83598   0.00000  Uiso   1.00
C1038  C     0.02728   0.83306   0.66395   0.00000  Uiso   1.00
C1039  C     0.29101   0.83918   0.88470   0.00000  Uiso   1.00
C1040  C     0.04220   0.83186   0.61479   0.00000  Uiso   1.00
C1041  C     0.30523   0.86560   0.95260   0.00000  Uiso   1.00
C1042  C     0.02478   0.81854   0.54421   0.00000  Uiso   1.00
C1043  C     0.32235   0.85641   0.90733   0.00000  Uiso   1.00
C1044  C     0.00891   0.82270   0.59051   0.00000  Uiso   1.00
C1045  C     0.24289   0.83050   0.90781   0.00000  Uiso   1.00
C1046  C     0.09099   0.83854   0.59217   0.00000  Uiso   1.00
C1047  C     0.22375   0.84168   0.95282   0.00000  Uiso   1.00
C1048  C     0.10768   0.83665   0.54520   0.00000  Uiso   1.00
C1049  C     0.25612   0.85869   0.97569   0.00000  Uiso   1.00
C1050  C     0.07405   0.82464   0.52124   0.00000  Uiso   1.00
C1051  C     0.17353   0.83650   0.97539   0.00000  Uiso   1.00
C1052  C     0.15712   0.84487   0.52186   0.00000  Uiso   1.00
Cu1053 Cu    0.04689   0.83334   0.75000   0.00000  Uiso   1.00
Cu1054 Cu    0.28645   0.83333   0.75000   0.00000  Uiso   1.00
H1055  H     0.11570   0.84358   0.61226   0.00000  Uiso   1.00
H1056  H     0.22126   0.81487   0.88948   0.00000  Uiso   1.00
H1057  H     0.30424   0.81741   0.60739   0.00000  Uiso   1.00
H1058  H     0.02642   0.86365   0.88984   0.00000  Uiso   1.00
H1059  H     0.33046   0.87896   0.96917   0.00000  Uiso   1.00
H1060  H     0.33164   0.81010   0.52656   0.00000  Uiso   1.00
H1061  H     0.17869   0.87270   0.57749   0.00000  Uiso   1.00
H1062  H     0.14867   0.82038   0.91692   0.00000  Uiso   1.00
H1063  H     0.28092   0.96021   0.71297   0.00000  Uiso   1.00
H1064  H     0.05237   0.70645   0.78712   0.00000  Uiso   1.00
H1065  H     0.10744   0.78575   0.79864   0.00000  Uiso   1.00
H1066  H     0.22590   0.88090   0.70133   0.00000  Uiso   1.00
N1067  N     0.11736   0.83334   0.74999   0.00000  Uiso   1.00
N1068  N     0.21597   0.83332   0.75001   0.00000  Uiso   1.00
O1069  O     0.03958   0.77322   0.75000   0.00000  Uiso   1.00
O1070  O     0.29375   0.89345   0.75000   0.00000  Uiso   1.00
O1071  O     0.29372   0.77321   0.75001   0.00000  Uiso   1.00
O1072  O     0.03961   0.89346   0.74999   0.00000  Uiso   1.00
O1073  O     0.01852   0.83334   0.81492   0.00000  Uiso   1.00
O1074  O     0.31481   0.83332   0.68509   0.00000  Uiso   1.00
O1075  O     0.27267   0.83333   0.81492   0.00000  Uiso   1.00
O1076  O     0.06067   0.83333   0.68508   0.00000  Uiso   1.00
O1077  O     0.27084   0.88651   0.54248   0.00000  Uiso   1.00
H1078  H     0.25356   0.89135   0.57432   0.00000  Uiso   1.00
O1079  O     0.05709   0.80545   0.95230   0.00000  Uiso   1.00
H1080  H     0.07401   0.80188   0.92014   0.00000  Uiso   1.00
C1081  C     0.27232   0.70645   0.70403   0.00000  Uiso   1.00
N1082  N     0.24794   0.72206   0.68462   0.00000  Uiso   1.00
C1083  C     0.06083   0.96019   0.79618   0.00000  Uiso   1.00
N1084  N     0.08511   0.94455   0.81567   0.00000  Uiso   1.00
C1085  C     0.19699   0.77745   0.80602   0.00000  Uiso   1.00
N1086  N     0.20818   0.75376   0.82934   0.00000  Uiso   1.00
C1087  C     0.13639   0.88898   0.69370   0.00000  Uiso   1.00
N1088  N     0.12521   0.91246   0.67017   0.00000  Uiso   1.00
C1089  C     0.66654   0.75413   0.74935   0.00000  Uiso   1.00
C1090  C     0.33345   0.91253   0.75068   0.00000  Uiso   1.00
C1091  C     0.52354   0.86233   0.54340   0.00000  Uiso   1.00
C1092  C     0.47237   0.82434   0.95262   0.00000  Uiso   1.00
C1093  C     0.57245   0.86922   0.52089   0.00000  Uiso   1.00
C1094  C     0.42327   0.81840   0.97499   0.00000  Uiso   1.00
C1095  C     0.63610   0.68693   0.72827   0.00000  Uiso   1.00
C1096  C     0.36383   0.97973   0.77184   0.00000  Uiso   1.00
C1097  C     0.63685   0.97761   0.72950   0.00000  Uiso   1.00
C1098  C     0.36310   0.68905   0.77058   0.00000  Uiso   1.00
C1099  C     0.33388   0.95718   0.75094   0.00000  Uiso   1.00
C1100  C     0.66609   0.70948   0.74913   0.00000  Uiso   1.00
C1101  C     0.51596   0.80666   0.77711   0.00000  Uiso   1.00
C1102  C     0.48405   0.85997   0.72284   0.00000  Uiso   1.00
C1103  C     0.46652   0.80688   0.77706   0.00000  Uiso   1.00
C1104  C     0.53347   0.85979   0.72293   0.00000  Uiso   1.00
C1105  C     0.63941   0.83409   0.83598   0.00000  Uiso   1.00
C1106  C     0.36061   0.83306   0.66395   0.00000  Uiso   1.00
C1107  C     0.62434   0.83918   0.88470   0.00000  Uiso   1.00
C1108  C     0.37553   0.83186   0.61479   0.00000  Uiso   1.00
C1109  C     0.63856   0.86560   0.95260   0.00000  Uiso   1.00
C1110  C     0.35811   0.81854   0.54421   0.00000  Uiso   1.00
C1111  C     0.65568   0.85641   0.90733   0.00000  Uiso   1.00
C1112  C     0.34224   0.82270   0.59051   0.00000  Uiso   1.00
C1113  C     0.57622   0.83050   0.90781   0.00000  Uiso   1.00
C1114  C     0.42433   0.83854   0.59217   0.00000  Uiso   1.00
C1115  C     0.55709   0.84168   0.95282   0.00000  Uiso   1.00
C1116  C     0.44101   0.83665   0.54520   0.00000  Uiso   1.00
C1117  C     0.58945   0.85869   0.97569   0.00000  Uiso   1.00
C1118  C     0.40739   0.82464   0.52124   0.00000  Uiso   1.00
C1119  C     0.50686   0.83650   0.97539   0.00000  Uiso   1.00
C1120  C     0.49045   0.84487   0.52186   0.00000  Uiso   1.00
Cu1121 Cu    0.38022   0.83334   0.75000   0.00000  Uiso   1.00
Cu1122 Cu    0.61978   0.83333   0.75000   0.00000  Uiso   1.00
H1123  H     0.44904   0.84358   0.61226   0.00000  Uiso   1.00
H1124  H     0.55460   0.81487   0.88948   0.00000  Uiso   1.00
H1125  H     0.63757   0.81741   0.60739   0.00000  Uiso   1.00
H1126  H     0.35975   0.86365   0.88984   0.00000  Uiso   1.00
H1127  H     0.66379   0.87896   0.96917   0.00000  Uiso   1.00
H1128  H     0.66497   0.81010   0.52656   0.00000  Uiso   1.00
H1129  H     0.51202   0.87270   0.57749   0.00000  Uiso   1.00
H1130  H     0.48201   0.82038   0.91692   0.00000  Uiso   1.00
H1131  H     0.61425   0.96021   0.71297   0.00000  Uiso   1.00
H1132  H     0.38570   0.70645   0.78712   0.00000  Uiso   1.00
H1133  H     0.44077   0.78575   0.79864   0.00000  Uiso   1.00
H1134  H     0.55923   0.88090   0.70133   0.00000  Uiso   1.00
N1135  N     0.45069   0.83334   0.74999   0.00000  Uiso   1.00
N1136  N     0.54931   0.83332   0.75001   0.00000  Uiso   1.00
O1137  O     0.37291   0.77322   0.75000   0.00000  Uiso   1.00
O1138  O     0.62709   0.89345   0.75000   0.00000  Uiso   1.00
O1139  O     0.62706   0.77321   0.75001   0.00000  Uiso   1.00
O1140  O     0.37294   0.89346   0.74999   0.00000  Uiso   1.00
O1141  O     0.35186   0.83334   0.81492   0.00000  Uiso   1.00
O1142  O     0.64814   0.83332   0.68509   0.00000  Uiso   1.00
O1143  O     0.60600   0.83333   0.81492   0.00000  Uiso   1.00
O1144  O     0.39400   0.83333   0.68508   0.00000  Uiso   1.00
O1145  O     0.60417   0.88651   0.54248   0.00000  Uiso   1.00
H1146  H     0.58689   0.89135   0.57432   0.00000  Uiso   1.00
O1147  O     0.39042   0.80545   0.95230   0.00000  Uiso   1.00
H1148  H     0.40734   0.80188   0.92014   0.00000  Uiso   1.00
C1149  C     0.60565   0.70645   0.70403   0.00000  Uiso   1.00
N1150  N     0.58127   0.72206   0.68462   0.00000  Uiso   1.00
C1151  C     0.39417   0.96019   0.79618   0.00000  Uiso   1.00
N1152  N     0.41845   0.94455   0.81567   0.00000  Uiso   1.00
C1153  C     0.53032   0.77745   0.80602   0.00000  Uiso   1.00
N1154  N     0.54151   0.75376   0.82934   0.00000  Uiso   1.00
C1155  C     0.46972   0.88898   0.69370   0.00000  Uiso   1.00
N1156  N     0.45855   0.91246   0.67017   0.00000  Uiso   1.00
C1157  C     0.99987   0.75413   0.74935   0.00000  Uiso   1.00
C1158  C     0.66678   0.91253   0.75068   0.00000  Uiso   1.00
C1159  C     0.85688   0.86233   0.54340   0.00000  Uiso   1.00
C1160  C     0.80570   0.82434   0.95262   0.00000  Uiso   1.00
C1161  C     0.90578   0.86922   0.52089   0.00000  Uiso   1.00
C1162  C     0.75661   0.81840   0.97499   0.00000  Uiso   1.00
C1163  C     0.96943   0.68693   0.72827   0.00000  Uiso   1.00
C1164  C     0.69716   0.97973   0.77184   0.00000  Uiso   1.00
C1165  C     0.97019   0.97761   0.72950   0.00000  Uiso   1.00
C1166  C     0.69643   0.68905   0.77058   0.00000  Uiso   1.00
C1167  C     0.66721   0.95718   0.75094   0.00000  Uiso   1.00
C1168  C     0.99942   0.70948   0.74913   0.00000  Uiso   1.00
C1169  C     0.84929   0.80666   0.77711   0.00000  Uiso   1.00
C1170  C     0.81738   0.85997   0.72284   0.00000  Uiso   1.00
C1171  C     0.79986   0.80688   0.77706   0.00000  Uiso   1.00
C1172  C     0.86681   0.85979   0.72293   0.00000  Uiso   1.00
C1173  C     0.97274   0.83409   0.83598   0.00000  Uiso   1.00
C1174  C     0.69395   0.83306   0.66395   0.00000  Uiso   1.00
C1175  C     0.95767   0.83918   0.88470   0.00000  Uiso   1.00
C1176  C     0.70887   0.83186   0.61479   0.00000  Uiso   1.00
C1177  C     0.97189   0.86560   0.95260   0.00000  Uiso   1.00
C1178  C     0.69144   0.81854   0.54421   0.00000  Uiso   1.00
C1179  C     0.98902   0.85641   0.90733   0.00000  Uiso   1.00
C1180  C     0.67557   0.82270   0.59051   0.00000  Uiso   1.00
C1181  C     0.90956   0.83050   0.90781   0.00000  Uiso   1.00
C1182  C     0.75766   0.83854   0.59217   0.00000  Uiso   1.00
C1183  C     0.89042   0.84168   0.95282   0.00000  Uiso   1.00
C1184  C     0.77435   0.83665   0.54520   0.00000  Uiso   1.00
C1185  C     0.92279   0.85869   0.97569   0.00000  Uiso   1.00
C1186  C     0.74072   0.82464   0.52124   0.00000  Uiso   1.00
C1187  C     0.84020   0.83650   0.97539   0.00000  Uiso   1.00
C1188  C     0.82378   0.84487   0.52186   0.00000  Uiso   1.00
Cu1189 Cu    0.71355   0.83334   0.75000   0.00000  Uiso   1.00
Cu1190 Cu    0.95311   0.83333   0.75000   0.00000  Uiso   1.00
H1191  H     0.78237   0.84358   0.61226   0.00000  Uiso   1.00
H1192  H     0.88793   0.81487   0.88948   0.00000  Uiso   1.00
H1193  H     0.97090   0.81741   0.60739   0.00000  Uiso   1.00
H1194  H     0.69309   0.86365   0.88984   0.00000  Uiso   1.00
H1195  H     0.99713   0.87896   0.96917   0.00000  Uiso   1.00
H1196  H     0.99831   0.81010   0.52656   0.00000  Uiso   1.00
H1197  H     0.84535   0.87270   0.57749   0.00000  Uiso   1.00
H1198  H     0.81534   0.82038   0.91692   0.00000  Uiso   1.00
H1199  H     0.94758   0.96021   0.71297   0.00000  Uiso   1.00
H1200  H     0.71903   0.70645   0.78712   0.00000  Uiso   1.00
H1201  H     0.77410   0.78575   0.79864   0.00000  Uiso   1.00
H1202  H     0.89257   0.88090   0.70133   0.00000  Uiso   1.00
N1203  N     0.78403   0.83334   0.74999   0.00000  Uiso   1.00
N1204  N     0.88264   0.83332   0.75001   0.00000  Uiso   1.00
O1205  O     0.70625   0.77322   0.75000   0.00000  Uiso   1.00
O1206  O     0.96042   0.89345   0.75000   0.00000  Uiso   1.00
O1207  O     0.96039   0.77321   0.75001   0.00000  Uiso   1.00
O1208  O     0.70628   0.89346   0.74999   0.00000  Uiso   1.00
O1209  O     0.68519   0.83334   0.81492   0.00000  Uiso   1.00
O1210  O     0.98148   0.83332   0.68509   0.00000  Uiso   1.00
O1211  O     0.93933   0.83333   0.81492   0.00000  Uiso   1.00
O1212  O     0.72733   0.83333   0.68508   0.00000  Uiso   1.00
O1213  O     0.93751   0.88651   0.54248   0.00000  Uiso   1.00
H1214  H     0.92022   0.89135   0.57432   0.00000  Uiso   1.00
O1215  O     0.72376   0.80545   0.95230   0.00000  Uiso   1.00
H1216  H     0.74068   0.80188   0.92014   0.00000  Uiso   1.00
C1217  C     0.93898   0.70645   0.70403   0.00000  Uiso   1.00
N1218  N     0.91460   0.72206   0.68462   0.00000  Uiso   1.00
C1219  C     0.72750   0.96019   0.79618   0.00000  Uiso   1.00
N1220  N     0.75178   0.94455   0.81567   0.00000  Uiso   1.00
C1221  C     0.86365   0.77745   0.80602   0.00000  Uiso   1.00
N1222  N     0.87484   0.75376   0.82934   0.00000  Uiso   1.00
C1223  C     0.80306   0.88898   0.69370   0.00000  Uiso   1.00
N1224  N     0.79188   0.91246   0.67017   0.00000  Uiso   1.00
loop_
_geom_bond_atom_site_label_1
_geom_bond_atom_site_label_2
_geom_bond_distance
_geom_bond_site_symmetry_2
_ccdc_geom_bond_type
C1     O51     1.293   .     A
C1     C12     1.450   .     S
C1     O117    1.294   .     S
C2     O52     1.293   .     A
C2     C11     1.450   .     S
C2     O186    1.294   1_455 S
C3     C5      1.400   .     A
C3     C32     1.416   .     A
C3     H41     1.076   .     S
C4     C6      1.399   .     A
C4     H42     1.075   .     S
C4     C31     1.417   .     A
C5     O57     1.384   .     S
C5     C641    1.400   1_554 S
C6     O59     1.383   .     S
C6     C642    1.399   .     S
C7     C12     1.410   .     A
C7     C61     1.446   .     S
C7     C417    1.386   1_545 S
C8     C11     1.410   .     A
C8     C63     1.446   .     S
C8     C214    1.386   .     S
C9     H43     1.085   .     S
C9     C211    1.386   .     S
C9     C79     1.400   .     S
C10    H44     1.085   .     S
C10    C416    1.386   1_545 S
C10    C148    1.400   1_455 S
C11    C145    1.400   1_455 S
C12    C78     1.400   .     S
C13    N48     1.378   .     A
C13    C65     1.438   .     S
C13    C15     1.417   .     A
C14    C67     1.438   .     S
C14    N47     1.378   .     A
C14    C16     1.418   .     A
C15    N47     1.361   .     A
C15    H45     1.083   .     S
C16    N48     1.362   .     A
C16    H46     1.083   .     S
C17    O55     1.298   .     A
C17    C19     1.465   .     S
C17    O121    1.298   .     S
C18    C20     1.468   .     S
C18    O56     1.298   .     A
C18    O190    1.298   1_455 S
C19    C23     1.396   .     A
C19    C25     1.394   .     A
C20    C24     1.398   .     A
C20    C26     1.397   .     A
C21    H39     1.083   .     S
C21    C23     1.392   .     A
C21    C29     1.409   .     A
C22    C24     1.391   .     A
C22    C30     1.409   .     A
C22    H176    1.083   1_455 S
C23    H106    1.083   .     S
C24    H173    1.083   1_455 S
C25    H36     1.074   .     S
C25    C27     1.406   .     A
C26    C28     1.406   .     A
C26    H35     1.075   .     S
C27    C29     1.421   .     A
C27    C31     1.426   .     A
C28    C30     1.420   .     A
C28    C32     1.425   .     A
C29    C617    1.400   .     S
C30    C618    1.399   1_554 S
C31    C644    1.419   .     S
C32    C643    1.419   1_554 S
Cu33   O56     1.943   .     S
Cu33   O52     1.966   .     S
Cu33   O53     1.955   .     S
Cu33   N47     2.020   .     S
Cu33   O49     1.961   .     S
Cu33   Cu170   2.688   1_455 S
Cu34   O50     1.961   .     S
Cu34   O51     1.966   .     S
Cu34   O54     1.955   .     S
Cu34   N48     2.020   .     S
Cu34   O55     1.943   .     S
Cu34   Cu101   2.688   .     S
H37    C92     1.083   .     S
H38    C159    1.083   1_455 S
H40    C90     1.083   .     S
O49    C137    1.294   1_455 S
O50    C70     1.294   .     S
O53    C153    1.298   1_455 S
O54    C86     1.298   .     S
O57    H58     0.992   .     S
O59    H60     0.992   .     S
C61    N62     1.157   .     T
C63    N64     1.157   .     T
C65    N66     1.158   .     T
C67    N68     1.158   .     T
C69    O119    1.293   .     A
C69    C80     1.450   .     S
C69    O185    1.294   .     S
C70    O120    1.293   .     A
C70    C79     1.450   .     S
C71    C73     1.400   .     A
C71    C100    1.416   .     A
C71    H109    1.076   .     S
C72    C74     1.399   .     A
C72    H110    1.075   .     S
C72    C99     1.417   .     A
C73    O125    1.384   .     S
C73    C709    1.400   1_554 S
C74    O127    1.383   .     S
C74    C710    1.399   .     S
C75    C80     1.410   .     A
C75    C129    1.446   .     S
C75    C485    1.386   1_545 S
C76    C79     1.410   .     A
C76    C131    1.446   .     S
C76    C282    1.386   .     S
C77    H111    1.085   .     S
C77    C279    1.386   .     S
C77    C147    1.400   .     S
C78    H112    1.085   .     S
C78    C484    1.386   1_545 S
C80    C146    1.400   .     S
C81    N116    1.378   .     A
C81    C133    1.438   .     S
C81    C83     1.417   .     A
C82    C135    1.438   .     S
C82    N115    1.378   .     A
C82    C84     1.418   .     A
C83    N115    1.361   .     A
C83    H113    1.083   .     S
C84    N116    1.362   .     A
C84    H114    1.083   .     S
C85    O123    1.298   .     A
C85    C87     1.465   .     S
C85    O189    1.298   .     S
C86    C88     1.468   .     S
C86    O124    1.298   .     A
C87    C91     1.396   .     A
C87    C93     1.394   .     A
C88    C92     1.398   .     A
C88    C94     1.397   .     A
C89    H107    1.083   .     S
C89    C91     1.392   .     A
C89    C97     1.409   .     A
C90    C92     1.391   .     A
C90    C98     1.409   .     A
C91    H174    1.083   .     S
C93    H104    1.074   .     S
C93    C95     1.406   .     A
C94    C96     1.406   .     A
C94    H103    1.075   .     S
C95    C97     1.421   .     A
C95    C99     1.426   .     A
C96    C98     1.420   .     A
C96    C100    1.425   .     A
C97    C685    1.400   .     S
C98    C686    1.399   1_554 S
C99    C712    1.419   .     S
C100   C711    1.419   1_554 S
Cu101  O124    1.943   .     S
Cu101  O120    1.966   .     S
Cu101  O121    1.955   .     S
Cu101  N115    2.020   .     S
Cu101  O117    1.961   .     S
Cu102  O118    1.961   .     S
Cu102  O119    1.966   .     S
Cu102  O122    1.955   .     S
Cu102  N116    2.020   .     S
Cu102  O123    1.943   .     S
Cu102  Cu169   2.688   .     S
H105   C160    1.083   .     S
H108   C158    1.083   .     S
O118   C138    1.294   .     S
O122   C154    1.298   .     S
O125   H126    0.992   .     S
O127   H128    0.992   .     S
C129   N130    1.157   .     T
C131   N132    1.157   .     T
C133   N134    1.158   .     T
C135   N136    1.158   .     T
C137   O187    1.293   .     A
C137   C148    1.450   .     S
C137   O49     1.294   1_655 S
C138   O188    1.293   .     A
C138   C147    1.450   .     S
C139   C141    1.400   .     A
C139   C168    1.416   .     A
C139   H177    1.076   .     S
C140   C142    1.399   .     A
C140   H178    1.075   .     S
C140   C167    1.417   .     A
C141   O193    1.384   .     S
C141   C777    1.400   1_554 S
C142   O195    1.383   .     S
C142   C778    1.399   .     S
C143   C148    1.410   .     A
C143   C197    1.446   .     S
C143   C553    1.386   1_545 S
C144   C147    1.410   .     A
C144   C199    1.446   .     S
C144   C350    1.386   .     S
C145   H179    1.085   .     S
C145   C347    1.386   .     S
C145   C11     1.400   1_655 S
C146   H180    1.085   .     S
C146   C552    1.386   1_545 S
C148   C10     1.400   1_655 S
C149   N184    1.378   .     A
C149   C201    1.438   .     S
C149   C151    1.417   .     A
C150   C203    1.438   .     S
C150   N183    1.378   .     A
C150   C152    1.418   .     A
C151   N183    1.361   .     A
C151   H181    1.083   .     S
C152   N184    1.362   .     A
C152   H182    1.083   .     S
C153   O191    1.298   .     A
C153   C155    1.465   .     S
C153   O53     1.298   1_655 S
C154   C156    1.468   .     S
C154   O192    1.298   .     A
C155   C159    1.396   .     A
C155   C161    1.394   .     A
C156   C160    1.398   .     A
C156   C162    1.397   .     A
C157   H175    1.083   .     S
C157   C159    1.392   .     A
C157   C165    1.409   .     A
C158   C160    1.391   .     A
C158   C166    1.409   .     A
C159   H38     1.083   1_655 S
C161   H172    1.074   .     S
C161   C163    1.406   .     A
C162   C164    1.406   .     A
C162   H171    1.075   .     S
C163   C165    1.421   .     A
C163   C167    1.426   .     A
C164   C166    1.420   .     A
C164   C168    1.425   .     A
C165   C753    1.400   .     S
C166   C754    1.399   1_554 S
C167   C780    1.419   .     S
C168   C779    1.419   1_554 S
Cu169  O192    1.943   .     S
Cu169  O188    1.966   .     S
Cu169  O189    1.955   .     S
Cu169  N183    2.020   .     S
Cu169  O185    1.961   .     S
Cu170  O186    1.961   .     S
Cu170  O187    1.966   .     S
Cu170  O190    1.955   .     S
Cu170  N184    2.020   .     S
Cu170  O191    1.943   .     S
Cu170  Cu33    2.688   1_655 S
H173   C24     1.083   1_655 S
H176   C22     1.083   1_655 S
O186   C2      1.294   1_655 S
O190   C18     1.298   1_655 S
O193   H194    0.992   .     S
O195   H196    0.992   .     S
C197   N198    1.157   .     T
C199   N200    1.157   .     T
C201   N202    1.158   .     T
C203   N204    1.158   .     T
C205   O255    1.293   .     A
C205   C216    1.450   .     S
C205   O321    1.294   .     S
C206   O256    1.293   .     A
C206   C215    1.450   .     S
C206   O390    1.294   1_455 S
C207   C209    1.400   .     A
C207   C236    1.416   .     A
C207   H245    1.076   .     S
C208   C210    1.399   .     A
C208   H246    1.075   .     S
C208   C235    1.417   .     A
C209   O261    1.384   .     S
C209   C845    1.400   1_554 S
C210   O263    1.383   .     S
C210   C846    1.399   .     S
C211   C216    1.410   .     A
C211   C265    1.446   .     S
C212   C215    1.410   .     A
C212   C267    1.446   .     S
C212   C418    1.386   .     S
C213   H247    1.085   .     S
C213   C415    1.386   .     S
C213   C283    1.400   .     S
C214   H248    1.085   .     S
C214   C352    1.400   1_455 S
C215   C349    1.400   1_455 S
C216   C282    1.400   .     S
C217   N252    1.378   .     A
C217   C269    1.438   .     S
C217   C219    1.417   .     A
C218   C271    1.438   .     S
C218   N251    1.378   .     A
C218   C220    1.418   .     A
C219   N251    1.361   .     A
C219   H249    1.083   .     S
C220   N252    1.362   .     A
C220   H250    1.083   .     S
C221   O259    1.298   .     A
C221   C223    1.465   .     S
C221   O325    1.298   .     S
C222   C224    1.468   .     S
C222   O260    1.298   .     A
C222   O394    1.298   1_455 S
C223   C227    1.396   .     A
C223   C229    1.394   .     A
C224   C228    1.398   .     A
C224   C230    1.397   .     A
C225   H243    1.083   .     S
C225   C227    1.392   .     A
C225   C233    1.409   .     A
C226   C228    1.391   .     A
C226   C234    1.409   .     A
C226   H380    1.083   1_455 S
C227   H310    1.083   .     S
C228   H377    1.083   1_455 S
C229   H240    1.074   .     S
C229   C231    1.406   .     A
C230   C232    1.406   .     A
C230   H239    1.075   .     S
C231   C233    1.421   .     A
C231   C235    1.426   .     A
C232   C234    1.420   .     A
C232   C236    1.425   .     A
C233   C821    1.400   .     S
C234   C822    1.399   1_554 S
C235   C848    1.419   .     S
C236   C847    1.419   1_554 S
Cu237  O260    1.943   .     S
Cu237  O256    1.966   .     S
Cu237  O257    1.955   .     S
Cu237  N251    2.020   .     S
Cu237  O253    1.961   .     S
Cu237  Cu374   2.688   1_455 S
Cu238  O254    1.961   .     S
Cu238  O255    1.966   .     S
Cu238  O258    1.955   .     S
Cu238  N252    2.020   .     S
Cu238  O259    1.943   .     S
Cu238  Cu305   2.688   .     S
H241   C296    1.083   .     S
H242   C363    1.083   1_455 S
H244   C294    1.083   .     S
O253   C341    1.294   1_455 S
O254   C274    1.294   .     S
O257   C357    1.298   1_455 S
O258   C290    1.298   .     S
O261   H262    0.992   .     S
O263   H264    0.992   .     S
C265   N266    1.157   .     T
C267   N268    1.157   .     T
C269   N270    1.158   .     T
C271   N272    1.158   .     T
C273   O323    1.293   .     A
C273   C284    1.450   .     S
C273   O389    1.294   .     S
C274   O324    1.293   .     A
C274   C283    1.450   .     S
C275   C277    1.400   .     A
C275   C304    1.416   .     A
C275   H313    1.076   .     S
C276   C278    1.399   .     A
C276   H314    1.075   .     S
C276   C303    1.417   .     A
C277   O329    1.384   .     S
C277   C913    1.400   1_554 S
C278   O331    1.383   .     S
C278   C914    1.399   .     S
C279   C284    1.410   .     A
C279   C333    1.446   .     S
C280   C283    1.410   .     A
C280   C335    1.446   .     S
C280   C486    1.386   .     S
C281   H315    1.085   .     S
C281   C483    1.386   .     S
C281   C351    1.400   .     S
C282   H316    1.085   .     S
C284   C350    1.400   .     S
C285   N320    1.378   .     A
C285   C337    1.438   .     S
C285   C287    1.417   .     A
C286   C339    1.438   .     S
C286   N319    1.378   .     A
C286   C288    1.418   .     A
C287   N319    1.361   .     A
C287   H317    1.083   .     S
C288   N320    1.362   .     A
C288   H318    1.083   .     S
C289   O327    1.298   .     A
C289   C291    1.465   .     S
C289   O393    1.298   .     S
C290   C292    1.468   .     S
C290   O328    1.298   .     A
C291   C295    1.396   .     A
C291   C297    1.394   .     A
C292   C296    1.398   .     A
C292   C298    1.397   .     A
C293   H311    1.083   .     S
C293   C295    1.392   .     A
C293   C301    1.409   .     A
C294   C296    1.391   .     A
C294   C302    1.409   .     A
C295   H378    1.083   .     S
C297   H308    1.074   .     S
C297   C299    1.406   .     A
C298   C300    1.406   .     A
C298   H307    1.075   .     S
C299   C301    1.421   .     A
C299   C303    1.426   .     A
C300   C302    1.420   .     A
C300   C304    1.425   .     A
C301   C889    1.400   .     S
C302   C890    1.399   1_554 S
C303   C916    1.419   .     S
C304   C915    1.419   1_554 S
Cu305  O328    1.943   .     S
Cu305  O324    1.966   .     S
Cu305  O325    1.955   .     S
Cu305  N319    2.020   .     S
Cu305  O321    1.961   .     S
Cu306  O322    1.961   .     S
Cu306  O323    1.966   .     S
Cu306  O326    1.955   .     S
Cu306  N320    2.020   .     S
Cu306  O327    1.943   .     S
Cu306  Cu373   2.688   .     S
H309   C364    1.083   .     S
H312   C362    1.083   .     S
O322   C342    1.294   .     S
O326   C358    1.298   .     S
O329   H330    0.992   .     S
O331   H332    0.992   .     S
C333   N334    1.157   .     T
C335   N336    1.157   .     T
C337   N338    1.158   .     T
C339   N340    1.158   .     T
C341   O391    1.293   .     A
C341   C352    1.450   .     S
C341   O253    1.294   1_655 S
C342   O392    1.293   .     A
C342   C351    1.450   .     S
C343   C345    1.400   .     A
C343   C372    1.416   .     A
C343   H381    1.076   .     S
C344   C346    1.399   .     A
C344   H382    1.075   .     S
C344   C371    1.417   .     A
C345   O397    1.384   .     S
C345   C981    1.400   1_554 S
C346   O399    1.383   .     S
C346   C982    1.399   .     S
C347   C352    1.410   .     A
C347   C401    1.446   .     S
C348   C351    1.410   .     A
C348   C403    1.446   .     S
C348   C554    1.386   .     S
C349   H383    1.085   .     S
C349   C551    1.386   .     S
C349   C215    1.400   1_655 S
C350   H384    1.085   .     S
C352   C214    1.400   1_655 S
C353   N388    1.378   .     A
C353   C405    1.438   .     S
C353   C355    1.417   .     A
C354   C407    1.438   .     S
C354   N387    1.378   .     A
C354   C356    1.418   .     A
C355   N387    1.361   .     A
C355   H385    1.083   .     S
C356   N388    1.362   .     A
C356   H386    1.083   .     S
C357   O395    1.298   .     A
C357   C359    1.465   .     S
C357   O257    1.298   1_655 S
C358   C360    1.468   .     S
C358   O396    1.298   .     A
C359   C363    1.396   .     A
C359   C365    1.394   .     A
C360   C364    1.398   .     A
C360   C366    1.397   .     A
C361   H379    1.083   .     S
C361   C363    1.392   .     A
C361   C369    1.409   .     A
C362   C364    1.391   .     A
C362   C370    1.409   .     A
C363   H242    1.083   1_655 S
C365   H376    1.074   .     S
C365   C367    1.406   .     A
C366   C368    1.406   .     A
C366   H375    1.075   .     S
C367   C369    1.421   .     A
C367   C371    1.426   .     A
C368   C370    1.420   .     A
C368   C372    1.425   .     A
C369   C957    1.400   .     S
C370   C958    1.399   1_554 S
C371   C984    1.419   .     S
C372   C983    1.419   1_554 S
Cu373  O396    1.943   .     S
Cu373  O392    1.966   .     S
Cu373  O393    1.955   .     S
Cu373  N387    2.020   .     S
Cu373  O389    1.961   .     S
Cu374  O390    1.961   .     S
Cu374  O391    1.966   .     S
Cu374  O394    1.955   .     S
Cu374  N388    2.020   .     S
Cu374  O395    1.943   .     S
Cu374  Cu237   2.688   1_655 S
H377   C228    1.083   1_655 S
H380   C226    1.083   1_655 S
O390   C206    1.294   1_655 S
O394   C222    1.298   1_655 S
O397   H398    0.992   .     S
O399   H400    0.992   .     S
C401   N402    1.157   .     T
C403   N404    1.157   .     T
C405   N406    1.158   .     T
C407   N408    1.158   .     T
C409   O459    1.293   .     A
C409   C420    1.450   .     S
C409   O525    1.294   .     S
C410   O460    1.293   .     A
C410   C419    1.450   .     S
C410   O594    1.294   1_455 S
C411   C413    1.400   .     A
C411   C440    1.416   .     A
C411   H449    1.076   .     S
C412   C414    1.399   .     A
C412   H450    1.075   .     S
C412   C439    1.417   .     A
C413   O465    1.384   .     S
C413   C1049   1.400   1_554 S
C414   O467    1.383   .     S
C414   C1050   1.399   .     S
C415   C420    1.410   .     A
C415   C469    1.446   .     S
C416   C419    1.410   .     A
C416   C471    1.446   .     S
C416   C10     1.386   1_565 S
C417   H451    1.085   .     S
C417   C7      1.386   1_565 S
C417   C487    1.400   .     S
C418   H452    1.085   .     S
C418   C556    1.400   1_455 S
C419   C553    1.400   1_455 S
C420   C486    1.400   .     S
C421   N456    1.378   .     A
C421   C473    1.438   .     S
C421   C423    1.417   .     A
C422   C475    1.438   .     S
C422   N455    1.378   .     A
C422   C424    1.418   .     A
C423   N455    1.361   .     A
C423   H453    1.083   .     S
C424   N456    1.362   .     A
C424   H454    1.083   .     S
C425   O463    1.298   .     A
C425   C427    1.465   .     S
C425   O529    1.298   .     S
C426   C428    1.468   .     S
C426   O464    1.298   .     A
C426   O598    1.298   1_455 S
C427   C431    1.396   .     A
C427   C433    1.394   .     A
C428   C432    1.398   .     A
C428   C434    1.397   .     A
C429   H447    1.083   .     S
C429   C431    1.392   .     A
C429   C437    1.409   .     A
C430   C432    1.391   .     A
C430   C438    1.409   .     A
C430   H584    1.083   1_455 S
C431   H514    1.083   .     S
C432   H581    1.083   1_455 S
C433   H444    1.074   .     S
C433   C435    1.406   .     A
C434   C436    1.406   .     A
C434   H443    1.075   .     S
C435   C437    1.421   .     A
C435   C439    1.426   .     A
C436   C438    1.420   .     A
C436   C440    1.425   .     A
C437   C1025   1.400   .     S
C438   C1026   1.399   1_554 S
C439   C1052   1.419   .     S
C440   C1051   1.419   1_554 S
Cu441  O464    1.943   .     S
Cu441  O460    1.966   .     S
Cu441  O461    1.955   .     S
Cu441  N455    2.020   .     S
Cu441  O457    1.961   .     S
Cu441  Cu578   2.688   1_455 S
Cu442  O458    1.961   .     S
Cu442  O459    1.966   .     S
Cu442  O462    1.955   .     S
Cu442  N456    2.020   .     S
Cu442  O463    1.943   .     S
Cu442  Cu509   2.688   .     S
H445   C500    1.083   .     S
H446   C567    1.083   1_455 S
H448   C498    1.083   .     S
O457   C545    1.294   1_455 S
O458   C478    1.294   .     S
O461   C561    1.298   1_455 S
O462   C494    1.298   .     S
O465   H466    0.992   .     S
O467   H468    0.992   .     S
C469   N470    1.157   .     T
C471   N472    1.157   .     T
C473   N474    1.158   .     T
C475   N476    1.158   .     T
C477   O527    1.293   .     A
C477   C488    1.450   .     S
C477   O593    1.294   .     S
C478   O528    1.293   .     A
C478   C487    1.450   .     S
C479   C481    1.400   .     A
C479   C508    1.416   .     A
C479   H517    1.076   .     S
C480   C482    1.399   .     A
C480   H518    1.075   .     S
C480   C507    1.417   .     A
C481   O533    1.384   .     S
C481   C1117   1.400   1_554 S
C482   O535    1.383   .     S
C482   C1118   1.399   .     S
C483   C488    1.410   .     A
C483   C537    1.446   .     S
C484   C487    1.410   .     A
C484   C539    1.446   .     S
C484   C78     1.386   1_565 S
C485   H519    1.085   .     S
C485   C75     1.386   1_565 S
C485   C555    1.400   .     S
C486   H520    1.085   .     S
C488   C554    1.400   .     S
C489   N524    1.378   .     A
C489   C541    1.438   .     S
C489   C491    1.417   .     A
C490   C543    1.438   .     S
C490   N523    1.378   .     A
C490   C492    1.418   .     A
C491   N523    1.361   .     A
C491   H521    1.083   .     S
C492   N524    1.362   .     A
C492   H522    1.083   .     S
C493   O531    1.298   .     A
C493   C495    1.465   .     S
C493   O597    1.298   .     S
C494   C496    1.468   .     S
C494   O532    1.298   .     A
C495   C499    1.396   .     A
C495   C501    1.394   .     A
C496   C500    1.398   .     A
C496   C502    1.397   .     A
C497   H515    1.083   .     S
C497   C499    1.392   .     A
C497   C505    1.409   .     A
C498   C500    1.391   .     A
C498   C506    1.409   .     A
C499   H582    1.083   .     S
C501   H512    1.074   .     S
C501   C503    1.406   .     A
C502   C504    1.406   .     A
C502   H511    1.075   .     S
C503   C505    1.421   .     A
C503   C507    1.426   .     A
C504   C506    1.420   .     A
C504   C508    1.425   .     A
C505   C1093   1.400   .     S
C506   C1094   1.399   1_554 S
C507   C1120   1.419   .     S
C508   C1119   1.419   1_554 S
Cu509  O532    1.943   .     S
Cu509  O528    1.966   .     S
Cu509  O529    1.955   .     S
Cu509  N523    2.020   .     S
Cu509  O525    1.961   .     S
Cu510  O526    1.961   .     S
Cu510  O527    1.966   .     S
Cu510  O530    1.955   .     S
Cu510  N524    2.020   .     S
Cu510  O531    1.943   .     S
Cu510  Cu577   2.688   .     S
H513   C568    1.083   .     S
H516   C566    1.083   .     S
O526   C546    1.294   .     S
O530   C562    1.298   .     S
O533   H534    0.992   .     S
O535   H536    0.992   .     S
C537   N538    1.157   .     T
C539   N540    1.157   .     T
C541   N542    1.158   .     T
C543   N544    1.158   .     T
C545   O595    1.293   .     A
C545   C556    1.450   .     S
C545   O457    1.294   1_655 S
C546   O596    1.293   .     A
C546   C555    1.450   .     S
C547   C549    1.400   .     A
C547   C576    1.416   .     A
C547   H585    1.076   .     S
C548   C550    1.399   .     A
C548   H586    1.075   .     S
C548   C575    1.417   .     A
C549   O601    1.384   .     S
C549   C1185   1.400   1_554 S
C550   O603    1.383   .     S
C550   C1186   1.399   .     S
C551   C556    1.410   .     A
C551   C605    1.446   .     S
C552   C555    1.410   .     A
C552   C607    1.446   .     S
C552   C146    1.386   1_565 S
C553   H587    1.085   .     S
C553   C143    1.386   1_565 S
C553   C419    1.400   1_655 S
C554   H588    1.085   .     S
C556   C418    1.400   1_655 S
C557   N592    1.378   .     A
C557   C609    1.438   .     S
C557   C559    1.417   .     A
C558   C611    1.438   .     S
C558   N591    1.378   .     A
C558   C560    1.418   .     A
C559   N591    1.361   .     A
C559   H589    1.083   .     S
C560   N592    1.362   .     A
C560   H590    1.083   .     S
C561   O599    1.298   .     A
C561   C563    1.465   .     S
C561   O461    1.298   1_655 S
C562   C564    1.468   .     S
C562   O600    1.298   .     A
C563   C567    1.396   .     A
C563   C569    1.394   .     A
C564   C568    1.398   .     A
C564   C570    1.397   .     A
C565   H583    1.083   .     S
C565   C567    1.392   .     A
C565   C573    1.409   .     A
C566   C568    1.391   .     A
C566   C574    1.409   .     A
C567   H446    1.083   1_655 S
C569   H580    1.074   .     S
C569   C571    1.406   .     A
C570   C572    1.406   .     A
C570   H579    1.075   .     S
C571   C573    1.421   .     A
C571   C575    1.426   .     A
C572   C574    1.420   .     A
C572   C576    1.425   .     A
C573   C1161   1.400   .     S
C574   C1162   1.399   1_554 S
C575   C1188   1.419   .     S
C576   C1187   1.419   1_554 S
Cu577  O600    1.943   .     S
Cu577  O596    1.966   .     S
Cu577  O597    1.955   .     S
Cu577  N591    2.020   .     S
Cu577  O593    1.961   .     S
Cu578  O594    1.961   .     S
Cu578  O595    1.966   .     S
Cu578  O598    1.955   .     S
Cu578  N592    2.020   .     S
Cu578  O599    1.943   .     S
Cu578  Cu441   2.688   1_655 S
H581   C432    1.083   1_655 S
H584   C430    1.083   1_655 S
O594   C410    1.294   1_655 S
O598   C426    1.298   1_655 S
O601   H602    0.992   .     S
O603   H604    0.992   .     S
C605   N606    1.157   .     T
C607   N608    1.157   .     T
C609   N610    1.158   .     T
C611   N612    1.158   .     T
C613   O663    1.293   .     A
C613   C624    1.450   .     S
C613   O729    1.294   .     S
C614   O664    1.293   .     A
C614   C623    1.450   .     S
C614   O798    1.294   1_455 S
C615   C617    1.400   .     A
C615   C644    1.416   .     A
C615   H653    1.076   .     S
C616   C618    1.399   .     A
C616   H654    1.075   .     S
C616   C643    1.417   .     A
C617   O669    1.384   .     S
C618   O671    1.383   .     S
C618   C30     1.399   1_556 S
C619   C624    1.410   .     A
C619   C673    1.446   .     S
C619   C1029   1.386   1_545 S
C620   C623    1.410   .     A
C620   C675    1.446   .     S
C620   C826    1.386   .     S
C621   H655    1.085   .     S
C621   C823    1.386   .     S
C621   C691    1.400   .     S
C622   H656    1.085   .     S
C622   C1028   1.386   1_545 S
C622   C760    1.400   1_455 S
C623   C757    1.400   1_455 S
C624   C690    1.400   .     S
C625   N660    1.378   .     A
C625   C677    1.438   .     S
C625   C627    1.417   .     A
C626   C679    1.438   .     S
C626   N659    1.378   .     A
C626   C628    1.418   .     A
C627   N659    1.361   .     A
C627   H657    1.083   .     S
C628   N660    1.362   .     A
C628   H658    1.083   .     S
C629   O667    1.298   .     A
C629   C631    1.465   .     S
C629   O733    1.298   .     S
C630   C632    1.468   .     S
C630   O668    1.298   .     A
C630   O802    1.298   1_455 S
C631   C635    1.396   .     A
C631   C637    1.394   .     A
C632   C636    1.398   .     A
C632   C638    1.397   .     A
C633   H651    1.083   .     S
C633   C635    1.392   .     A
C633   C641    1.409   .     A
C634   C636    1.391   .     A
C634   C642    1.409   .     A
C634   H788    1.083   1_455 S
C635   H718    1.083   .     S
C636   H785    1.083   1_455 S
C637   H648    1.074   .     S
C637   C639    1.406   .     A
C638   C640    1.406   .     A
C638   H647    1.075   .     S
C639   C641    1.421   .     A
C639   C643    1.426   .     A
C640   C642    1.420   .     A
C640   C644    1.425   .     A
C641   C5      1.400   1_556 S
C643   C32     1.419   1_556 S
Cu645  O668    1.943   .     S
Cu645  O664    1.966   .     S
Cu645  O665    1.955   .     S
Cu645  N659    2.020   .     S
Cu645  O661    1.961   .     S
Cu645  Cu782   2.688   1_455 S
Cu646  O662    1.961   .     S
Cu646  O663    1.966   .     S
Cu646  O666    1.955   .     S
Cu646  N660    2.020   .     S
Cu646  O667    1.943   .     S
Cu646  Cu713   2.688   .     S
H649   C704    1.083   .     S
H650   C771    1.083   1_455 S
H652   C702    1.083   .     S
O661   C749    1.294   1_455 S
O662   C682    1.294   .     S
O665   C765    1.298   1_455 S
O666   C698    1.298   .     S
O669   H670    0.992   .     S
O671   H672    0.992   .     S
C673   N674    1.157   .     T
C675   N676    1.157   .     T
C677   N678    1.158   .     T
C679   N680    1.158   .     T
C681   O731    1.293   .     A
C681   C692    1.450   .     S
C681   O797    1.294   .     S
C682   O732    1.293   .     A
C682   C691    1.450   .     S
C683   C685    1.400   .     A
C683   C712    1.416   .     A
C683   H721    1.076   .     S
C684   C686    1.399   .     A
C684   H722    1.075   .     S
C684   C711    1.417   .     A
C685   O737    1.384   .     S
C686   O739    1.383   .     S
C686   C98     1.399   1_556 S
C687   C692    1.410   .     A
C687   C741    1.446   .     S
C687   C1097   1.386   1_545 S
C688   C691    1.410   .     A
C688   C743    1.446   .     S
C688   C894    1.386   .     S
C689   H723    1.085   .     S
C689   C891    1.386   .     S
C689   C759    1.400   .     S
C690   H724    1.085   .     S
C690   C1096   1.386   1_545 S
C692   C758    1.400   .     S
C693   N728    1.378   .     A
C693   C745    1.438   .     S
C693   C695    1.417   .     A
C694   C747    1.438   .     S
C694   N727    1.378   .     A
C694   C696    1.418   .     A
C695   N727    1.361   .     A
C695   H725    1.083   .     S
C696   N728    1.362   .     A
C696   H726    1.083   .     S
C697   O735    1.298   .     A
C697   C699    1.465   .     S
C697   O801    1.298   .     S
C698   C700    1.468   .     S
C698   O736    1.298   .     A
C699   C703    1.396   .     A
C699   C705    1.394   .     A
C700   C704    1.398   .     A
C700   C706    1.397   .     A
C701   H719    1.083   .     S
C701   C703    1.392   .     A
C701   C709    1.409   .     A
C702   C704    1.391   .     A
C702   C710    1.409   .     A
C703   H786    1.083   .     S
C705   H716    1.074   .     S
C705   C707    1.406   .     A
C706   C708    1.406   .     A
C706   H715    1.075   .     S
C707   C709    1.421   .     A
C707   C711    1.426   .     A
C708   C710    1.420   .     A
C708   C712    1.425   .     A
C709   C73     1.400   1_556 S
C711   C100    1.419   1_556 S
Cu713  O736    1.943   .     S
Cu713  O732    1.966   .     S
Cu713  O733    1.955   .     S
Cu713  N727    2.020   .     S
Cu713  O729    1.961   .     S
Cu714  O730    1.961   .     S
Cu714  O731    1.966   .     S
Cu714  O734    1.955   .     S
Cu714  N728    2.020   .     S
Cu714  O735    1.943   .     S
Cu714  Cu781   2.688   .     S
H717   C772    1.083   .     S
H720   C770    1.083   .     S
O730   C750    1.294   .     S
O734   C766    1.298   .     S
O737   H738    0.992   .     S
O739   H740    0.992   .     S
C741   N742    1.157   .     T
C743   N744    1.157   .     T
C745   N746    1.158   .     T
C747   N748    1.158   .     T
C749   O799    1.293   .     A
C749   C760    1.450   .     S
C749   O661    1.294   1_655 S
C750   O800    1.293   .     A
C750   C759    1.450   .     S
C751   C753    1.400   .     A
C751   C780    1.416   .     A
C751   H789    1.076   .     S
C752   C754    1.399   .     A
C752   H790    1.075   .     S
C752   C779    1.417   .     A
C753   O805    1.384   .     S
C754   O807    1.383   .     S
C754   C166    1.399   1_556 S
C755   C760    1.410   .     A
C755   C809    1.446   .     S
C755   C1165   1.386   1_545 S
C756   C759    1.410   .     A
C756   C811    1.446   .     S
C756   C962    1.386   .     S
C757   H791    1.085   .     S
C757   C959    1.386   .     S
C757   C623    1.400   1_655 S
C758   H792    1.085   .     S
C758   C1164   1.386   1_545 S
C760   C622    1.400   1_655 S
C761   N796    1.378   .     A
C761   C813    1.438   .     S
C761   C763    1.417   .     A
C762   C815    1.438   .     S
C762   N795    1.378   .     A
C762   C764    1.418   .     A
C763   N795    1.361   .     A
C763   H793    1.083   .     S
C764   N796    1.362   .     A
C764   H794    1.083   .     S
C765   O803    1.298   .     A
C765   C767    1.465   .     S
C765   O665    1.298   1_655 S
C766   C768    1.468   .     S
C766   O804    1.298   .     A
C767   C771    1.396   .     A
C767   C773    1.394   .     A
C768   C772    1.398   .     A
C768   C774    1.397   .     A
C769   H787    1.083   .     S
C769   C771    1.392   .     A
C769   C777    1.409   .     A
C770   C772    1.391   .     A
C770   C778    1.409   .     A
C771   H650    1.083   1_655 S
C773   H784    1.074   .     S
C773   C775    1.406   .     A
C774   C776    1.406   .     A
C774   H783    1.075   .     S
C775   C777    1.421   .     A
C775   C779    1.426   .     A
C776   C778    1.420   .     A
C776   C780    1.425   .     A
C777   C141    1.400   1_556 S
C779   C168    1.419   1_556 S
Cu781  O804    1.943   .     S
Cu781  O800    1.966   .     S
Cu781  O801    1.955   .     S
Cu781  N795    2.020   .     S
Cu781  O797    1.961   .     S
Cu782  O798    1.961   .     S
Cu782  O799    1.966   .     S
Cu782  O802    1.955   .     S
Cu782  N796    2.020   .     S
Cu782  O803    1.943   .     S
Cu782  Cu645   2.688   1_655 S
H785   C636    1.083   1_655 S
H788   C634    1.083   1_655 S
O798   C614    1.294   1_655 S
O802   C630    1.298   1_655 S
O805   H806    0.992   .     S
O807   H808    0.992   .     S
C809   N810    1.157   .     T
C811   N812    1.157   .     T
C813   N814    1.158   .     T
C815   N816    1.158   .     T
C817   O867    1.293   .     A
C817   C828    1.450   .     S
C817   O933    1.294   .     S
C818   O868    1.293   .     A
C818   C827    1.450   .     S
C818   O1002   1.294   1_455 S
C819   C821    1.400   .     A
C819   C848    1.416   .     A
C819   H857    1.076   .     S
C820   C822    1.399   .     A
C820   H858    1.075   .     S
C820   C847    1.417   .     A
C821   O873    1.384   .     S
C822   O875    1.383   .     S
C822   C234    1.399   1_556 S
C823   C828    1.410   .     A
C823   C877    1.446   .     S
C824   C827    1.410   .     A
C824   C879    1.446   .     S
C824   C1030   1.386   .     S
C825   H859    1.085   .     S
C825   C1027   1.386   .     S
C825   C895    1.400   .     S
C826   H860    1.085   .     S
C826   C964    1.400   1_455 S
C827   C961    1.400   1_455 S
C828   C894    1.400   .     S
C829   N864    1.378   .     A
C829   C881    1.438   .     S
C829   C831    1.417   .     A
C830   C883    1.438   .     S
C830   N863    1.378   .     A
C830   C832    1.418   .     A
C831   N863    1.361   .     A
C831   H861    1.083   .     S
C832   N864    1.362   .     A
C832   H862    1.083   .     S
C833   O871    1.298   .     A
C833   C835    1.465   .     S
C833   O937    1.298   .     S
C834   C836    1.468   .     S
C834   O872    1.298   .     A
C834   O1006   1.298   1_455 S
C835   C839    1.396   .     A
C835   C841    1.394   .     A
C836   C840    1.398   .     A
C836   C842    1.397   .     A
C837   H855    1.083   .     S
C837   C839    1.392   .     A
C837   C845    1.409   .     A
C838   C840    1.391   .     A
C838   C846    1.409   .     A
C838   H992    1.083   1_455 S
C839   H922    1.083   .     S
C840   H989    1.083   1_455 S
C841   H852    1.074   .     S
C841   C843    1.406   .     A
C842   C844    1.406   .     A
C842   H851    1.075   .     S
C843   C845    1.421   .     A
C843   C847    1.426   .     A
C844   C846    1.420   .     A
C844   C848    1.425   .     A
C845   C209    1.400   1_556 S
C847   C236    1.419   1_556 S
Cu849  O872    1.943   .     S
Cu849  O868    1.966   .     S
Cu849  O869    1.955   .     S
Cu849  N863    2.020   .     S
Cu849  O865    1.961   .     S
Cu849  Cu986   2.688   1_455 S
Cu850  O866    1.961   .     S
Cu850  O867    1.966   .     S
Cu850  O870    1.955   .     S
Cu850  N864    2.020   .     S
Cu850  O871    1.943   .     S
Cu850  Cu917   2.688   .     S
H853   C908    1.083   .     S
H854   C975    1.083   1_455 S
H856   C906    1.083   .     S
O865   C953    1.294   1_455 S
O866   C886    1.294   .     S
O869   C969    1.298   1_455 S
O870   C902    1.298   .     S
O873   H874    0.992   .     S
O875   H876    0.992   .     S
C877   N878    1.157   .     T
C879   N880    1.157   .     T
C881   N882    1.158   .     T
C883   N884    1.158   .     T
C885   O935    1.293   .     A
C885   C896    1.450   .     S
C885   O1001   1.294   .     S
C886   O936    1.293   .     A
C886   C895    1.450   .     S
C887   C889    1.400   .     A
C887   C916    1.416   .     A
C887   H925    1.076   .     S
C888   C890    1.399   .     A
C888   H926    1.075   .     S
C888   C915    1.417   .     A
C889   O941    1.384   .     S
C890   O943    1.383   .     S
C890   C302    1.399   1_556 S
C891   C896    1.410   .     A
C891   C945    1.446   .     S
C892   C895    1.410   .     A
C892   C947    1.446   .     S
C892   C1098   1.386   .     S
C893   H927    1.085   .     S
C893   C1095   1.386   .     S
C893   C963    1.400   .     S
C894   H928    1.085   .     S
C896   C962    1.400   .     S
C897   N932    1.378   .     A
C897   C949    1.438   .     S
C897   C899    1.417   .     A
C898   C951    1.438   .     S
C898   N931    1.378   .     A
C898   C900    1.418   .     A
C899   N931    1.361   .     A
C899   H929    1.083   .     S
C900   N932    1.362   .     A
C900   H930    1.083   .     S
C901   O939    1.298   .     A
C901   C903    1.465   .     S
C901   O1005   1.298   .     S
C902   C904    1.468   .     S
C902   O940    1.298   .     A
C903   C907    1.396   .     A
C903   C909    1.394   .     A
C904   C908    1.398   .     A
C904   C910    1.397   .     A
C905   H923    1.083   .     S
C905   C907    1.392   .     A
C905   C913    1.409   .     A
C906   C908    1.391   .     A
C906   C914    1.409   .     A
C907   H990    1.083   .     S
C909   H920    1.074   .     S
C909   C911    1.406   .     A
C910   C912    1.406   .     A
C910   H919    1.075   .     S
C911   C913    1.421   .     A
C911   C915    1.426   .     A
C912   C914    1.420   .     A
C912   C916    1.425   .     A
C913   C277    1.400   1_556 S
C915   C304    1.419   1_556 S
Cu917  O940    1.943   .     S
Cu917  O936    1.966   .     S
Cu917  O937    1.955   .     S
Cu917  N931    2.020   .     S
Cu917  O933    1.961   .     S
Cu918  O934    1.961   .     S
Cu918  O935    1.966   .     S
Cu918  O938    1.955   .     S
Cu918  N932    2.020   .     S
Cu918  O939    1.943   .     S
Cu918  Cu985   2.688   .     S
H921   C976    1.083   .     S
H924   C974    1.083   .     S
O934   C954    1.294   .     S
O938   C970    1.298   .     S
O941   H942    0.992   .     S
O943   H944    0.992   .     S
C945   N946    1.157   .     T
C947   N948    1.157   .     T
C949   N950    1.158   .     T
C951   N952    1.158   .     T
C953   O1003   1.293   .     A
C953   C964    1.450   .     S
C953   O865    1.294   1_655 S
C954   O1004   1.293   .     A
C954   C963    1.450   .     S
C955   C957    1.400   .     A
C955   C984    1.416   .     A
C955   H993    1.076   .     S
C956   C958    1.399   .     A
C956   H994    1.075   .     S
C956   C983    1.417   .     A
C957   O1009   1.384   .     S
C958   O1011   1.383   .     S
C958   C370    1.399   1_556 S
C959   C964    1.410   .     A
C959   C1013   1.446   .     S
C960   C963    1.410   .     A
C960   C1015   1.446   .     S
C960   C1166   1.386   .     S
C961   H995    1.085   .     S
C961   C1163   1.386   .     S
C961   C827    1.400   1_655 S
C962   H996    1.085   .     S
C964   C826    1.400   1_655 S
C965   N1000   1.378   .     A
C965   C1017   1.438   .     S
C965   C967    1.417   .     A
C966   C1019   1.438   .     S
C966   N999    1.378   .     A
C966   C968    1.418   .     A
C967   N999    1.361   .     A
C967   H997    1.083   .     S
C968   N1000   1.362   .     A
C968   H998    1.083   .     S
C969   O1007   1.298   .     A
C969   C971    1.465   .     S
C969   O869    1.298   1_655 S
C970   C972    1.468   .     S
C970   O1008   1.298   .     A
C971   C975    1.396   .     A
C971   C977    1.394   .     A
C972   C976    1.398   .     A
C972   C978    1.397   .     A
C973   H991    1.083   .     S
C973   C975    1.392   .     A
C973   C981    1.409   .     A
C974   C976    1.391   .     A
C974   C982    1.409   .     A
C975   H854    1.083   1_655 S
C977   H988    1.074   .     S
C977   C979    1.406   .     A
C978   C980    1.406   .     A
C978   H987    1.075   .     S
C979   C981    1.421   .     A
C979   C983    1.426   .     A
C980   C982    1.420   .     A
C980   C984    1.425   .     A
C981   C345    1.400   1_556 S
C983   C372    1.419   1_556 S
Cu985  O1008   1.943   .     S
Cu985  O1004   1.966   .     S
Cu985  O1005   1.955   .     S
Cu985  N999    2.020   .     S
Cu985  O1001   1.961   .     S
Cu986  O1002   1.961   .     S
Cu986  O1003   1.966   .     S
Cu986  O1006   1.955   .     S
Cu986  N1000   2.020   .     S
Cu986  O1007   1.943   .     S
Cu986  Cu849   2.688   1_655 S
H989   C840    1.083   1_655 S
H992   C838    1.083   1_655 S
O1002  C818    1.294   1_655 S
O1006  C834    1.298   1_655 S
O1009  H1010   0.992   .     S
O1011  H1012   0.992   .     S
C1013  N1014   1.157   .     T
C1015  N1016   1.157   .     T
C1017  N1018   1.158   .     T
C1019  N1020   1.158   .     T
C1021  O1071   1.293   .     A
C1021  C1032   1.450   .     S
C1021  O1137   1.294   .     S
C1022  O1072   1.293   .     A
C1022  C1031   1.450   .     S
C1022  O1206   1.294   1_455 S
C1023  C1025   1.400   .     A
C1023  C1052   1.416   .     A
C1023  H1061   1.076   .     S
C1024  C1026   1.399   .     A
C1024  H1062   1.075   .     S
C1024  C1051   1.417   .     A
C1025  O1077   1.384   .     S
C1026  O1079   1.383   .     S
C1026  C438    1.399   1_556 S
C1027  C1032   1.410   .     A
C1027  C1081   1.446   .     S
C1028  C1031   1.410   .     A
C1028  C1083   1.446   .     S
C1028  C622    1.386   1_565 S
C1029  H1063   1.085   .     S
C1029  C619    1.386   1_565 S
C1029  C1099   1.400   .     S
C1030  H1064   1.085   .     S
C1030  C1168   1.400   1_455 S
C1031  C1165   1.400   1_455 S
C1032  C1098   1.400   .     S
C1033  N1068   1.378   .     A
C1033  C1085   1.438   .     S
C1033  C1035   1.417   .     A
C1034  C1087   1.438   .     S
C1034  N1067   1.378   .     A
C1034  C1036   1.418   .     A
C1035  N1067   1.361   .     A
C1035  H1065   1.083   .     S
C1036  N1068   1.362   .     A
C1036  H1066   1.083   .     S
C1037  O1075   1.298   .     A
C1037  C1039   1.465   .     S
C1037  O1141   1.298   .     S
C1038  C1040   1.468   .     S
C1038  O1076   1.298   .     A
C1038  O1210   1.298   1_455 S
C1039  C1043   1.396   .     A
C1039  C1045   1.394   .     A
C1040  C1044   1.398   .     A
C1040  C1046   1.397   .     A
C1041  H1059   1.083   .     S
C1041  C1043   1.392   .     A
C1041  C1049   1.409   .     A
C1042  C1044   1.391   .     A
C1042  C1050   1.409   .     A
C1042  H1196   1.083   1_455 S
C1043  H1126   1.083   .     S
C1044  H1193   1.083   1_455 S
C1045  H1056   1.074   .     S
C1045  C1047   1.406   .     A
C1046  C1048   1.406   .     A
C1046  H1055   1.075   .     S
C1047  C1049   1.421   .     A
C1047  C1051   1.426   .     A
C1048  C1050   1.420   .     A
C1048  C1052   1.425   .     A
C1049  C413    1.400   1_556 S
C1051  C440    1.419   1_556 S
Cu1053 O1076   1.943   .     S
Cu1053 O1072   1.966   .     S
Cu1053 O1073   1.955   .     S
Cu1053 N1067   2.020   .     S
Cu1053 O1069   1.961   .     S
Cu1053 Cu1190  2.688   1_455 S
Cu1054 O1070   1.961   .     S
Cu1054 O1071   1.966   .     S
Cu1054 O1074   1.955   .     S
Cu1054 N1068   2.020   .     S
Cu1054 O1075   1.943   .     S
Cu1054 Cu1121  2.688   .     S
H1057  C1112   1.083   .     S
H1058  C1179   1.083   1_455 S
H1060  C1110   1.083   .     S
O1069  C1157   1.294   1_455 S
O1070  C1090   1.294   .     S
O1073  C1173   1.298   1_455 S
O1074  C1106   1.298   .     S
O1077  H1078   0.992   .     S
O1079  H1080   0.992   .     S
C1081  N1082   1.157   .     T
C1083  N1084   1.157   .     T
C1085  N1086   1.158   .     T
C1087  N1088   1.158   .     T
C1089  O1139   1.293   .     A
C1089  C1100   1.450   .     S
C1089  O1205   1.294   .     S
C1090  O1140   1.293   .     A
C1090  C1099   1.450   .     S
C1091  C1093   1.400   .     A
C1091  C1120   1.416   .     A
C1091  H1129   1.076   .     S
C1092  C1094   1.399   .     A
C1092  H1130   1.075   .     S
C1092  C1119   1.417   .     A
C1093  O1145   1.384   .     S
C1094  O1147   1.383   .     S
C1094  C506    1.399   1_556 S
C1095  C1100   1.410   .     A
C1095  C1149   1.446   .     S
C1096  C1099   1.410   .     A
C1096  C1151   1.446   .     S
C1096  C690    1.386   1_565 S
C1097  H1131   1.085   .     S
C1097  C687    1.386   1_565 S
C1097  C1167   1.400   .     S
C1098  H1132   1.085   .     S
C1100  C1166   1.400   .     S
C1101  N1136   1.378   .     A
C1101  C1153   1.438   .     S
C1101  C1103   1.417   .     A
C1102  C1155   1.438   .     S
C1102  N1135   1.378   .     A
C1102  C1104   1.418   .     A
C1103  N1135   1.361   .     A
C1103  H1133   1.083   .     S
C1104  N1136   1.362   .     A
C1104  H1134   1.083   .     S
C1105  O1143   1.298   .     A
C1105  C1107   1.465   .     S
C1105  O1209   1.298   .     S
C1106  C1108   1.468   .     S
C1106  O1144   1.298   .     A
C1107  C1111   1.396   .     A
C1107  C1113   1.394   .     A
C1108  C1112   1.398   .     A
C1108  C1114   1.397   .     A
C1109  H1127   1.083   .     S
C1109  C1111   1.392   .     A
C1109  C1117   1.409   .     A
C1110  C1112   1.391   .     A
C1110  C1118   1.409   .     A
C1111  H1194   1.083   .     S
C1113  H1124   1.074   .     S
C1113  C1115   1.406   .     A
C1114  C1116   1.406   .     A
C1114  H1123   1.075   .     S
C1115  C1117   1.421   .     A
C1115  C1119   1.426   .     A
C1116  C1118   1.420   .     A
C1116  C1120   1.425   .     A
C1117  C481    1.400   1_556 S
C1119  C508    1.419   1_556 S
Cu1121 O1144   1.943   .     S
Cu1121 O1140   1.966   .     S
Cu1121 O1141   1.955   .     S
Cu1121 N1135   2.020   .     S
Cu1121 O1137   1.961   .     S
Cu1122 O1138   1.961   .     S
Cu1122 O1139   1.966   .     S
Cu1122 O1142   1.955   .     S
Cu1122 N1136   2.020   .     S
Cu1122 O1143   1.943   .     S
Cu1122 Cu1189  2.688   .     S
H1125  C1180   1.083   .     S
H1128  C1178   1.083   .     S
O1138  C1158   1.294   .     S
O1142  C1174   1.298   .     S
O1145  H1146   0.992   .     S
O1147  H1148   0.992   .     S
C1149  N1150   1.157   .     T
C1151  N1152   1.157   .     T
C1153  N1154   1.158   .     T
C1155  N1156   1.158   .     T
C1157  O1207   1.293   .     A
C1157  C1168   1.450   .     S
C1157  O1069   1.294   1_655 S
C1158  O1208   1.293   .     A
C1158  C1167   1.450   .     S
C1159  C1161   1.400   .     A
C1159  C1188   1.416   .     A
C1159  H1197   1.076   .     S
C1160  C1162   1.399   .     A
C1160  H1198   1.075   .     S
C1160  C1187   1.417   .     A
C1161  O1213   1.384   .     S
C1162  O1215   1.383   .     S
C1162  C574    1.399   1_556 S
C1163  C1168   1.410   .     A
C1163  C1217   1.446   .     S
C1164  C1167   1.410   .     A
C1164  C1219   1.446   .     S
C1164  C758    1.386   1_565 S
C1165  H1199   1.085   .     S
C1165  C755    1.386   1_565 S
C1165  C1031   1.400   1_655 S
C1166  H1200   1.085   .     S
C1168  C1030   1.400   1_655 S
C1169  N1204   1.378   .     A
C1169  C1221   1.438   .     S
C1169  C1171   1.417   .     A
C1170  C1223   1.438   .     S
C1170  N1203   1.378   .     A
C1170  C1172   1.418   .     A
C1171  N1203   1.361   .     A
C1171  H1201   1.083   .     S
C1172  N1204   1.362   .     A
C1172  H1202   1.083   .     S
C1173  O1211   1.298   .     A
C1173  C1175   1.465   .     S
C1173  O1073   1.298   1_655 S
C1174  C1176   1.468   .     S
C1174  O1212   1.298   .     A
C1175  C1179   1.396   .     A
C1175  C1181   1.394   .     A
C1176  C1180   1.398   .     A
C1176  C1182   1.397   .     A
C1177  H1195   1.083   .     S
C1177  C1179   1.392   .     A
C1177  C1185   1.409   .     A
C1178  C1180   1.391   .     A
C1178  C1186   1.409   .     A
C1179  H1058   1.083   1_655 S
C1181  H1192   1.074   .     S
C1181  C1183   1.406   .     A
C1182  C1184   1.406   .     A
C1182  H1191   1.075   .     S
C1183  C1185   1.421   .     A
C1183  C1187   1.426   .     A
C1184  C1186   1.420   .     A
C1184  C1188   1.425   .     A
C1185  C549    1.400   1_556 S
C1187  C576    1.419   1_556 S
Cu1189 O1212   1.943   .     S
Cu1189 O1208   1.966   .     S
Cu1189 O1209   1.955   .     S
Cu1189 N1203   2.020   .     S
Cu1189 O1205   1.961   .     S
Cu1190 O1206   1.961   .     S
Cu1190 O1207   1.966   .     S
Cu1190 O1210   1.955   .     S
Cu1190 N1204   2.020   .     S
Cu1190 O1211   1.943   .     S
Cu1190 Cu1053  2.688   1_655 S
H1193  C1044   1.083   1_655 S
H1196  C1042   1.083   1_655 S
O1206  C1022   1.294   1_655 S
O1210  C1038   1.298   1_655 S
O1213  H1214   0.992   .     S
O1215  H1216   0.992   .     S
C1217  N1218   1.157   .     T
C1219  N1220   1.157   .     T
C1221  N1222   1.158   .     T
C1223  N1224   1.158   .     T
