data_str_m2_o2_o10_pcu_sym.19
_audit_creation_date              2020-01-03
_audit_creation_method            'Materials Studio'
_symmetry_space_group_name_H-M    'P1'
_symmetry_Int_Tables_number       1
_symmetry_cell_setting            triclinic
loop_
_symmetry_equiv_pos_as_xyz
  x,y,z
_cell_length_a                    26.1525
_cell_length_b                    30.2426
_cell_length_c                    27.6812
_cell_angle_alpha                 89.9206
_cell_angle_beta                  98.0213
_cell_angle_gamma                 89.9213
loop_
_atom_site_label
_atom_site_type_symbol
_atom_site_fract_x
_atom_site_fract_y
_atom_site_fract_z
_atom_site_U_iso_or_equiv
_atom_site_adp_type
_atom_site_occupancy
C1     C     0.16688   0.16493   0.25004   0.00000  Uiso   1.00
C2     C     0.14866   0.28685   0.44446   0.00000  Uiso   1.00
C3     C     0.16699   0.25042   0.02748   0.00000  Uiso   1.00
C4     C     0.16689   0.24965   0.47279   0.00000  Uiso   1.00
C5     C     0.06786   0.25001   0.23751   0.00000  Uiso   1.00
C6     C     0.26547   0.25001   0.26248   0.00000  Uiso   1.00
C7     C     0.01257   0.25003   0.23060   0.00000  Uiso   1.00
C8     C     0.32075   0.25003   0.26936   0.00000  Uiso   1.00
C9     C     0.14942   0.04721   0.28691   0.00000  Uiso   1.00
C10    C     0.15024   0.45290   0.20835   0.00000  Uiso   1.00
C11    C     0.14887   0.09313   0.28723   0.00000  Uiso   1.00
C12    C     0.16683   0.33508   0.25002   0.00000  Uiso   1.00
C13    C     0.14959   0.40698   0.20789   0.00000  Uiso   1.00
C14    C     0.16810   0.11672   0.25016   0.00000  Uiso   1.00
C15    C     0.16793   0.38330   0.25028   0.00000  Uiso   1.00
C16    C     0.18877   0.09407   0.21322   0.00000  Uiso   1.00
C17    C     0.18761   0.40591   0.29299   0.00000  Uiso   1.00
C18    C     0.19164   0.04791   0.21387   0.00000  Uiso   1.00
C19    C     0.19036   0.45201   0.29317   0.00000  Uiso   1.00
C20    C     0.17070   0.02430   0.25043   0.00000  Uiso   1.00
C21    C     0.17062   0.47574   0.25075   0.00000  Uiso   1.00
C22    C     0.26655   0.02964   0.18591   0.00000  Uiso   1.00
C23    C     0.20426   0.27495   0.05897   0.00000  Uiso   1.00
C24    C     0.26449   0.47398   0.33911   0.00000  Uiso   1.00
C25    C     0.24435   0.30413   0.04002   0.00000  Uiso   1.00
C26    C     0.28913   0.27740   0.02446   0.00000  Uiso   1.00
C27    C     0.33211   0.30758   0.01182   0.00000  Uiso   1.00
C28    C     0.19607   0.16800   0.47426   0.00000  Uiso   1.00
C29    C     0.24821   0.16820   0.00726   0.00000  Uiso   1.00
C30    C     0.26073   0.12262   0.02962   0.00000  Uiso   1.00
C31    C     0.06596   0.17116   0.03660   0.00000  Uiso   1.00
C32    C     0.13626   0.36320   0.44709   0.00000  Uiso   1.00
C33    C     0.18329   0.21186   0.44845   0.00000  Uiso   1.00
C34    C     0.20305   0.27364   0.10983   0.00000  Uiso   1.00
C35    C     0.18424   0.21389   0.39754   0.00000  Uiso   1.00
C36    C     0.12954   0.22758   0.09980   0.00000  Uiso   1.00
C37    C     0.14785   0.28544   0.39294   0.00000  Uiso   1.00
C38    C     0.12854   0.22700   0.04816   0.00000  Uiso   1.00
Cu39   Cu    0.16667   0.25000   0.29822   0.00000  Uiso   1.00
Cu40   Cu    0.16667   0.25001   0.20179   0.00000  Uiso   1.00
H41    H     0.32584   0.25004   0.19344   0.00000  Uiso   1.00
H42    H     0.19825   0.18577   0.37919   0.00000  Uiso   1.00
H43    H     0.10034   0.21073   0.11679   0.00000  Uiso   1.00
H44    H     0.13149   0.31246   0.37038   0.00000  Uiso   1.00
H45    H     0.28262   0.01688   0.22265   0.00000  Uiso   1.00
H46    H     0.27896   0.06439   0.18144   0.00000  Uiso   1.00
H47    H     0.28308   0.00933   0.15854   0.00000  Uiso   1.00
H48    H     0.27756   0.49106   0.30737   0.00000  Uiso   1.00
H49    H     0.28050   0.43983   0.34277   0.00000  Uiso   1.00
H50    H     0.28037   0.49249   0.37240   0.00000  Uiso   1.00
H51    H     0.31698   0.33050   0.48179   0.00000  Uiso   1.00
H52    H     0.00749   0.25004   0.30651   0.00000  Uiso   1.00
H53    H     0.01528   0.32704   0.04427   0.00000  Uiso   1.00
H54    H     0.03004   0.28727   0.49975   0.00000  Uiso   1.00
H55    H     0.30543   0.25488   0.05451   0.00000  Uiso   1.00
H56    H     0.27504   0.25754   0.49170   0.00000  Uiso   1.00
H57    H     0.22610   0.32458   0.00910   0.00000  Uiso   1.00
H58    H     0.26037   0.32786   0.06888   0.00000  Uiso   1.00
H59    H     0.23017   0.11213   0.05133   0.00000  Uiso   1.00
H60    H     0.26391   0.09788   0.00055   0.00000  Uiso   1.00
H61    H     0.29807   0.12384   0.05418   0.00000  Uiso   1.00
H62    H     0.27925   0.17786   0.48572   0.00000  Uiso   1.00
H63    H     0.13275   0.02950   0.31495   0.00000  Uiso   1.00
H64    H     0.24728   0.19198   0.03751   0.00000  Uiso   1.00
H65    H     0.16501   0.15890   0.49581   0.00000  Uiso   1.00
H66    H     0.19684   0.14122   0.44685   0.00000  Uiso   1.00
H67    H     0.03739   0.18283   0.05992   0.00000  Uiso   1.00
H68    H     0.09510   0.14870   0.05708   0.00000  Uiso   1.00
H69    H     0.04453   0.15157   0.00653   0.00000  Uiso   1.00
H70    H     0.13241   0.38928   0.47449   0.00000  Uiso   1.00
H71    H     0.17581   0.36610   0.43676   0.00000  Uiso   1.00
H72    H     0.10636   0.36975   0.41527   0.00000  Uiso   1.00
H73    H     0.13435   0.47067   0.17566   0.00000  Uiso   1.00
H74    H     0.13238   0.11016   0.31583   0.00000  Uiso   1.00
H75    H     0.13381   0.39001   0.17471   0.00000  Uiso   1.00
H76    H     0.20350   0.11212   0.18427   0.00000  Uiso   1.00
H77    H     0.20182   0.38789   0.32602   0.00000  Uiso   1.00
H78    H     0.23126   0.29205   0.13413   0.00000  Uiso   1.00
N79    N     0.16667   0.25001   0.12935   0.00000  Uiso   1.00
N80    N     0.16667   0.24999   0.37066   0.00000  Uiso   1.00
O81    O     0.16667   0.18573   0.29072   0.00000  Uiso   1.00
O82    O     0.21020   0.47385   0.33549   0.00000  Uiso   1.00
O83    O     0.08912   0.20743   0.01606   0.00000  Uiso   1.00
O84    O     0.12772   0.32177   0.46812   0.00000  Uiso   1.00
O85    O     0.16666   0.31428   0.20929   0.00000  Uiso   1.00
O86    O     0.16667   0.18573   0.20928   0.00000  Uiso   1.00
O87    O     0.16666   0.31427   0.29072   0.00000  Uiso   1.00
O88    O     0.09161   0.25000   0.28132   0.00000  Uiso   1.00
O89    O     0.24172   0.25001   0.21868   0.00000  Uiso   1.00
O90    O     0.09161   0.25000   0.19989   0.00000  Uiso   1.00
O91    O     0.24172   0.25000   0.30012   0.00000  Uiso   1.00
O92    O     0.21232   0.02573   0.17741   0.00000  Uiso   1.00
C93    C     0.50021   0.16493   0.25004   0.00000  Uiso   1.00
C94    C     0.48199   0.28685   0.44446   0.00000  Uiso   1.00
C95    C     0.50032   0.25042   0.02748   0.00000  Uiso   1.00
C96    C     0.50022   0.24965   0.47279   0.00000  Uiso   1.00
C97    C     0.40119   0.25001   0.23751   0.00000  Uiso   1.00
C98    C     0.59880   0.25001   0.26248   0.00000  Uiso   1.00
C99    C     0.34591   0.25003   0.23060   0.00000  Uiso   1.00
C100   C     0.65409   0.25003   0.26936   0.00000  Uiso   1.00
C101   C     0.48275   0.04721   0.28691   0.00000  Uiso   1.00
C102   C     0.48357   0.45290   0.20835   0.00000  Uiso   1.00
C103   C     0.48220   0.09313   0.28723   0.00000  Uiso   1.00
C104   C     0.50016   0.33508   0.25002   0.00000  Uiso   1.00
C105   C     0.48293   0.40698   0.20789   0.00000  Uiso   1.00
C106   C     0.50143   0.11672   0.25016   0.00000  Uiso   1.00
C107   C     0.50127   0.38330   0.25028   0.00000  Uiso   1.00
C108   C     0.52210   0.09407   0.21322   0.00000  Uiso   1.00
C109   C     0.52094   0.40591   0.29299   0.00000  Uiso   1.00
C110   C     0.52497   0.04791   0.21387   0.00000  Uiso   1.00
C111   C     0.52369   0.45201   0.29317   0.00000  Uiso   1.00
C112   C     0.50403   0.02430   0.25043   0.00000  Uiso   1.00
C113   C     0.50396   0.47574   0.25075   0.00000  Uiso   1.00
C114   C     0.59988   0.02964   0.18591   0.00000  Uiso   1.00
C115   C     0.53760   0.27495   0.05897   0.00000  Uiso   1.00
C116   C     0.59782   0.47398   0.33911   0.00000  Uiso   1.00
C117   C     0.57769   0.30413   0.04002   0.00000  Uiso   1.00
C118   C     0.62247   0.27740   0.02446   0.00000  Uiso   1.00
C119   C     0.66544   0.30758   0.01182   0.00000  Uiso   1.00
C120   C     0.52941   0.16800   0.47426   0.00000  Uiso   1.00
C121   C     0.58155   0.16820   0.00726   0.00000  Uiso   1.00
C122   C     0.59407   0.12262   0.02962   0.00000  Uiso   1.00
C123   C     0.39930   0.17116   0.03660   0.00000  Uiso   1.00
C124   C     0.46959   0.36320   0.44709   0.00000  Uiso   1.00
C125   C     0.51662   0.21186   0.44845   0.00000  Uiso   1.00
C126   C     0.53638   0.27364   0.10983   0.00000  Uiso   1.00
C127   C     0.51758   0.21389   0.39754   0.00000  Uiso   1.00
C128   C     0.46287   0.22758   0.09980   0.00000  Uiso   1.00
C129   C     0.48118   0.28544   0.39294   0.00000  Uiso   1.00
C130   C     0.46187   0.22700   0.04816   0.00000  Uiso   1.00
Cu131  Cu    0.50000   0.25000   0.29822   0.00000  Uiso   1.00
Cu132  Cu    0.50000   0.25001   0.20179   0.00000  Uiso   1.00
H133   H     0.65917   0.25004   0.19344   0.00000  Uiso   1.00
H134   H     0.53158   0.18577   0.37919   0.00000  Uiso   1.00
H135   H     0.43367   0.21073   0.11679   0.00000  Uiso   1.00
H136   H     0.46483   0.31246   0.37038   0.00000  Uiso   1.00
H137   H     0.61596   0.01688   0.22265   0.00000  Uiso   1.00
H138   H     0.61230   0.06439   0.18144   0.00000  Uiso   1.00
H139   H     0.61641   0.00933   0.15854   0.00000  Uiso   1.00
H140   H     0.61089   0.49106   0.30737   0.00000  Uiso   1.00
H141   H     0.61383   0.43983   0.34277   0.00000  Uiso   1.00
H142   H     0.61370   0.49249   0.37240   0.00000  Uiso   1.00
H143   H     0.65031   0.33050   0.48179   0.00000  Uiso   1.00
H144   H     0.34082   0.25004   0.30651   0.00000  Uiso   1.00
H145   H     0.34862   0.32704   0.04427   0.00000  Uiso   1.00
H146   H     0.36337   0.28727   0.49975   0.00000  Uiso   1.00
H147   H     0.63876   0.25488   0.05451   0.00000  Uiso   1.00
H148   H     0.60837   0.25754   0.49170   0.00000  Uiso   1.00
H149   H     0.55943   0.32458   0.00910   0.00000  Uiso   1.00
H150   H     0.59370   0.32786   0.06888   0.00000  Uiso   1.00
H151   H     0.56350   0.11213   0.05133   0.00000  Uiso   1.00
H152   H     0.59724   0.09788   0.00055   0.00000  Uiso   1.00
H153   H     0.63141   0.12384   0.05418   0.00000  Uiso   1.00
H154   H     0.61258   0.17786   0.48572   0.00000  Uiso   1.00
H155   H     0.46609   0.02950   0.31495   0.00000  Uiso   1.00
H156   H     0.58062   0.19198   0.03751   0.00000  Uiso   1.00
H157   H     0.49834   0.15890   0.49581   0.00000  Uiso   1.00
H158   H     0.53017   0.14122   0.44685   0.00000  Uiso   1.00
H159   H     0.37072   0.18283   0.05992   0.00000  Uiso   1.00
H160   H     0.42844   0.14870   0.05708   0.00000  Uiso   1.00
H161   H     0.37787   0.15157   0.00653   0.00000  Uiso   1.00
H162   H     0.46574   0.38928   0.47449   0.00000  Uiso   1.00
H163   H     0.50914   0.36610   0.43676   0.00000  Uiso   1.00
H164   H     0.43970   0.36975   0.41527   0.00000  Uiso   1.00
H165   H     0.46768   0.47067   0.17566   0.00000  Uiso   1.00
H166   H     0.46572   0.11016   0.31583   0.00000  Uiso   1.00
H167   H     0.46714   0.39001   0.17471   0.00000  Uiso   1.00
H168   H     0.53683   0.11212   0.18427   0.00000  Uiso   1.00
H169   H     0.53515   0.38789   0.32602   0.00000  Uiso   1.00
H170   H     0.56460   0.29205   0.13413   0.00000  Uiso   1.00
N171   N     0.50000   0.25001   0.12935   0.00000  Uiso   1.00
N172   N     0.50000   0.24999   0.37066   0.00000  Uiso   1.00
O173   O     0.50000   0.18573   0.29072   0.00000  Uiso   1.00
O174   O     0.54353   0.47385   0.33549   0.00000  Uiso   1.00
O175   O     0.42245   0.20743   0.01606   0.00000  Uiso   1.00
O176   O     0.46106   0.32177   0.46812   0.00000  Uiso   1.00
O177   O     0.50000   0.31428   0.20929   0.00000  Uiso   1.00
O178   O     0.50000   0.18573   0.20928   0.00000  Uiso   1.00
O179   O     0.50000   0.31427   0.29072   0.00000  Uiso   1.00
O180   O     0.42495   0.25000   0.28132   0.00000  Uiso   1.00
O181   O     0.57505   0.25001   0.21868   0.00000  Uiso   1.00
O182   O     0.42495   0.25000   0.19989   0.00000  Uiso   1.00
O183   O     0.57505   0.25000   0.30012   0.00000  Uiso   1.00
O184   O     0.54565   0.02573   0.17741   0.00000  Uiso   1.00
C185   C     0.83354   0.16493   0.25004   0.00000  Uiso   1.00
C186   C     0.81532   0.28685   0.44446   0.00000  Uiso   1.00
C187   C     0.83365   0.25042   0.02748   0.00000  Uiso   1.00
C188   C     0.83355   0.24965   0.47279   0.00000  Uiso   1.00
C189   C     0.73453   0.25001   0.23751   0.00000  Uiso   1.00
C190   C     0.93214   0.25001   0.26248   0.00000  Uiso   1.00
C191   C     0.67924   0.25003   0.23060   0.00000  Uiso   1.00
C192   C     0.98742   0.25003   0.26936   0.00000  Uiso   1.00
C193   C     0.81609   0.04721   0.28691   0.00000  Uiso   1.00
C194   C     0.81691   0.45290   0.20835   0.00000  Uiso   1.00
C195   C     0.81553   0.09313   0.28723   0.00000  Uiso   1.00
C196   C     0.83349   0.33508   0.25002   0.00000  Uiso   1.00
C197   C     0.81626   0.40698   0.20789   0.00000  Uiso   1.00
C198   C     0.83476   0.11672   0.25016   0.00000  Uiso   1.00
C199   C     0.83460   0.38330   0.25028   0.00000  Uiso   1.00
C200   C     0.85543   0.09407   0.21322   0.00000  Uiso   1.00
C201   C     0.85427   0.40591   0.29299   0.00000  Uiso   1.00
C202   C     0.85830   0.04791   0.21387   0.00000  Uiso   1.00
C203   C     0.85703   0.45201   0.29317   0.00000  Uiso   1.00
C204   C     0.83737   0.02430   0.25043   0.00000  Uiso   1.00
C205   C     0.83729   0.47574   0.25075   0.00000  Uiso   1.00
C206   C     0.93321   0.02964   0.18591   0.00000  Uiso   1.00
C207   C     0.87093   0.27495   0.05897   0.00000  Uiso   1.00
C208   C     0.93115   0.47398   0.33911   0.00000  Uiso   1.00
C209   C     0.91102   0.30413   0.04002   0.00000  Uiso   1.00
C210   C     0.95580   0.27740   0.02446   0.00000  Uiso   1.00
C211   C     0.99878   0.30758   0.01182   0.00000  Uiso   1.00
C212   C     0.86274   0.16800   0.47426   0.00000  Uiso   1.00
C213   C     0.91488   0.16820   0.00726   0.00000  Uiso   1.00
C214   C     0.92740   0.12262   0.02962   0.00000  Uiso   1.00
C215   C     0.73263   0.17116   0.03660   0.00000  Uiso   1.00
C216   C     0.80293   0.36320   0.44709   0.00000  Uiso   1.00
C217   C     0.84996   0.21186   0.44845   0.00000  Uiso   1.00
C218   C     0.86972   0.27364   0.10983   0.00000  Uiso   1.00
C219   C     0.85091   0.21389   0.39754   0.00000  Uiso   1.00
C220   C     0.79621   0.22758   0.09980   0.00000  Uiso   1.00
C221   C     0.81452   0.28544   0.39294   0.00000  Uiso   1.00
C222   C     0.79521   0.22700   0.04816   0.00000  Uiso   1.00
Cu223  Cu    0.83333   0.25000   0.29822   0.00000  Uiso   1.00
Cu224  Cu    0.83333   0.25001   0.20179   0.00000  Uiso   1.00
H225   H     0.99251   0.25004   0.19344   0.00000  Uiso   1.00
H226   H     0.86491   0.18577   0.37919   0.00000  Uiso   1.00
H227   H     0.76700   0.21073   0.11679   0.00000  Uiso   1.00
H228   H     0.79816   0.31246   0.37038   0.00000  Uiso   1.00
H229   H     0.94929   0.01688   0.22265   0.00000  Uiso   1.00
H230   H     0.94563   0.06439   0.18144   0.00000  Uiso   1.00
H231   H     0.94974   0.00933   0.15854   0.00000  Uiso   1.00
H232   H     0.94422   0.49106   0.30737   0.00000  Uiso   1.00
H233   H     0.94716   0.43983   0.34277   0.00000  Uiso   1.00
H234   H     0.94703   0.49249   0.37240   0.00000  Uiso   1.00
H235   H     0.98365   0.33050   0.48179   0.00000  Uiso   1.00
H236   H     0.67416   0.25004   0.30651   0.00000  Uiso   1.00
H237   H     0.68195   0.32704   0.04427   0.00000  Uiso   1.00
H238   H     0.69670   0.28727   0.49975   0.00000  Uiso   1.00
H239   H     0.97209   0.25488   0.05451   0.00000  Uiso   1.00
H240   H     0.94170   0.25754   0.49170   0.00000  Uiso   1.00
H241   H     0.89276   0.32458   0.00910   0.00000  Uiso   1.00
H242   H     0.92703   0.32786   0.06888   0.00000  Uiso   1.00
H243   H     0.89684   0.11213   0.05133   0.00000  Uiso   1.00
H244   H     0.93057   0.09788   0.00055   0.00000  Uiso   1.00
H245   H     0.96474   0.12384   0.05418   0.00000  Uiso   1.00
H246   H     0.94591   0.17786   0.48572   0.00000  Uiso   1.00
H247   H     0.79942   0.02950   0.31495   0.00000  Uiso   1.00
H248   H     0.91395   0.19198   0.03751   0.00000  Uiso   1.00
H249   H     0.83167   0.15890   0.49581   0.00000  Uiso   1.00
H250   H     0.86351   0.14122   0.44685   0.00000  Uiso   1.00
H251   H     0.70405   0.18283   0.05992   0.00000  Uiso   1.00
H252   H     0.76177   0.14870   0.05708   0.00000  Uiso   1.00
H253   H     0.71120   0.15157   0.00653   0.00000  Uiso   1.00
H254   H     0.79908   0.38928   0.47449   0.00000  Uiso   1.00
H255   H     0.84247   0.36610   0.43676   0.00000  Uiso   1.00
H256   H     0.77303   0.36975   0.41527   0.00000  Uiso   1.00
H257   H     0.80102   0.47067   0.17566   0.00000  Uiso   1.00
H258   H     0.79905   0.11016   0.31583   0.00000  Uiso   1.00
H259   H     0.80048   0.39001   0.17471   0.00000  Uiso   1.00
H260   H     0.87016   0.11212   0.18427   0.00000  Uiso   1.00
H261   H     0.86848   0.38789   0.32602   0.00000  Uiso   1.00
H262   H     0.89793   0.29205   0.13413   0.00000  Uiso   1.00
N263   N     0.83333   0.25001   0.12935   0.00000  Uiso   1.00
N264   N     0.83333   0.24999   0.37066   0.00000  Uiso   1.00
O265   O     0.83334   0.18573   0.29072   0.00000  Uiso   1.00
O266   O     0.87686   0.47385   0.33549   0.00000  Uiso   1.00
O267   O     0.75578   0.20743   0.01606   0.00000  Uiso   1.00
O268   O     0.79439   0.32177   0.46812   0.00000  Uiso   1.00
O269   O     0.83333   0.31428   0.20929   0.00000  Uiso   1.00
O270   O     0.83334   0.18573   0.20928   0.00000  Uiso   1.00
O271   O     0.83333   0.31427   0.29072   0.00000  Uiso   1.00
O272   O     0.75828   0.25000   0.28132   0.00000  Uiso   1.00
O273   O     0.90839   0.25001   0.21868   0.00000  Uiso   1.00
O274   O     0.75828   0.25000   0.19989   0.00000  Uiso   1.00
O275   O     0.90839   0.25000   0.30012   0.00000  Uiso   1.00
O276   O     0.87899   0.02573   0.17741   0.00000  Uiso   1.00
C277   C     0.16688   0.66493   0.25004   0.00000  Uiso   1.00
C278   C     0.14866   0.78685   0.44446   0.00000  Uiso   1.00
C279   C     0.16699   0.75042   0.02748   0.00000  Uiso   1.00
C280   C     0.16689   0.74965   0.47279   0.00000  Uiso   1.00
C281   C     0.06786   0.75001   0.23751   0.00000  Uiso   1.00
C282   C     0.26547   0.75001   0.26248   0.00000  Uiso   1.00
C283   C     0.01257   0.75003   0.23060   0.00000  Uiso   1.00
C284   C     0.32075   0.75003   0.26936   0.00000  Uiso   1.00
C285   C     0.14942   0.54721   0.28691   0.00000  Uiso   1.00
C286   C     0.15024   0.95290   0.20835   0.00000  Uiso   1.00
C287   C     0.14887   0.59313   0.28723   0.00000  Uiso   1.00
C288   C     0.16683   0.83508   0.25002   0.00000  Uiso   1.00
C289   C     0.14959   0.90698   0.20789   0.00000  Uiso   1.00
C290   C     0.16810   0.61672   0.25016   0.00000  Uiso   1.00
C291   C     0.16793   0.88330   0.25028   0.00000  Uiso   1.00
C292   C     0.18877   0.59407   0.21322   0.00000  Uiso   1.00
C293   C     0.18761   0.90591   0.29299   0.00000  Uiso   1.00
C294   C     0.19164   0.54791   0.21387   0.00000  Uiso   1.00
C295   C     0.19036   0.95201   0.29317   0.00000  Uiso   1.00
C296   C     0.17070   0.52430   0.25043   0.00000  Uiso   1.00
C297   C     0.17062   0.97574   0.25075   0.00000  Uiso   1.00
C298   C     0.26655   0.52964   0.18591   0.00000  Uiso   1.00
C299   C     0.20426   0.77495   0.05897   0.00000  Uiso   1.00
C300   C     0.26449   0.97398   0.33911   0.00000  Uiso   1.00
C301   C     0.24435   0.80413   0.04002   0.00000  Uiso   1.00
C302   C     0.28913   0.77740   0.02446   0.00000  Uiso   1.00
C303   C     0.33211   0.80758   0.01182   0.00000  Uiso   1.00
C304   C     0.19607   0.66800   0.47426   0.00000  Uiso   1.00
C305   C     0.24821   0.66820   0.00726   0.00000  Uiso   1.00
C306   C     0.26073   0.62262   0.02962   0.00000  Uiso   1.00
C307   C     0.06596   0.67116   0.03660   0.00000  Uiso   1.00
C308   C     0.13626   0.86320   0.44709   0.00000  Uiso   1.00
C309   C     0.18329   0.71186   0.44845   0.00000  Uiso   1.00
C310   C     0.20305   0.77364   0.10983   0.00000  Uiso   1.00
C311   C     0.18424   0.71389   0.39754   0.00000  Uiso   1.00
C312   C     0.12954   0.72758   0.09980   0.00000  Uiso   1.00
C313   C     0.14785   0.78544   0.39294   0.00000  Uiso   1.00
C314   C     0.12854   0.72700   0.04816   0.00000  Uiso   1.00
Cu315  Cu    0.16667   0.75000   0.29822   0.00000  Uiso   1.00
Cu316  Cu    0.16667   0.75001   0.20179   0.00000  Uiso   1.00
H317   H     0.32584   0.75004   0.19344   0.00000  Uiso   1.00
H318   H     0.19825   0.68577   0.37919   0.00000  Uiso   1.00
H319   H     0.10034   0.71073   0.11679   0.00000  Uiso   1.00
H320   H     0.13149   0.81246   0.37038   0.00000  Uiso   1.00
H321   H     0.28262   0.51688   0.22265   0.00000  Uiso   1.00
H322   H     0.27896   0.56439   0.18144   0.00000  Uiso   1.00
H323   H     0.28308   0.50933   0.15854   0.00000  Uiso   1.00
H324   H     0.27756   0.99106   0.30737   0.00000  Uiso   1.00
H325   H     0.28050   0.93983   0.34277   0.00000  Uiso   1.00
H326   H     0.28037   0.99249   0.37240   0.00000  Uiso   1.00
H327   H     0.31698   0.83050   0.48179   0.00000  Uiso   1.00
H328   H     0.00749   0.75004   0.30651   0.00000  Uiso   1.00
H329   H     0.01528   0.82704   0.04427   0.00000  Uiso   1.00
H330   H     0.03004   0.78727   0.49975   0.00000  Uiso   1.00
H331   H     0.30543   0.75488   0.05451   0.00000  Uiso   1.00
H332   H     0.27504   0.75754   0.49170   0.00000  Uiso   1.00
H333   H     0.22610   0.82458   0.00910   0.00000  Uiso   1.00
H334   H     0.26037   0.82786   0.06888   0.00000  Uiso   1.00
H335   H     0.23017   0.61213   0.05133   0.00000  Uiso   1.00
H336   H     0.26391   0.59788   0.00055   0.00000  Uiso   1.00
H337   H     0.29807   0.62384   0.05418   0.00000  Uiso   1.00
H338   H     0.27925   0.67786   0.48572   0.00000  Uiso   1.00
H339   H     0.13275   0.52950   0.31495   0.00000  Uiso   1.00
H340   H     0.24728   0.69198   0.03751   0.00000  Uiso   1.00
H341   H     0.16501   0.65890   0.49581   0.00000  Uiso   1.00
H342   H     0.19684   0.64122   0.44685   0.00000  Uiso   1.00
H343   H     0.03739   0.68283   0.05992   0.00000  Uiso   1.00
H344   H     0.09510   0.64870   0.05708   0.00000  Uiso   1.00
H345   H     0.04453   0.65157   0.00653   0.00000  Uiso   1.00
H346   H     0.13241   0.88928   0.47449   0.00000  Uiso   1.00
H347   H     0.17581   0.86610   0.43676   0.00000  Uiso   1.00
H348   H     0.10636   0.86975   0.41527   0.00000  Uiso   1.00
H349   H     0.13435   0.97067   0.17566   0.00000  Uiso   1.00
H350   H     0.13238   0.61016   0.31583   0.00000  Uiso   1.00
H351   H     0.13381   0.89001   0.17471   0.00000  Uiso   1.00
H352   H     0.20350   0.61212   0.18427   0.00000  Uiso   1.00
H353   H     0.20182   0.88789   0.32602   0.00000  Uiso   1.00
H354   H     0.23126   0.79205   0.13413   0.00000  Uiso   1.00
N355   N     0.16667   0.75001   0.12935   0.00000  Uiso   1.00
N356   N     0.16667   0.74999   0.37066   0.00000  Uiso   1.00
O357   O     0.16667   0.68573   0.29072   0.00000  Uiso   1.00
O358   O     0.21020   0.97385   0.33549   0.00000  Uiso   1.00
O359   O     0.08912   0.70743   0.01606   0.00000  Uiso   1.00
O360   O     0.12772   0.82177   0.46812   0.00000  Uiso   1.00
O361   O     0.16666   0.81428   0.20929   0.00000  Uiso   1.00
O362   O     0.16667   0.68573   0.20928   0.00000  Uiso   1.00
O363   O     0.16666   0.81427   0.29072   0.00000  Uiso   1.00
O364   O     0.09161   0.75000   0.28132   0.00000  Uiso   1.00
O365   O     0.24172   0.75001   0.21868   0.00000  Uiso   1.00
O366   O     0.09161   0.75000   0.19989   0.00000  Uiso   1.00
O367   O     0.24172   0.75000   0.30012   0.00000  Uiso   1.00
O368   O     0.21232   0.52573   0.17741   0.00000  Uiso   1.00
C369   C     0.50021   0.66493   0.25004   0.00000  Uiso   1.00
C370   C     0.48199   0.78685   0.44446   0.00000  Uiso   1.00
C371   C     0.50032   0.75042   0.02748   0.00000  Uiso   1.00
C372   C     0.50022   0.74965   0.47279   0.00000  Uiso   1.00
C373   C     0.40119   0.75001   0.23751   0.00000  Uiso   1.00
C374   C     0.59880   0.75001   0.26248   0.00000  Uiso   1.00
C375   C     0.34591   0.75003   0.23060   0.00000  Uiso   1.00
C376   C     0.65409   0.75003   0.26936   0.00000  Uiso   1.00
C377   C     0.48275   0.54721   0.28691   0.00000  Uiso   1.00
C378   C     0.48357   0.95290   0.20835   0.00000  Uiso   1.00
C379   C     0.48220   0.59313   0.28723   0.00000  Uiso   1.00
C380   C     0.50016   0.83508   0.25002   0.00000  Uiso   1.00
C381   C     0.48293   0.90698   0.20789   0.00000  Uiso   1.00
C382   C     0.50143   0.61672   0.25016   0.00000  Uiso   1.00
C383   C     0.50127   0.88330   0.25028   0.00000  Uiso   1.00
C384   C     0.52210   0.59407   0.21322   0.00000  Uiso   1.00
C385   C     0.52094   0.90591   0.29299   0.00000  Uiso   1.00
C386   C     0.52497   0.54791   0.21387   0.00000  Uiso   1.00
C387   C     0.52369   0.95201   0.29317   0.00000  Uiso   1.00
C388   C     0.50403   0.52430   0.25043   0.00000  Uiso   1.00
C389   C     0.50396   0.97574   0.25075   0.00000  Uiso   1.00
C390   C     0.59988   0.52964   0.18591   0.00000  Uiso   1.00
C391   C     0.53760   0.77495   0.05897   0.00000  Uiso   1.00
C392   C     0.59782   0.97398   0.33911   0.00000  Uiso   1.00
C393   C     0.57769   0.80413   0.04002   0.00000  Uiso   1.00
C394   C     0.62247   0.77740   0.02446   0.00000  Uiso   1.00
C395   C     0.66544   0.80758   0.01182   0.00000  Uiso   1.00
C396   C     0.52941   0.66800   0.47426   0.00000  Uiso   1.00
C397   C     0.58155   0.66820   0.00726   0.00000  Uiso   1.00
C398   C     0.59407   0.62262   0.02962   0.00000  Uiso   1.00
C399   C     0.39930   0.67116   0.03660   0.00000  Uiso   1.00
C400   C     0.46959   0.86320   0.44709   0.00000  Uiso   1.00
C401   C     0.51662   0.71186   0.44845   0.00000  Uiso   1.00
C402   C     0.53638   0.77364   0.10983   0.00000  Uiso   1.00
C403   C     0.51758   0.71389   0.39754   0.00000  Uiso   1.00
C404   C     0.46287   0.72758   0.09980   0.00000  Uiso   1.00
C405   C     0.48118   0.78544   0.39294   0.00000  Uiso   1.00
C406   C     0.46187   0.72700   0.04816   0.00000  Uiso   1.00
Cu407  Cu    0.50000   0.75000   0.29822   0.00000  Uiso   1.00
Cu408  Cu    0.50000   0.75001   0.20179   0.00000  Uiso   1.00
H409   H     0.65917   0.75004   0.19344   0.00000  Uiso   1.00
H410   H     0.53158   0.68577   0.37919   0.00000  Uiso   1.00
H411   H     0.43367   0.71073   0.11679   0.00000  Uiso   1.00
H412   H     0.46483   0.81246   0.37038   0.00000  Uiso   1.00
H413   H     0.61596   0.51688   0.22265   0.00000  Uiso   1.00
H414   H     0.61230   0.56439   0.18144   0.00000  Uiso   1.00
H415   H     0.61641   0.50933   0.15854   0.00000  Uiso   1.00
H416   H     0.61089   0.99106   0.30737   0.00000  Uiso   1.00
H417   H     0.61383   0.93983   0.34277   0.00000  Uiso   1.00
H418   H     0.61370   0.99249   0.37240   0.00000  Uiso   1.00
H419   H     0.65031   0.83050   0.48179   0.00000  Uiso   1.00
H420   H     0.34082   0.75004   0.30651   0.00000  Uiso   1.00
H421   H     0.34862   0.82704   0.04427   0.00000  Uiso   1.00
H422   H     0.36337   0.78727   0.49975   0.00000  Uiso   1.00
H423   H     0.63876   0.75488   0.05451   0.00000  Uiso   1.00
H424   H     0.60837   0.75754   0.49170   0.00000  Uiso   1.00
H425   H     0.55943   0.82458   0.00910   0.00000  Uiso   1.00
H426   H     0.59370   0.82786   0.06888   0.00000  Uiso   1.00
H427   H     0.56350   0.61213   0.05133   0.00000  Uiso   1.00
H428   H     0.59724   0.59788   0.00055   0.00000  Uiso   1.00
H429   H     0.63141   0.62384   0.05418   0.00000  Uiso   1.00
H430   H     0.61258   0.67786   0.48572   0.00000  Uiso   1.00
H431   H     0.46609   0.52950   0.31495   0.00000  Uiso   1.00
H432   H     0.58062   0.69198   0.03751   0.00000  Uiso   1.00
H433   H     0.49834   0.65890   0.49581   0.00000  Uiso   1.00
H434   H     0.53017   0.64122   0.44685   0.00000  Uiso   1.00
H435   H     0.37072   0.68283   0.05992   0.00000  Uiso   1.00
H436   H     0.42844   0.64870   0.05708   0.00000  Uiso   1.00
H437   H     0.37787   0.65157   0.00653   0.00000  Uiso   1.00
H438   H     0.46574   0.88928   0.47449   0.00000  Uiso   1.00
H439   H     0.50914   0.86610   0.43676   0.00000  Uiso   1.00
H440   H     0.43970   0.86975   0.41527   0.00000  Uiso   1.00
H441   H     0.46768   0.97067   0.17566   0.00000  Uiso   1.00
H442   H     0.46572   0.61016   0.31583   0.00000  Uiso   1.00
H443   H     0.46714   0.89001   0.17471   0.00000  Uiso   1.00
H444   H     0.53683   0.61212   0.18427   0.00000  Uiso   1.00
H445   H     0.53515   0.88789   0.32602   0.00000  Uiso   1.00
H446   H     0.56460   0.79205   0.13413   0.00000  Uiso   1.00
N447   N     0.50000   0.75001   0.12935   0.00000  Uiso   1.00
N448   N     0.50000   0.74999   0.37066   0.00000  Uiso   1.00
O449   O     0.50000   0.68573   0.29072   0.00000  Uiso   1.00
O450   O     0.54353   0.97385   0.33549   0.00000  Uiso   1.00
O451   O     0.42245   0.70743   0.01606   0.00000  Uiso   1.00
O452   O     0.46106   0.82177   0.46812   0.00000  Uiso   1.00
O453   O     0.50000   0.81428   0.20929   0.00000  Uiso   1.00
O454   O     0.50000   0.68573   0.20928   0.00000  Uiso   1.00
O455   O     0.50000   0.81427   0.29072   0.00000  Uiso   1.00
O456   O     0.42495   0.75000   0.28132   0.00000  Uiso   1.00
O457   O     0.57505   0.75001   0.21868   0.00000  Uiso   1.00
O458   O     0.42495   0.75000   0.19989   0.00000  Uiso   1.00
O459   O     0.57505   0.75000   0.30012   0.00000  Uiso   1.00
O460   O     0.54565   0.52573   0.17741   0.00000  Uiso   1.00
C461   C     0.83354   0.66493   0.25004   0.00000  Uiso   1.00
C462   C     0.81532   0.78685   0.44446   0.00000  Uiso   1.00
C463   C     0.83365   0.75042   0.02748   0.00000  Uiso   1.00
C464   C     0.83355   0.74965   0.47279   0.00000  Uiso   1.00
C465   C     0.73453   0.75001   0.23751   0.00000  Uiso   1.00
C466   C     0.93214   0.75001   0.26248   0.00000  Uiso   1.00
C467   C     0.67924   0.75003   0.23060   0.00000  Uiso   1.00
C468   C     0.98742   0.75003   0.26936   0.00000  Uiso   1.00
C469   C     0.81609   0.54721   0.28691   0.00000  Uiso   1.00
C470   C     0.81691   0.95290   0.20835   0.00000  Uiso   1.00
C471   C     0.81553   0.59313   0.28723   0.00000  Uiso   1.00
C472   C     0.83349   0.83508   0.25002   0.00000  Uiso   1.00
C473   C     0.81626   0.90698   0.20789   0.00000  Uiso   1.00
C474   C     0.83476   0.61672   0.25016   0.00000  Uiso   1.00
C475   C     0.83460   0.88330   0.25028   0.00000  Uiso   1.00
C476   C     0.85543   0.59407   0.21322   0.00000  Uiso   1.00
C477   C     0.85427   0.90591   0.29299   0.00000  Uiso   1.00
C478   C     0.85830   0.54791   0.21387   0.00000  Uiso   1.00
C479   C     0.85703   0.95201   0.29317   0.00000  Uiso   1.00
C480   C     0.83737   0.52430   0.25043   0.00000  Uiso   1.00
C481   C     0.83729   0.97574   0.25075   0.00000  Uiso   1.00
C482   C     0.93321   0.52964   0.18591   0.00000  Uiso   1.00
C483   C     0.87093   0.77495   0.05897   0.00000  Uiso   1.00
C484   C     0.93115   0.97398   0.33911   0.00000  Uiso   1.00
C485   C     0.91102   0.80413   0.04002   0.00000  Uiso   1.00
C486   C     0.95580   0.77740   0.02446   0.00000  Uiso   1.00
C487   C     0.99878   0.80758   0.01182   0.00000  Uiso   1.00
C488   C     0.86274   0.66800   0.47426   0.00000  Uiso   1.00
C489   C     0.91488   0.66820   0.00726   0.00000  Uiso   1.00
C490   C     0.92740   0.62262   0.02962   0.00000  Uiso   1.00
C491   C     0.73263   0.67116   0.03660   0.00000  Uiso   1.00
C492   C     0.80293   0.86320   0.44709   0.00000  Uiso   1.00
C493   C     0.84996   0.71186   0.44845   0.00000  Uiso   1.00
C494   C     0.86972   0.77364   0.10983   0.00000  Uiso   1.00
C495   C     0.85091   0.71389   0.39754   0.00000  Uiso   1.00
C496   C     0.79621   0.72758   0.09980   0.00000  Uiso   1.00
C497   C     0.81452   0.78544   0.39294   0.00000  Uiso   1.00
C498   C     0.79521   0.72700   0.04816   0.00000  Uiso   1.00
Cu499  Cu    0.83333   0.75000   0.29822   0.00000  Uiso   1.00
Cu500  Cu    0.83333   0.75001   0.20179   0.00000  Uiso   1.00
H501   H     0.99251   0.75004   0.19344   0.00000  Uiso   1.00
H502   H     0.86491   0.68577   0.37919   0.00000  Uiso   1.00
H503   H     0.76700   0.71073   0.11679   0.00000  Uiso   1.00
H504   H     0.79816   0.81246   0.37038   0.00000  Uiso   1.00
H505   H     0.94929   0.51688   0.22265   0.00000  Uiso   1.00
H506   H     0.94563   0.56439   0.18144   0.00000  Uiso   1.00
H507   H     0.94974   0.50933   0.15854   0.00000  Uiso   1.00
H508   H     0.94422   0.99106   0.30737   0.00000  Uiso   1.00
H509   H     0.94716   0.93983   0.34277   0.00000  Uiso   1.00
H510   H     0.94703   0.99249   0.37240   0.00000  Uiso   1.00
H511   H     0.98365   0.83050   0.48179   0.00000  Uiso   1.00
H512   H     0.67416   0.75004   0.30651   0.00000  Uiso   1.00
H513   H     0.68195   0.82704   0.04427   0.00000  Uiso   1.00
H514   H     0.69670   0.78727   0.49975   0.00000  Uiso   1.00
H515   H     0.97209   0.75488   0.05451   0.00000  Uiso   1.00
H516   H     0.94170   0.75754   0.49170   0.00000  Uiso   1.00
H517   H     0.89276   0.82458   0.00910   0.00000  Uiso   1.00
H518   H     0.92703   0.82786   0.06888   0.00000  Uiso   1.00
H519   H     0.89684   0.61213   0.05133   0.00000  Uiso   1.00
H520   H     0.93057   0.59788   0.00055   0.00000  Uiso   1.00
H521   H     0.96474   0.62384   0.05418   0.00000  Uiso   1.00
H522   H     0.94591   0.67786   0.48572   0.00000  Uiso   1.00
H523   H     0.79942   0.52950   0.31495   0.00000  Uiso   1.00
H524   H     0.91395   0.69198   0.03751   0.00000  Uiso   1.00
H525   H     0.83167   0.65890   0.49581   0.00000  Uiso   1.00
H526   H     0.86351   0.64122   0.44685   0.00000  Uiso   1.00
H527   H     0.70405   0.68283   0.05992   0.00000  Uiso   1.00
H528   H     0.76177   0.64870   0.05708   0.00000  Uiso   1.00
H529   H     0.71120   0.65157   0.00653   0.00000  Uiso   1.00
H530   H     0.79908   0.88928   0.47449   0.00000  Uiso   1.00
H531   H     0.84247   0.86610   0.43676   0.00000  Uiso   1.00
H532   H     0.77303   0.86975   0.41527   0.00000  Uiso   1.00
H533   H     0.80102   0.97067   0.17566   0.00000  Uiso   1.00
H534   H     0.79905   0.61016   0.31583   0.00000  Uiso   1.00
H535   H     0.80048   0.89001   0.17471   0.00000  Uiso   1.00
H536   H     0.87016   0.61212   0.18427   0.00000  Uiso   1.00
H537   H     0.86848   0.88789   0.32602   0.00000  Uiso   1.00
H538   H     0.89793   0.79205   0.13413   0.00000  Uiso   1.00
N539   N     0.83333   0.75001   0.12935   0.00000  Uiso   1.00
N540   N     0.83333   0.74999   0.37066   0.00000  Uiso   1.00
O541   O     0.83334   0.68573   0.29072   0.00000  Uiso   1.00
O542   O     0.87686   0.97385   0.33549   0.00000  Uiso   1.00
O543   O     0.75578   0.70743   0.01606   0.00000  Uiso   1.00
O544   O     0.79439   0.82177   0.46812   0.00000  Uiso   1.00
O545   O     0.83333   0.81428   0.20929   0.00000  Uiso   1.00
O546   O     0.83334   0.68573   0.20928   0.00000  Uiso   1.00
O547   O     0.83333   0.81427   0.29072   0.00000  Uiso   1.00
O548   O     0.75828   0.75000   0.28132   0.00000  Uiso   1.00
O549   O     0.90839   0.75001   0.21868   0.00000  Uiso   1.00
O550   O     0.75828   0.75000   0.19989   0.00000  Uiso   1.00
O551   O     0.90839   0.75000   0.30012   0.00000  Uiso   1.00
O552   O     0.87899   0.52573   0.17741   0.00000  Uiso   1.00
C553   C     0.16688   0.16493   0.75004   0.00000  Uiso   1.00
C554   C     0.14866   0.28685   0.94446   0.00000  Uiso   1.00
C555   C     0.16699   0.25042   0.52748   0.00000  Uiso   1.00
C556   C     0.16689   0.24965   0.97279   0.00000  Uiso   1.00
C557   C     0.06786   0.25001   0.73751   0.00000  Uiso   1.00
C558   C     0.26547   0.25001   0.76248   0.00000  Uiso   1.00
C559   C     0.01257   0.25003   0.73060   0.00000  Uiso   1.00
C560   C     0.32075   0.25003   0.76936   0.00000  Uiso   1.00
C561   C     0.14942   0.04721   0.78691   0.00000  Uiso   1.00
C562   C     0.15024   0.45290   0.70835   0.00000  Uiso   1.00
C563   C     0.14887   0.09313   0.78723   0.00000  Uiso   1.00
C564   C     0.16683   0.33508   0.75002   0.00000  Uiso   1.00
C565   C     0.14959   0.40698   0.70789   0.00000  Uiso   1.00
C566   C     0.16810   0.11672   0.75016   0.00000  Uiso   1.00
C567   C     0.16793   0.38330   0.75028   0.00000  Uiso   1.00
C568   C     0.18877   0.09407   0.71322   0.00000  Uiso   1.00
C569   C     0.18761   0.40591   0.79299   0.00000  Uiso   1.00
C570   C     0.19164   0.04791   0.71387   0.00000  Uiso   1.00
C571   C     0.19036   0.45201   0.79317   0.00000  Uiso   1.00
C572   C     0.17070   0.02430   0.75043   0.00000  Uiso   1.00
C573   C     0.17062   0.47574   0.75075   0.00000  Uiso   1.00
C574   C     0.26655   0.02964   0.68591   0.00000  Uiso   1.00
C575   C     0.20426   0.27495   0.55897   0.00000  Uiso   1.00
C576   C     0.26449   0.47398   0.83911   0.00000  Uiso   1.00
C577   C     0.24435   0.30413   0.54002   0.00000  Uiso   1.00
C578   C     0.28913   0.27740   0.52446   0.00000  Uiso   1.00
C579   C     0.33211   0.30758   0.51182   0.00000  Uiso   1.00
C580   C     0.19607   0.16800   0.97426   0.00000  Uiso   1.00
C581   C     0.24821   0.16820   0.50726   0.00000  Uiso   1.00
C582   C     0.26073   0.12262   0.52962   0.00000  Uiso   1.00
C583   C     0.06596   0.17116   0.53660   0.00000  Uiso   1.00
C584   C     0.13626   0.36320   0.94709   0.00000  Uiso   1.00
C585   C     0.18329   0.21186   0.94845   0.00000  Uiso   1.00
C586   C     0.20305   0.27364   0.60983   0.00000  Uiso   1.00
C587   C     0.18424   0.21389   0.89754   0.00000  Uiso   1.00
C588   C     0.12954   0.22758   0.59980   0.00000  Uiso   1.00
C589   C     0.14785   0.28544   0.89294   0.00000  Uiso   1.00
C590   C     0.12854   0.22700   0.54816   0.00000  Uiso   1.00
Cu591  Cu    0.16667   0.25000   0.79822   0.00000  Uiso   1.00
Cu592  Cu    0.16667   0.25001   0.70179   0.00000  Uiso   1.00
H593   H     0.32584   0.25004   0.69344   0.00000  Uiso   1.00
H594   H     0.19825   0.18577   0.87919   0.00000  Uiso   1.00
H595   H     0.10034   0.21073   0.61679   0.00000  Uiso   1.00
H596   H     0.13149   0.31246   0.87038   0.00000  Uiso   1.00
H597   H     0.28262   0.01688   0.72265   0.00000  Uiso   1.00
H598   H     0.27896   0.06439   0.68144   0.00000  Uiso   1.00
H599   H     0.28308   0.00933   0.65854   0.00000  Uiso   1.00
H600   H     0.27756   0.49106   0.80737   0.00000  Uiso   1.00
H601   H     0.28050   0.43983   0.84277   0.00000  Uiso   1.00
H602   H     0.28037   0.49249   0.87240   0.00000  Uiso   1.00
H603   H     0.31698   0.33050   0.98179   0.00000  Uiso   1.00
H604   H     0.00749   0.25004   0.80651   0.00000  Uiso   1.00
H605   H     0.01528   0.32704   0.54427   0.00000  Uiso   1.00
H606   H     0.03004   0.28727   0.99975   0.00000  Uiso   1.00
H607   H     0.30543   0.25488   0.55451   0.00000  Uiso   1.00
H608   H     0.27504   0.25754   0.99170   0.00000  Uiso   1.00
H609   H     0.22610   0.32458   0.50910   0.00000  Uiso   1.00
H610   H     0.26037   0.32786   0.56888   0.00000  Uiso   1.00
H611   H     0.23017   0.11213   0.55133   0.00000  Uiso   1.00
H612   H     0.26391   0.09788   0.50055   0.00000  Uiso   1.00
H613   H     0.29807   0.12384   0.55418   0.00000  Uiso   1.00
H614   H     0.27925   0.17786   0.98572   0.00000  Uiso   1.00
H615   H     0.13275   0.02950   0.81495   0.00000  Uiso   1.00
H616   H     0.24728   0.19198   0.53751   0.00000  Uiso   1.00
H617   H     0.16501   0.15890   0.99581   0.00000  Uiso   1.00
H618   H     0.19684   0.14122   0.94685   0.00000  Uiso   1.00
H619   H     0.03739   0.18283   0.55992   0.00000  Uiso   1.00
H620   H     0.09510   0.14870   0.55708   0.00000  Uiso   1.00
H621   H     0.04453   0.15157   0.50653   0.00000  Uiso   1.00
H622   H     0.13241   0.38928   0.97449   0.00000  Uiso   1.00
H623   H     0.17581   0.36610   0.93676   0.00000  Uiso   1.00
H624   H     0.10636   0.36975   0.91527   0.00000  Uiso   1.00
H625   H     0.13435   0.47067   0.67566   0.00000  Uiso   1.00
H626   H     0.13238   0.11016   0.81583   0.00000  Uiso   1.00
H627   H     0.13381   0.39001   0.67471   0.00000  Uiso   1.00
H628   H     0.20350   0.11212   0.68427   0.00000  Uiso   1.00
H629   H     0.20182   0.38789   0.82602   0.00000  Uiso   1.00
H630   H     0.23126   0.29205   0.63413   0.00000  Uiso   1.00
N631   N     0.16667   0.25001   0.62935   0.00000  Uiso   1.00
N632   N     0.16667   0.24999   0.87066   0.00000  Uiso   1.00
O633   O     0.16667   0.18573   0.79072   0.00000  Uiso   1.00
O634   O     0.21020   0.47385   0.83549   0.00000  Uiso   1.00
O635   O     0.08912   0.20743   0.51606   0.00000  Uiso   1.00
O636   O     0.12772   0.32177   0.96812   0.00000  Uiso   1.00
O637   O     0.16666   0.31428   0.70929   0.00000  Uiso   1.00
O638   O     0.16667   0.18573   0.70928   0.00000  Uiso   1.00
O639   O     0.16666   0.31427   0.79072   0.00000  Uiso   1.00
O640   O     0.09161   0.25000   0.78132   0.00000  Uiso   1.00
O641   O     0.24172   0.25001   0.71868   0.00000  Uiso   1.00
O642   O     0.09161   0.25000   0.69989   0.00000  Uiso   1.00
O643   O     0.24172   0.25000   0.80012   0.00000  Uiso   1.00
O644   O     0.21232   0.02573   0.67741   0.00000  Uiso   1.00
C645   C     0.50021   0.16493   0.75004   0.00000  Uiso   1.00
C646   C     0.48199   0.28685   0.94446   0.00000  Uiso   1.00
C647   C     0.50032   0.25042   0.52748   0.00000  Uiso   1.00
C648   C     0.50022   0.24965   0.97279   0.00000  Uiso   1.00
C649   C     0.40119   0.25001   0.73751   0.00000  Uiso   1.00
C650   C     0.59880   0.25001   0.76248   0.00000  Uiso   1.00
C651   C     0.34591   0.25003   0.73060   0.00000  Uiso   1.00
C652   C     0.65409   0.25003   0.76936   0.00000  Uiso   1.00
C653   C     0.48275   0.04721   0.78691   0.00000  Uiso   1.00
C654   C     0.48357   0.45290   0.70835   0.00000  Uiso   1.00
C655   C     0.48220   0.09313   0.78723   0.00000  Uiso   1.00
C656   C     0.50016   0.33508   0.75002   0.00000  Uiso   1.00
C657   C     0.48293   0.40698   0.70789   0.00000  Uiso   1.00
C658   C     0.50143   0.11672   0.75016   0.00000  Uiso   1.00
C659   C     0.50127   0.38330   0.75028   0.00000  Uiso   1.00
C660   C     0.52210   0.09407   0.71322   0.00000  Uiso   1.00
C661   C     0.52094   0.40591   0.79299   0.00000  Uiso   1.00
C662   C     0.52497   0.04791   0.71387   0.00000  Uiso   1.00
C663   C     0.52369   0.45201   0.79317   0.00000  Uiso   1.00
C664   C     0.50403   0.02430   0.75043   0.00000  Uiso   1.00
C665   C     0.50396   0.47574   0.75075   0.00000  Uiso   1.00
C666   C     0.59988   0.02964   0.68591   0.00000  Uiso   1.00
C667   C     0.53760   0.27495   0.55897   0.00000  Uiso   1.00
C668   C     0.59782   0.47398   0.83911   0.00000  Uiso   1.00
C669   C     0.57769   0.30413   0.54002   0.00000  Uiso   1.00
C670   C     0.62247   0.27740   0.52446   0.00000  Uiso   1.00
C671   C     0.66544   0.30758   0.51182   0.00000  Uiso   1.00
C672   C     0.52941   0.16800   0.97426   0.00000  Uiso   1.00
C673   C     0.58155   0.16820   0.50726   0.00000  Uiso   1.00
C674   C     0.59407   0.12262   0.52962   0.00000  Uiso   1.00
C675   C     0.39930   0.17116   0.53660   0.00000  Uiso   1.00
C676   C     0.46959   0.36320   0.94709   0.00000  Uiso   1.00
C677   C     0.51662   0.21186   0.94845   0.00000  Uiso   1.00
C678   C     0.53638   0.27364   0.60983   0.00000  Uiso   1.00
C679   C     0.51758   0.21389   0.89754   0.00000  Uiso   1.00
C680   C     0.46287   0.22758   0.59980   0.00000  Uiso   1.00
C681   C     0.48118   0.28544   0.89294   0.00000  Uiso   1.00
C682   C     0.46187   0.22700   0.54816   0.00000  Uiso   1.00
Cu683  Cu    0.50000   0.25000   0.79822   0.00000  Uiso   1.00
Cu684  Cu    0.50000   0.25001   0.70179   0.00000  Uiso   1.00
H685   H     0.65917   0.25004   0.69344   0.00000  Uiso   1.00
H686   H     0.53158   0.18577   0.87919   0.00000  Uiso   1.00
H687   H     0.43367   0.21073   0.61679   0.00000  Uiso   1.00
H688   H     0.46483   0.31246   0.87038   0.00000  Uiso   1.00
H689   H     0.61596   0.01688   0.72265   0.00000  Uiso   1.00
H690   H     0.61230   0.06439   0.68144   0.00000  Uiso   1.00
H691   H     0.61641   0.00933   0.65854   0.00000  Uiso   1.00
H692   H     0.61089   0.49106   0.80737   0.00000  Uiso   1.00
H693   H     0.61383   0.43983   0.84277   0.00000  Uiso   1.00
H694   H     0.61370   0.49249   0.87240   0.00000  Uiso   1.00
H695   H     0.65031   0.33050   0.98179   0.00000  Uiso   1.00
H696   H     0.34082   0.25004   0.80651   0.00000  Uiso   1.00
H697   H     0.34862   0.32704   0.54427   0.00000  Uiso   1.00
H698   H     0.36337   0.28727   0.99975   0.00000  Uiso   1.00
H699   H     0.63876   0.25488   0.55451   0.00000  Uiso   1.00
H700   H     0.60837   0.25754   0.99170   0.00000  Uiso   1.00
H701   H     0.55943   0.32458   0.50910   0.00000  Uiso   1.00
H702   H     0.59370   0.32786   0.56888   0.00000  Uiso   1.00
H703   H     0.56350   0.11213   0.55133   0.00000  Uiso   1.00
H704   H     0.59724   0.09788   0.50055   0.00000  Uiso   1.00
H705   H     0.63141   0.12384   0.55418   0.00000  Uiso   1.00
H706   H     0.61258   0.17786   0.98572   0.00000  Uiso   1.00
H707   H     0.46609   0.02950   0.81495   0.00000  Uiso   1.00
H708   H     0.58062   0.19198   0.53751   0.00000  Uiso   1.00
H709   H     0.49834   0.15890   0.99581   0.00000  Uiso   1.00
H710   H     0.53017   0.14122   0.94685   0.00000  Uiso   1.00
H711   H     0.37072   0.18283   0.55992   0.00000  Uiso   1.00
H712   H     0.42844   0.14870   0.55708   0.00000  Uiso   1.00
H713   H     0.37787   0.15157   0.50653   0.00000  Uiso   1.00
H714   H     0.46574   0.38928   0.97449   0.00000  Uiso   1.00
H715   H     0.50914   0.36610   0.93676   0.00000  Uiso   1.00
H716   H     0.43970   0.36975   0.91527   0.00000  Uiso   1.00
H717   H     0.46768   0.47067   0.67566   0.00000  Uiso   1.00
H718   H     0.46572   0.11016   0.81583   0.00000  Uiso   1.00
H719   H     0.46714   0.39001   0.67471   0.00000  Uiso   1.00
H720   H     0.53683   0.11212   0.68427   0.00000  Uiso   1.00
H721   H     0.53515   0.38789   0.82602   0.00000  Uiso   1.00
H722   H     0.56460   0.29205   0.63413   0.00000  Uiso   1.00
N723   N     0.50000   0.25001   0.62935   0.00000  Uiso   1.00
N724   N     0.50000   0.24999   0.87066   0.00000  Uiso   1.00
O725   O     0.50000   0.18573   0.79072   0.00000  Uiso   1.00
O726   O     0.54353   0.47385   0.83549   0.00000  Uiso   1.00
O727   O     0.42245   0.20743   0.51606   0.00000  Uiso   1.00
O728   O     0.46106   0.32177   0.96812   0.00000  Uiso   1.00
O729   O     0.50000   0.31428   0.70929   0.00000  Uiso   1.00
O730   O     0.50000   0.18573   0.70928   0.00000  Uiso   1.00
O731   O     0.50000   0.31427   0.79072   0.00000  Uiso   1.00
O732   O     0.42495   0.25000   0.78132   0.00000  Uiso   1.00
O733   O     0.57505   0.25001   0.71868   0.00000  Uiso   1.00
O734   O     0.42495   0.25000   0.69989   0.00000  Uiso   1.00
O735   O     0.57505   0.25000   0.80012   0.00000  Uiso   1.00
O736   O     0.54565   0.02573   0.67741   0.00000  Uiso   1.00
C737   C     0.83354   0.16493   0.75004   0.00000  Uiso   1.00
C738   C     0.81532   0.28685   0.94446   0.00000  Uiso   1.00
C739   C     0.83365   0.25042   0.52748   0.00000  Uiso   1.00
C740   C     0.83355   0.24965   0.97279   0.00000  Uiso   1.00
C741   C     0.73453   0.25001   0.73751   0.00000  Uiso   1.00
C742   C     0.93214   0.25001   0.76248   0.00000  Uiso   1.00
C743   C     0.67924   0.25003   0.73060   0.00000  Uiso   1.00
C744   C     0.98742   0.25003   0.76936   0.00000  Uiso   1.00
C745   C     0.81609   0.04721   0.78691   0.00000  Uiso   1.00
C746   C     0.81691   0.45290   0.70835   0.00000  Uiso   1.00
C747   C     0.81553   0.09313   0.78723   0.00000  Uiso   1.00
C748   C     0.83349   0.33508   0.75002   0.00000  Uiso   1.00
C749   C     0.81626   0.40698   0.70789   0.00000  Uiso   1.00
C750   C     0.83476   0.11672   0.75016   0.00000  Uiso   1.00
C751   C     0.83460   0.38330   0.75028   0.00000  Uiso   1.00
C752   C     0.85543   0.09407   0.71322   0.00000  Uiso   1.00
C753   C     0.85427   0.40591   0.79299   0.00000  Uiso   1.00
C754   C     0.85830   0.04791   0.71387   0.00000  Uiso   1.00
C755   C     0.85703   0.45201   0.79317   0.00000  Uiso   1.00
C756   C     0.83737   0.02430   0.75043   0.00000  Uiso   1.00
C757   C     0.83729   0.47574   0.75075   0.00000  Uiso   1.00
C758   C     0.93321   0.02964   0.68591   0.00000  Uiso   1.00
C759   C     0.87093   0.27495   0.55897   0.00000  Uiso   1.00
C760   C     0.93115   0.47398   0.83911   0.00000  Uiso   1.00
C761   C     0.91102   0.30413   0.54002   0.00000  Uiso   1.00
C762   C     0.95580   0.27740   0.52446   0.00000  Uiso   1.00
C763   C     0.99878   0.30758   0.51182   0.00000  Uiso   1.00
C764   C     0.86274   0.16800   0.97426   0.00000  Uiso   1.00
C765   C     0.91488   0.16820   0.50726   0.00000  Uiso   1.00
C766   C     0.92740   0.12262   0.52962   0.00000  Uiso   1.00
C767   C     0.73263   0.17116   0.53660   0.00000  Uiso   1.00
C768   C     0.80293   0.36320   0.94709   0.00000  Uiso   1.00
C769   C     0.84996   0.21186   0.94845   0.00000  Uiso   1.00
C770   C     0.86972   0.27364   0.60983   0.00000  Uiso   1.00
C771   C     0.85091   0.21389   0.89754   0.00000  Uiso   1.00
C772   C     0.79621   0.22758   0.59980   0.00000  Uiso   1.00
C773   C     0.81452   0.28544   0.89294   0.00000  Uiso   1.00
C774   C     0.79521   0.22700   0.54816   0.00000  Uiso   1.00
Cu775  Cu    0.83333   0.25000   0.79822   0.00000  Uiso   1.00
Cu776  Cu    0.83333   0.25001   0.70179   0.00000  Uiso   1.00
H777   H     0.99251   0.25004   0.69344   0.00000  Uiso   1.00
H778   H     0.86491   0.18577   0.87919   0.00000  Uiso   1.00
H779   H     0.76700   0.21073   0.61679   0.00000  Uiso   1.00
H780   H     0.79816   0.31246   0.87038   0.00000  Uiso   1.00
H781   H     0.94929   0.01688   0.72265   0.00000  Uiso   1.00
H782   H     0.94563   0.06439   0.68144   0.00000  Uiso   1.00
H783   H     0.94974   0.00933   0.65854   0.00000  Uiso   1.00
H784   H     0.94422   0.49106   0.80737   0.00000  Uiso   1.00
H785   H     0.94716   0.43983   0.84277   0.00000  Uiso   1.00
H786   H     0.94703   0.49249   0.87240   0.00000  Uiso   1.00
H787   H     0.98365   0.33050   0.98179   0.00000  Uiso   1.00
H788   H     0.67416   0.25004   0.80651   0.00000  Uiso   1.00
H789   H     0.68195   0.32704   0.54427   0.00000  Uiso   1.00
H790   H     0.69670   0.28727   0.99975   0.00000  Uiso   1.00
H791   H     0.97209   0.25488   0.55451   0.00000  Uiso   1.00
H792   H     0.94170   0.25754   0.99170   0.00000  Uiso   1.00
H793   H     0.89276   0.32458   0.50910   0.00000  Uiso   1.00
H794   H     0.92703   0.32786   0.56888   0.00000  Uiso   1.00
H795   H     0.89684   0.11213   0.55133   0.00000  Uiso   1.00
H796   H     0.93057   0.09788   0.50055   0.00000  Uiso   1.00
H797   H     0.96474   0.12384   0.55418   0.00000  Uiso   1.00
H798   H     0.94591   0.17786   0.98572   0.00000  Uiso   1.00
H799   H     0.79942   0.02950   0.81495   0.00000  Uiso   1.00
H800   H     0.91395   0.19198   0.53751   0.00000  Uiso   1.00
H801   H     0.83167   0.15890   0.99581   0.00000  Uiso   1.00
H802   H     0.86351   0.14122   0.94685   0.00000  Uiso   1.00
H803   H     0.70405   0.18283   0.55992   0.00000  Uiso   1.00
H804   H     0.76177   0.14870   0.55708   0.00000  Uiso   1.00
H805   H     0.71120   0.15157   0.50653   0.00000  Uiso   1.00
H806   H     0.79908   0.38928   0.97449   0.00000  Uiso   1.00
H807   H     0.84247   0.36610   0.93676   0.00000  Uiso   1.00
H808   H     0.77303   0.36975   0.91527   0.00000  Uiso   1.00
H809   H     0.80102   0.47067   0.67566   0.00000  Uiso   1.00
H810   H     0.79905   0.11016   0.81583   0.00000  Uiso   1.00
H811   H     0.80048   0.39001   0.67471   0.00000  Uiso   1.00
H812   H     0.87016   0.11212   0.68427   0.00000  Uiso   1.00
H813   H     0.86848   0.38789   0.82602   0.00000  Uiso   1.00
H814   H     0.89793   0.29205   0.63413   0.00000  Uiso   1.00
N815   N     0.83333   0.25001   0.62935   0.00000  Uiso   1.00
N816   N     0.83333   0.24999   0.87066   0.00000  Uiso   1.00
O817   O     0.83334   0.18573   0.79072   0.00000  Uiso   1.00
O818   O     0.87686   0.47385   0.83549   0.00000  Uiso   1.00
O819   O     0.75578   0.20743   0.51606   0.00000  Uiso   1.00
O820   O     0.79439   0.32177   0.96812   0.00000  Uiso   1.00
O821   O     0.83333   0.31428   0.70929   0.00000  Uiso   1.00
O822   O     0.83334   0.18573   0.70928   0.00000  Uiso   1.00
O823   O     0.83333   0.31427   0.79072   0.00000  Uiso   1.00
O824   O     0.75828   0.25000   0.78132   0.00000  Uiso   1.00
O825   O     0.90839   0.25001   0.71868   0.00000  Uiso   1.00
O826   O     0.75828   0.25000   0.69989   0.00000  Uiso   1.00
O827   O     0.90839   0.25000   0.80012   0.00000  Uiso   1.00
O828   O     0.87899   0.02573   0.67741   0.00000  Uiso   1.00
C829   C     0.16688   0.66493   0.75004   0.00000  Uiso   1.00
C830   C     0.14866   0.78685   0.94446   0.00000  Uiso   1.00
C831   C     0.16699   0.75042   0.52748   0.00000  Uiso   1.00
C832   C     0.16689   0.74965   0.97279   0.00000  Uiso   1.00
C833   C     0.06786   0.75001   0.73751   0.00000  Uiso   1.00
C834   C     0.26547   0.75001   0.76248   0.00000  Uiso   1.00
C835   C     0.01257   0.75003   0.73060   0.00000  Uiso   1.00
C836   C     0.32075   0.75003   0.76936   0.00000  Uiso   1.00
C837   C     0.14942   0.54721   0.78691   0.00000  Uiso   1.00
C838   C     0.15024   0.95290   0.70835   0.00000  Uiso   1.00
C839   C     0.14887   0.59313   0.78723   0.00000  Uiso   1.00
C840   C     0.16683   0.83508   0.75002   0.00000  Uiso   1.00
C841   C     0.14959   0.90698   0.70789   0.00000  Uiso   1.00
C842   C     0.16810   0.61672   0.75016   0.00000  Uiso   1.00
C843   C     0.16793   0.88330   0.75028   0.00000  Uiso   1.00
C844   C     0.18877   0.59407   0.71322   0.00000  Uiso   1.00
C845   C     0.18761   0.90591   0.79299   0.00000  Uiso   1.00
C846   C     0.19164   0.54791   0.71387   0.00000  Uiso   1.00
C847   C     0.19036   0.95201   0.79317   0.00000  Uiso   1.00
C848   C     0.17070   0.52430   0.75043   0.00000  Uiso   1.00
C849   C     0.17062   0.97574   0.75075   0.00000  Uiso   1.00
C850   C     0.26655   0.52964   0.68591   0.00000  Uiso   1.00
C851   C     0.20426   0.77495   0.55897   0.00000  Uiso   1.00
C852   C     0.26449   0.97398   0.83911   0.00000  Uiso   1.00
C853   C     0.24435   0.80413   0.54002   0.00000  Uiso   1.00
C854   C     0.28913   0.77740   0.52446   0.00000  Uiso   1.00
C855   C     0.33211   0.80758   0.51182   0.00000  Uiso   1.00
C856   C     0.19607   0.66800   0.97426   0.00000  Uiso   1.00
C857   C     0.24821   0.66820   0.50726   0.00000  Uiso   1.00
C858   C     0.26073   0.62262   0.52962   0.00000  Uiso   1.00
C859   C     0.06596   0.67116   0.53660   0.00000  Uiso   1.00
C860   C     0.13626   0.86320   0.94709   0.00000  Uiso   1.00
C861   C     0.18329   0.71186   0.94845   0.00000  Uiso   1.00
C862   C     0.20305   0.77364   0.60983   0.00000  Uiso   1.00
C863   C     0.18424   0.71389   0.89754   0.00000  Uiso   1.00
C864   C     0.12954   0.72758   0.59980   0.00000  Uiso   1.00
C865   C     0.14785   0.78544   0.89294   0.00000  Uiso   1.00
C866   C     0.12854   0.72700   0.54816   0.00000  Uiso   1.00
Cu867  Cu    0.16667   0.75000   0.79822   0.00000  Uiso   1.00
Cu868  Cu    0.16667   0.75001   0.70179   0.00000  Uiso   1.00
H869   H     0.32584   0.75004   0.69344   0.00000  Uiso   1.00
H870   H     0.19825   0.68577   0.87919   0.00000  Uiso   1.00
H871   H     0.10034   0.71073   0.61679   0.00000  Uiso   1.00
H872   H     0.13149   0.81246   0.87038   0.00000  Uiso   1.00
H873   H     0.28262   0.51688   0.72265   0.00000  Uiso   1.00
H874   H     0.27896   0.56439   0.68144   0.00000  Uiso   1.00
H875   H     0.28308   0.50933   0.65854   0.00000  Uiso   1.00
H876   H     0.27756   0.99106   0.80737   0.00000  Uiso   1.00
H877   H     0.28050   0.93983   0.84277   0.00000  Uiso   1.00
H878   H     0.28037   0.99249   0.87240   0.00000  Uiso   1.00
H879   H     0.31698   0.83050   0.98179   0.00000  Uiso   1.00
H880   H     0.00749   0.75004   0.80651   0.00000  Uiso   1.00
H881   H     0.01528   0.82704   0.54427   0.00000  Uiso   1.00
H882   H     0.03004   0.78727   0.99975   0.00000  Uiso   1.00
H883   H     0.30543   0.75488   0.55451   0.00000  Uiso   1.00
H884   H     0.27504   0.75754   0.99170   0.00000  Uiso   1.00
H885   H     0.22610   0.82458   0.50910   0.00000  Uiso   1.00
H886   H     0.26037   0.82786   0.56888   0.00000  Uiso   1.00
H887   H     0.23017   0.61213   0.55133   0.00000  Uiso   1.00
H888   H     0.26391   0.59788   0.50055   0.00000  Uiso   1.00
H889   H     0.29807   0.62384   0.55418   0.00000  Uiso   1.00
H890   H     0.27925   0.67786   0.98572   0.00000  Uiso   1.00
H891   H     0.13275   0.52950   0.81495   0.00000  Uiso   1.00
H892   H     0.24728   0.69198   0.53751   0.00000  Uiso   1.00
H893   H     0.16501   0.65890   0.99581   0.00000  Uiso   1.00
H894   H     0.19684   0.64122   0.94685   0.00000  Uiso   1.00
H895   H     0.03739   0.68283   0.55992   0.00000  Uiso   1.00
H896   H     0.09510   0.64870   0.55708   0.00000  Uiso   1.00
H897   H     0.04453   0.65157   0.50653   0.00000  Uiso   1.00
H898   H     0.13241   0.88928   0.97449   0.00000  Uiso   1.00
H899   H     0.17581   0.86610   0.93676   0.00000  Uiso   1.00
H900   H     0.10636   0.86975   0.91527   0.00000  Uiso   1.00
H901   H     0.13435   0.97067   0.67566   0.00000  Uiso   1.00
H902   H     0.13238   0.61016   0.81583   0.00000  Uiso   1.00
H903   H     0.13381   0.89001   0.67471   0.00000  Uiso   1.00
H904   H     0.20350   0.61212   0.68427   0.00000  Uiso   1.00
H905   H     0.20182   0.88789   0.82602   0.00000  Uiso   1.00
H906   H     0.23126   0.79205   0.63413   0.00000  Uiso   1.00
N907   N     0.16667   0.75001   0.62935   0.00000  Uiso   1.00
N908   N     0.16667   0.74999   0.87066   0.00000  Uiso   1.00
O909   O     0.16667   0.68573   0.79072   0.00000  Uiso   1.00
O910   O     0.21020   0.97385   0.83549   0.00000  Uiso   1.00
O911   O     0.08912   0.70743   0.51606   0.00000  Uiso   1.00
O912   O     0.12772   0.82177   0.96812   0.00000  Uiso   1.00
O913   O     0.16666   0.81428   0.70929   0.00000  Uiso   1.00
O914   O     0.16667   0.68573   0.70928   0.00000  Uiso   1.00
O915   O     0.16666   0.81427   0.79072   0.00000  Uiso   1.00
O916   O     0.09161   0.75000   0.78132   0.00000  Uiso   1.00
O917   O     0.24172   0.75001   0.71868   0.00000  Uiso   1.00
O918   O     0.09161   0.75000   0.69989   0.00000  Uiso   1.00
O919   O     0.24172   0.75000   0.80012   0.00000  Uiso   1.00
O920   O     0.21232   0.52573   0.67741   0.00000  Uiso   1.00
C921   C     0.50021   0.66493   0.75004   0.00000  Uiso   1.00
C922   C     0.48199   0.78685   0.94446   0.00000  Uiso   1.00
C923   C     0.50032   0.75042   0.52748   0.00000  Uiso   1.00
C924   C     0.50022   0.74965   0.97279   0.00000  Uiso   1.00
C925   C     0.40119   0.75001   0.73751   0.00000  Uiso   1.00
C926   C     0.59880   0.75001   0.76248   0.00000  Uiso   1.00
C927   C     0.34591   0.75003   0.73060   0.00000  Uiso   1.00
C928   C     0.65409   0.75003   0.76936   0.00000  Uiso   1.00
C929   C     0.48275   0.54721   0.78691   0.00000  Uiso   1.00
C930   C     0.48357   0.95290   0.70835   0.00000  Uiso   1.00
C931   C     0.48220   0.59313   0.78723   0.00000  Uiso   1.00
C932   C     0.50016   0.83508   0.75002   0.00000  Uiso   1.00
C933   C     0.48293   0.90698   0.70789   0.00000  Uiso   1.00
C934   C     0.50143   0.61672   0.75016   0.00000  Uiso   1.00
C935   C     0.50127   0.88330   0.75028   0.00000  Uiso   1.00
C936   C     0.52210   0.59407   0.71322   0.00000  Uiso   1.00
C937   C     0.52094   0.90591   0.79299   0.00000  Uiso   1.00
C938   C     0.52497   0.54791   0.71387   0.00000  Uiso   1.00
C939   C     0.52369   0.95201   0.79317   0.00000  Uiso   1.00
C940   C     0.50403   0.52430   0.75043   0.00000  Uiso   1.00
C941   C     0.50396   0.97574   0.75075   0.00000  Uiso   1.00
C942   C     0.59988   0.52964   0.68591   0.00000  Uiso   1.00
C943   C     0.53760   0.77495   0.55897   0.00000  Uiso   1.00
C944   C     0.59782   0.97398   0.83911   0.00000  Uiso   1.00
C945   C     0.57769   0.80413   0.54002   0.00000  Uiso   1.00
C946   C     0.62247   0.77740   0.52446   0.00000  Uiso   1.00
C947   C     0.66544   0.80758   0.51182   0.00000  Uiso   1.00
C948   C     0.52941   0.66800   0.97426   0.00000  Uiso   1.00
C949   C     0.58155   0.66820   0.50726   0.00000  Uiso   1.00
C950   C     0.59407   0.62262   0.52962   0.00000  Uiso   1.00
C951   C     0.39930   0.67116   0.53660   0.00000  Uiso   1.00
C952   C     0.46959   0.86320   0.94709   0.00000  Uiso   1.00
C953   C     0.51662   0.71186   0.94845   0.00000  Uiso   1.00
C954   C     0.53638   0.77364   0.60983   0.00000  Uiso   1.00
C955   C     0.51758   0.71389   0.89754   0.00000  Uiso   1.00
C956   C     0.46287   0.72758   0.59980   0.00000  Uiso   1.00
C957   C     0.48118   0.78544   0.89294   0.00000  Uiso   1.00
C958   C     0.46187   0.72700   0.54816   0.00000  Uiso   1.00
Cu959  Cu    0.50000   0.75000   0.79822   0.00000  Uiso   1.00
Cu960  Cu    0.50000   0.75001   0.70179   0.00000  Uiso   1.00
H961   H     0.65917   0.75004   0.69344   0.00000  Uiso   1.00
H962   H     0.53158   0.68577   0.87919   0.00000  Uiso   1.00
H963   H     0.43367   0.71073   0.61679   0.00000  Uiso   1.00
H964   H     0.46483   0.81246   0.87038   0.00000  Uiso   1.00
H965   H     0.61596   0.51688   0.72265   0.00000  Uiso   1.00
H966   H     0.61230   0.56439   0.68144   0.00000  Uiso   1.00
H967   H     0.61641   0.50933   0.65854   0.00000  Uiso   1.00
H968   H     0.61089   0.99106   0.80737   0.00000  Uiso   1.00
H969   H     0.61383   0.93983   0.84277   0.00000  Uiso   1.00
H970   H     0.61370   0.99249   0.87240   0.00000  Uiso   1.00
H971   H     0.65031   0.83050   0.98179   0.00000  Uiso   1.00
H972   H     0.34082   0.75004   0.80651   0.00000  Uiso   1.00
H973   H     0.34862   0.82704   0.54427   0.00000  Uiso   1.00
H974   H     0.36337   0.78727   0.99975   0.00000  Uiso   1.00
H975   H     0.63876   0.75488   0.55451   0.00000  Uiso   1.00
H976   H     0.60837   0.75754   0.99170   0.00000  Uiso   1.00
H977   H     0.55943   0.82458   0.50910   0.00000  Uiso   1.00
H978   H     0.59370   0.82786   0.56888   0.00000  Uiso   1.00
H979   H     0.56350   0.61213   0.55133   0.00000  Uiso   1.00
H980   H     0.59724   0.59788   0.50055   0.00000  Uiso   1.00
H981   H     0.63141   0.62384   0.55418   0.00000  Uiso   1.00
H982   H     0.61258   0.67786   0.98572   0.00000  Uiso   1.00
H983   H     0.46609   0.52950   0.81495   0.00000  Uiso   1.00
H984   H     0.58062   0.69198   0.53751   0.00000  Uiso   1.00
H985   H     0.49834   0.65890   0.99581   0.00000  Uiso   1.00
H986   H     0.53017   0.64122   0.94685   0.00000  Uiso   1.00
H987   H     0.37072   0.68283   0.55992   0.00000  Uiso   1.00
H988   H     0.42844   0.64870   0.55708   0.00000  Uiso   1.00
H989   H     0.37787   0.65157   0.50653   0.00000  Uiso   1.00
H990   H     0.46574   0.88928   0.97449   0.00000  Uiso   1.00
H991   H     0.50914   0.86610   0.93676   0.00000  Uiso   1.00
H992   H     0.43970   0.86975   0.91527   0.00000  Uiso   1.00
H993   H     0.46768   0.97067   0.67566   0.00000  Uiso   1.00
H994   H     0.46572   0.61016   0.81583   0.00000  Uiso   1.00
H995   H     0.46714   0.89001   0.67471   0.00000  Uiso   1.00
H996   H     0.53683   0.61212   0.68427   0.00000  Uiso   1.00
H997   H     0.53515   0.88789   0.82602   0.00000  Uiso   1.00
H998   H     0.56460   0.79205   0.63413   0.00000  Uiso   1.00
N999   N     0.50000   0.75001   0.62935   0.00000  Uiso   1.00
N1000  N     0.50000   0.74999   0.87066   0.00000  Uiso   1.00
O1001  O     0.50000   0.68573   0.79072   0.00000  Uiso   1.00
O1002  O     0.54353   0.97385   0.83549   0.00000  Uiso   1.00
O1003  O     0.42245   0.70743   0.51606   0.00000  Uiso   1.00
O1004  O     0.46106   0.82177   0.96812   0.00000  Uiso   1.00
O1005  O     0.50000   0.81428   0.70929   0.00000  Uiso   1.00
O1006  O     0.50000   0.68573   0.70928   0.00000  Uiso   1.00
O1007  O     0.50000   0.81427   0.79072   0.00000  Uiso   1.00
O1008  O     0.42495   0.75000   0.78132   0.00000  Uiso   1.00
O1009  O     0.57505   0.75001   0.71868   0.00000  Uiso   1.00
O1010  O     0.42495   0.75000   0.69989   0.00000  Uiso   1.00
O1011  O     0.57505   0.75000   0.80012   0.00000  Uiso   1.00
O1012  O     0.54565   0.52573   0.67741   0.00000  Uiso   1.00
C1013  C     0.83354   0.66493   0.75004   0.00000  Uiso   1.00
C1014  C     0.81532   0.78685   0.94446   0.00000  Uiso   1.00
C1015  C     0.83365   0.75042   0.52748   0.00000  Uiso   1.00
C1016  C     0.83355   0.74965   0.97279   0.00000  Uiso   1.00
C1017  C     0.73453   0.75001   0.73751   0.00000  Uiso   1.00
C1018  C     0.93214   0.75001   0.76248   0.00000  Uiso   1.00
C1019  C     0.67924   0.75003   0.73060   0.00000  Uiso   1.00
C1020  C     0.98742   0.75003   0.76936   0.00000  Uiso   1.00
C1021  C     0.81609   0.54721   0.78691   0.00000  Uiso   1.00
C1022  C     0.81691   0.95290   0.70835   0.00000  Uiso   1.00
C1023  C     0.81553   0.59313   0.78723   0.00000  Uiso   1.00
C1024  C     0.83349   0.83508   0.75002   0.00000  Uiso   1.00
C1025  C     0.81626   0.90698   0.70789   0.00000  Uiso   1.00
C1026  C     0.83476   0.61672   0.75016   0.00000  Uiso   1.00
C1027  C     0.83460   0.88330   0.75028   0.00000  Uiso   1.00
C1028  C     0.85543   0.59407   0.71322   0.00000  Uiso   1.00
C1029  C     0.85427   0.90591   0.79299   0.00000  Uiso   1.00
C1030  C     0.85830   0.54791   0.71387   0.00000  Uiso   1.00
C1031  C     0.85703   0.95201   0.79317   0.00000  Uiso   1.00
C1032  C     0.83737   0.52430   0.75043   0.00000  Uiso   1.00
C1033  C     0.83729   0.97574   0.75075   0.00000  Uiso   1.00
C1034  C     0.93321   0.52964   0.68591   0.00000  Uiso   1.00
C1035  C     0.87093   0.77495   0.55897   0.00000  Uiso   1.00
C1036  C     0.93115   0.97398   0.83911   0.00000  Uiso   1.00
C1037  C     0.91102   0.80413   0.54002   0.00000  Uiso   1.00
C1038  C     0.95580   0.77740   0.52446   0.00000  Uiso   1.00
C1039  C     0.99878   0.80758   0.51182   0.00000  Uiso   1.00
C1040  C     0.86274   0.66800   0.97426   0.00000  Uiso   1.00
C1041  C     0.91488   0.66820   0.50726   0.00000  Uiso   1.00
C1042  C     0.92740   0.62262   0.52962   0.00000  Uiso   1.00
C1043  C     0.73263   0.67116   0.53660   0.00000  Uiso   1.00
C1044  C     0.80293   0.86320   0.94709   0.00000  Uiso   1.00
C1045  C     0.84996   0.71186   0.94845   0.00000  Uiso   1.00
C1046  C     0.86972   0.77364   0.60983   0.00000  Uiso   1.00
C1047  C     0.85091   0.71389   0.89754   0.00000  Uiso   1.00
C1048  C     0.79621   0.72758   0.59980   0.00000  Uiso   1.00
C1049  C     0.81452   0.78544   0.89294   0.00000  Uiso   1.00
C1050  C     0.79521   0.72700   0.54816   0.00000  Uiso   1.00
Cu1051 Cu    0.83333   0.75000   0.79822   0.00000  Uiso   1.00
Cu1052 Cu    0.83333   0.75001   0.70179   0.00000  Uiso   1.00
H1053  H     0.99251   0.75004   0.69344   0.00000  Uiso   1.00
H1054  H     0.86491   0.68577   0.87919   0.00000  Uiso   1.00
H1055  H     0.76700   0.71073   0.61679   0.00000  Uiso   1.00
H1056  H     0.79816   0.81246   0.87038   0.00000  Uiso   1.00
H1057  H     0.94929   0.51688   0.72265   0.00000  Uiso   1.00
H1058  H     0.94563   0.56439   0.68144   0.00000  Uiso   1.00
H1059  H     0.94974   0.50933   0.65854   0.00000  Uiso   1.00
H1060  H     0.94422   0.99106   0.80737   0.00000  Uiso   1.00
H1061  H     0.94716   0.93983   0.84277   0.00000  Uiso   1.00
H1062  H     0.94703   0.99249   0.87240   0.00000  Uiso   1.00
H1063  H     0.98365   0.83050   0.98179   0.00000  Uiso   1.00
H1064  H     0.67416   0.75004   0.80651   0.00000  Uiso   1.00
H1065  H     0.68195   0.82704   0.54427   0.00000  Uiso   1.00
H1066  H     0.69670   0.78727   0.99975   0.00000  Uiso   1.00
H1067  H     0.97209   0.75488   0.55451   0.00000  Uiso   1.00
H1068  H     0.94170   0.75754   0.99170   0.00000  Uiso   1.00
H1069  H     0.89276   0.82458   0.50910   0.00000  Uiso   1.00
H1070  H     0.92703   0.82786   0.56888   0.00000  Uiso   1.00
H1071  H     0.89684   0.61213   0.55133   0.00000  Uiso   1.00
H1072  H     0.93057   0.59788   0.50055   0.00000  Uiso   1.00
H1073  H     0.96474   0.62384   0.55418   0.00000  Uiso   1.00
H1074  H     0.94591   0.67786   0.98572   0.00000  Uiso   1.00
H1075  H     0.79942   0.52950   0.81495   0.00000  Uiso   1.00
H1076  H     0.91395   0.69198   0.53751   0.00000  Uiso   1.00
H1077  H     0.83167   0.65890   0.99581   0.00000  Uiso   1.00
H1078  H     0.86351   0.64122   0.94685   0.00000  Uiso   1.00
H1079  H     0.70405   0.68283   0.55992   0.00000  Uiso   1.00
H1080  H     0.76177   0.64870   0.55708   0.00000  Uiso   1.00
H1081  H     0.71120   0.65157   0.50653   0.00000  Uiso   1.00
H1082  H     0.79908   0.88928   0.97449   0.00000  Uiso   1.00
H1083  H     0.84247   0.86610   0.93676   0.00000  Uiso   1.00
H1084  H     0.77303   0.86975   0.91527   0.00000  Uiso   1.00
H1085  H     0.80102   0.97067   0.67566   0.00000  Uiso   1.00
H1086  H     0.79905   0.61016   0.81583   0.00000  Uiso   1.00
H1087  H     0.80048   0.89001   0.67471   0.00000  Uiso   1.00
H1088  H     0.87016   0.61212   0.68427   0.00000  Uiso   1.00
H1089  H     0.86848   0.88789   0.82602   0.00000  Uiso   1.00
H1090  H     0.89793   0.79205   0.63413   0.00000  Uiso   1.00
N1091  N     0.83333   0.75001   0.62935   0.00000  Uiso   1.00
N1092  N     0.83333   0.74999   0.87066   0.00000  Uiso   1.00
O1093  O     0.83334   0.68573   0.79072   0.00000  Uiso   1.00
O1094  O     0.87686   0.97385   0.83549   0.00000  Uiso   1.00
O1095  O     0.75578   0.70743   0.51606   0.00000  Uiso   1.00
O1096  O     0.79439   0.82177   0.96812   0.00000  Uiso   1.00
O1097  O     0.83333   0.81428   0.70929   0.00000  Uiso   1.00
O1098  O     0.83334   0.68573   0.70928   0.00000  Uiso   1.00
O1099  O     0.83333   0.81427   0.79072   0.00000  Uiso   1.00
O1100  O     0.75828   0.75000   0.78132   0.00000  Uiso   1.00
O1101  O     0.90839   0.75001   0.71868   0.00000  Uiso   1.00
O1102  O     0.75828   0.75000   0.69989   0.00000  Uiso   1.00
O1103  O     0.90839   0.75000   0.80012   0.00000  Uiso   1.00
O1104  O     0.87899   0.52573   0.67741   0.00000  Uiso   1.00
loop_
_geom_bond_atom_site_label_1
_geom_bond_atom_site_label_2
_geom_bond_distance
_geom_bond_site_symmetry_2
_ccdc_geom_bond_type
C1     O81     1.291   .     A
C1     O86     1.290   .     A
C1     C14     1.458   .     S
C2     O84     1.394   .     S
C2     C37     1.424   .     A
C2     C4      1.414   .     A
C3     C23     1.424   .     A
C3     C38     1.415   .     A
C3     C556    1.514   1_554 S
C4     C33     1.423   .     A
C4     C555    1.514   .     S
C5     O88     1.283   .     A
C5     O90     1.285   .     A
C5     C7      1.432   .     S
C6     O91     1.285   .     A
C6     C8      1.432   .     S
C6     O89     1.283   .     A
C7     C192    1.335   1_455 S
C7     H225    1.088   1_455 S
C8     C99     1.335   .     S
C8     H144    1.087   .     S
C9     C20     1.403   .     A
C9     C11     1.389   .     A
C9     H63     1.083   .     S
C10    C13     1.389   .     A
C10    C21     1.403   .     A
C10    H73     1.083   .     S
C11    C14     1.399   .     A
C11    H74     1.083   .     S
C12    O85     1.292   .     A
C12    C15     1.459   .     S
C12    O87     1.290   .     A
C13    H75     1.083   .     S
C13    C15     1.400   .     A
C14    C16     1.401   .     A
C15    C17     1.401   .     A
C16    H76     1.084   .     S
C16    C18     1.398   .     A
C17    C19     1.396   .     A
C17    H77     1.084   .     S
C18    O92     1.384   .     S
C18    C20     1.410   .     A
C19    C21     1.410   .     A
C19    O82     1.382   .     S
C20    C297    1.469   1_545 S
C21    C296    1.469   .     S
C22    H47     1.109   .     S
C22    H46     1.112   .     S
C22    H45     1.113   .     S
C22    O92     1.410   .     S
C23    C34     1.413   .     A
C23    C25     1.519   .     S
C24    O82     1.409   .     S
C24    H50     1.109   .     S
C24    H48     1.113   .     S
C24    H49     1.113   .     S
C25    H57     1.108   .     S
C25    C26     1.533   .     S
C25    H58     1.113   .     S
C26    H55     1.112   .     S
C26    C27     1.526   .     S
C26    H608    1.108   1_554 S
C27    H603    1.111   1_554 S
C27    H145    1.111   .     S
C27    H698    1.110   1_554 S
C28    H66     1.113   .     S
C28    C33     1.520   .     S
C28    H65     1.108   .     S
C28    C581    1.532   .     S
C29    H64     1.107   .     S
C29    C30     1.527   .     S
C29    C580    1.532   1_554 S
C29    H614    1.111   1_554 S
C30    H60     1.111   .     S
C30    H59     1.111   .     S
C30    H61     1.110   .     S
C31    H67     1.111   .     S
C31    O83     1.410   .     S
C31    H68     1.114   .     S
C31    H69     1.109   .     S
C32    H72     1.111   .     S
C32    H71     1.114   .     S
C32    O84     1.412   .     S
C32    H70     1.109   .     S
C33    C35     1.414   .     A
C34    N79     1.361   .     A
C34    H78     1.082   .     S
C35    N80     1.363   .     A
C35    H42     1.081   .     S
C36    N79     1.362   .     A
C36    C38     1.426   .     A
C36    H43     1.079   .     S
C37    N80     1.363   .     A
C37    H44     1.079   .     S
C38    O83     1.396   .     S
Cu39   O87     1.955   .     S
Cu39   O88     1.953   .     S
Cu39   O91     1.956   .     S
Cu39   O81     1.955   .     S
Cu39   Cu40    2.669   .     S
Cu39   N80     2.005   .     S
Cu40   O86     1.955   .     S
Cu40   O89     1.953   .     S
Cu40   O85     1.955   .     S
Cu40   N79     2.005   .     S
Cu40   O90     1.956   .     S
H41    C99     1.088   .     S
H51    C579    1.111   .     S
H52    C192    1.087   1_455 S
H53    C211    1.111   1_455 S
H54    C763    1.110   1_455 S
H56    C578    1.108   .     S
H62    C581    1.111   .     S
C93    O173    1.291   .     A
C93    O178    1.290   .     A
C93    C106    1.458   .     S
C94    O176    1.394   .     S
C94    C129    1.424   .     A
C94    C96     1.414   .     A
C95    C115    1.424   .     A
C95    C130    1.415   .     A
C95    C648    1.514   1_554 S
C96    C125    1.423   .     A
C96    C647    1.514   .     S
C97    O180    1.283   .     A
C97    O182    1.285   .     A
C97    C99     1.432   .     S
C98    O183    1.285   .     A
C98    C100    1.432   .     S
C98    O181    1.283   .     A
C100   C191    1.335   .     S
C100   H236    1.087   .     S
C101   C112    1.403   .     A
C101   C103    1.389   .     A
C101   H155    1.083   .     S
C102   C105    1.389   .     A
C102   C113    1.403   .     A
C102   H165    1.083   .     S
C103   C106    1.399   .     A
C103   H166    1.083   .     S
C104   O177    1.292   .     A
C104   C107    1.459   .     S
C104   O179    1.290   .     A
C105   H167    1.083   .     S
C105   C107    1.400   .     A
C106   C108    1.401   .     A
C107   C109    1.401   .     A
C108   H168    1.084   .     S
C108   C110    1.398   .     A
C109   C111    1.396   .     A
C109   H169    1.084   .     S
C110   O184    1.384   .     S
C110   C112    1.410   .     A
C111   C113    1.410   .     A
C111   O174    1.382   .     S
C112   C389    1.469   1_545 S
C113   C388    1.469   .     S
C114   H139    1.109   .     S
C114   H138    1.112   .     S
C114   H137    1.113   .     S
C114   O184    1.410   .     S
C115   C126    1.413   .     A
C115   C117    1.519   .     S
C116   O174    1.409   .     S
C116   H142    1.109   .     S
C116   H140    1.113   .     S
C116   H141    1.113   .     S
C117   H149    1.108   .     S
C117   C118    1.533   .     S
C117   H150    1.113   .     S
C118   H147    1.112   .     S
C118   C119    1.526   .     S
C118   H700    1.108   1_554 S
C119   H695    1.111   1_554 S
C119   H237    1.111   .     S
C119   H790    1.110   1_554 S
C120   H158    1.113   .     S
C120   C125    1.520   .     S
C120   H157    1.108   .     S
C120   C673    1.532   .     S
C121   H156    1.107   .     S
C121   C122    1.527   .     S
C121   C672    1.532   1_554 S
C121   H706    1.111   1_554 S
C122   H152    1.111   .     S
C122   H151    1.111   .     S
C122   H153    1.110   .     S
C123   H159    1.111   .     S
C123   O175    1.410   .     S
C123   H160    1.114   .     S
C123   H161    1.109   .     S
C124   H164    1.111   .     S
C124   H163    1.114   .     S
C124   O176    1.412   .     S
C124   H162    1.109   .     S
C125   C127    1.414   .     A
C126   N171    1.361   .     A
C126   H170    1.082   .     S
C127   N172    1.363   .     A
C127   H134    1.081   .     S
C128   N171    1.362   .     A
C128   C130    1.426   .     A
C128   H135    1.079   .     S
C129   N172    1.363   .     A
C129   H136    1.079   .     S
C130   O175    1.396   .     S
Cu131  O179    1.955   .     S
Cu131  O180    1.953   .     S
Cu131  O183    1.956   .     S
Cu131  O173    1.955   .     S
Cu131  Cu132   2.669   .     S
Cu131  N172    2.005   .     S
Cu132  O178    1.955   .     S
Cu132  O181    1.953   .     S
Cu132  O177    1.955   .     S
Cu132  N171    2.005   .     S
Cu132  O182    1.956   .     S
H133   C191    1.088   .     S
H143   C671    1.111   .     S
H146   C579    1.110   .     S
H148   C670    1.108   .     S
H154   C673    1.111   .     S
C185   O265    1.291   .     A
C185   O270    1.290   .     A
C185   C198    1.458   .     S
C186   O268    1.394   .     S
C186   C221    1.424   .     A
C186   C188    1.414   .     A
C187   C207    1.424   .     A
C187   C222    1.415   .     A
C187   C740    1.514   1_554 S
C188   C217    1.423   .     A
C188   C739    1.514   .     S
C189   O272    1.283   .     A
C189   O274    1.285   .     A
C189   C191    1.432   .     S
C190   O275    1.285   .     A
C190   C192    1.432   .     S
C190   O273    1.283   .     A
C192   C7      1.335   1_655 S
C192   H52     1.087   1_655 S
C193   C204    1.403   .     A
C193   C195    1.389   .     A
C193   H247    1.083   .     S
C194   C197    1.389   .     A
C194   C205    1.403   .     A
C194   H257    1.083   .     S
C195   C198    1.399   .     A
C195   H258    1.083   .     S
C196   O269    1.292   .     A
C196   C199    1.459   .     S
C196   O271    1.290   .     A
C197   H259    1.083   .     S
C197   C199    1.400   .     A
C198   C200    1.401   .     A
C199   C201    1.401   .     A
C200   H260    1.084   .     S
C200   C202    1.398   .     A
C201   C203    1.396   .     A
C201   H261    1.084   .     S
C202   O276    1.384   .     S
C202   C204    1.410   .     A
C203   C205    1.410   .     A
C203   O266    1.382   .     S
C204   C481    1.469   1_545 S
C205   C480    1.469   .     S
C206   H231    1.109   .     S
C206   H230    1.112   .     S
C206   H229    1.113   .     S
C206   O276    1.410   .     S
C207   C218    1.413   .     A
C207   C209    1.519   .     S
C208   O266    1.409   .     S
C208   H234    1.109   .     S
C208   H232    1.113   .     S
C208   H233    1.113   .     S
C209   H241    1.108   .     S
C209   C210    1.533   .     S
C209   H242    1.113   .     S
C210   H239    1.112   .     S
C210   C211    1.526   .     S
C210   H792    1.108   1_554 S
C211   H787    1.111   1_554 S
C211   H53     1.111   1_655 S
C211   H606    1.110   1_654 S
C212   H250    1.113   .     S
C212   C217    1.520   .     S
C212   H249    1.108   .     S
C212   C765    1.532   .     S
C213   H248    1.107   .     S
C213   C214    1.527   .     S
C213   C764    1.532   1_554 S
C213   H798    1.111   1_554 S
C214   H244    1.111   .     S
C214   H243    1.111   .     S
C214   H245    1.110   .     S
C215   H251    1.111   .     S
C215   O267    1.410   .     S
C215   H252    1.114   .     S
C215   H253    1.109   .     S
C216   H256    1.111   .     S
C216   H255    1.114   .     S
C216   O268    1.412   .     S
C216   H254    1.109   .     S
C217   C219    1.414   .     A
C218   N263    1.361   .     A
C218   H262    1.082   .     S
C219   N264    1.363   .     A
C219   H226    1.081   .     S
C220   N263    1.362   .     A
C220   C222    1.426   .     A
C220   H227    1.079   .     S
C221   N264    1.363   .     A
C221   H228    1.079   .     S
C222   O267    1.396   .     S
Cu223  O271    1.955   .     S
Cu223  O272    1.953   .     S
Cu223  O275    1.956   .     S
Cu223  O265    1.955   .     S
Cu223  Cu224   2.669   .     S
Cu223  N264    2.005   .     S
Cu224  O270    1.955   .     S
Cu224  O273    1.953   .     S
Cu224  O269    1.955   .     S
Cu224  N263    2.005   .     S
Cu224  O274    1.956   .     S
H225   C7      1.088   1_655 S
H235   C763    1.111   .     S
H238   C671    1.110   .     S
H240   C762    1.108   .     S
H246   C765    1.111   .     S
C277   O357    1.291   .     A
C277   O362    1.290   .     A
C277   C290    1.458   .     S
C278   O360    1.394   .     S
C278   C313    1.424   .     A
C278   C280    1.414   .     A
C279   C299    1.424   .     A
C279   C314    1.415   .     A
C279   C832    1.514   1_554 S
C280   C309    1.423   .     A
C280   C831    1.514   .     S
C281   O364    1.283   .     A
C281   O366    1.285   .     A
C281   C283    1.432   .     S
C282   O367    1.285   .     A
C282   C284    1.432   .     S
C282   O365    1.283   .     A
C283   C468    1.335   1_455 S
C283   H501    1.088   1_455 S
C284   C375    1.335   .     S
C284   H420    1.087   .     S
C285   C296    1.403   .     A
C285   C287    1.389   .     A
C285   H339    1.083   .     S
C286   C289    1.389   .     A
C286   C297    1.403   .     A
C286   H349    1.083   .     S
C287   C290    1.399   .     A
C287   H350    1.083   .     S
C288   O361    1.292   .     A
C288   C291    1.459   .     S
C288   O363    1.290   .     A
C289   H351    1.083   .     S
C289   C291    1.400   .     A
C290   C292    1.401   .     A
C291   C293    1.401   .     A
C292   H352    1.084   .     S
C292   C294    1.398   .     A
C293   C295    1.396   .     A
C293   H353    1.084   .     S
C294   O368    1.384   .     S
C294   C296    1.410   .     A
C295   C297    1.410   .     A
C295   O358    1.382   .     S
C297   C20     1.469   1_565 S
C298   H323    1.109   .     S
C298   H322    1.112   .     S
C298   H321    1.113   .     S
C298   O368    1.410   .     S
C299   C310    1.413   .     A
C299   C301    1.519   .     S
C300   O358    1.409   .     S
C300   H326    1.109   .     S
C300   H324    1.113   .     S
C300   H325    1.113   .     S
C301   H333    1.108   .     S
C301   C302    1.533   .     S
C301   H334    1.113   .     S
C302   H331    1.112   .     S
C302   C303    1.526   .     S
C302   H884    1.108   1_554 S
C303   H879    1.111   1_554 S
C303   H421    1.111   .     S
C303   H974    1.110   1_554 S
C304   H342    1.113   .     S
C304   C309    1.520   .     S
C304   H341    1.108   .     S
C304   C857    1.532   .     S
C305   H340    1.107   .     S
C305   C306    1.527   .     S
C305   C856    1.532   1_554 S
C305   H890    1.111   1_554 S
C306   H336    1.111   .     S
C306   H335    1.111   .     S
C306   H337    1.110   .     S
C307   H343    1.111   .     S
C307   O359    1.410   .     S
C307   H344    1.114   .     S
C307   H345    1.109   .     S
C308   H348    1.111   .     S
C308   H347    1.114   .     S
C308   O360    1.412   .     S
C308   H346    1.109   .     S
C309   C311    1.414   .     A
C310   N355    1.361   .     A
C310   H354    1.082   .     S
C311   N356    1.363   .     A
C311   H318    1.081   .     S
C312   N355    1.362   .     A
C312   C314    1.426   .     A
C312   H319    1.079   .     S
C313   N356    1.363   .     A
C313   H320    1.079   .     S
C314   O359    1.396   .     S
Cu315  O363    1.955   .     S
Cu315  O364    1.953   .     S
Cu315  O367    1.956   .     S
Cu315  O357    1.955   .     S
Cu315  Cu316   2.669   .     S
Cu315  N356    2.005   .     S
Cu316  O362    1.955   .     S
Cu316  O365    1.953   .     S
Cu316  O361    1.955   .     S
Cu316  N355    2.005   .     S
Cu316  O366    1.956   .     S
H317   C375    1.088   .     S
H327   C855    1.111   .     S
H328   C468    1.087   1_455 S
H329   C487    1.111   1_455 S
H330   C1039   1.110   1_455 S
H332   C854    1.108   .     S
H338   C857    1.111   .     S
C369   O449    1.291   .     A
C369   O454    1.290   .     A
C369   C382    1.458   .     S
C370   O452    1.394   .     S
C370   C405    1.424   .     A
C370   C372    1.414   .     A
C371   C391    1.424   .     A
C371   C406    1.415   .     A
C371   C924    1.514   1_554 S
C372   C401    1.423   .     A
C372   C923    1.514   .     S
C373   O456    1.283   .     A
C373   O458    1.285   .     A
C373   C375    1.432   .     S
C374   O459    1.285   .     A
C374   C376    1.432   .     S
C374   O457    1.283   .     A
C376   C467    1.335   .     S
C376   H512    1.087   .     S
C377   C388    1.403   .     A
C377   C379    1.389   .     A
C377   H431    1.083   .     S
C378   C381    1.389   .     A
C378   C389    1.403   .     A
C378   H441    1.083   .     S
C379   C382    1.399   .     A
C379   H442    1.083   .     S
C380   O453    1.292   .     A
C380   C383    1.459   .     S
C380   O455    1.290   .     A
C381   H443    1.083   .     S
C381   C383    1.400   .     A
C382   C384    1.401   .     A
C383   C385    1.401   .     A
C384   H444    1.084   .     S
C384   C386    1.398   .     A
C385   C387    1.396   .     A
C385   H445    1.084   .     S
C386   O460    1.384   .     S
C386   C388    1.410   .     A
C387   C389    1.410   .     A
C387   O450    1.382   .     S
C389   C112    1.469   1_565 S
C390   H415    1.109   .     S
C390   H414    1.112   .     S
C390   H413    1.113   .     S
C390   O460    1.410   .     S
C391   C402    1.413   .     A
C391   C393    1.519   .     S
C392   O450    1.409   .     S
C392   H418    1.109   .     S
C392   H416    1.113   .     S
C392   H417    1.113   .     S
C393   H425    1.108   .     S
C393   C394    1.533   .     S
C393   H426    1.113   .     S
C394   H423    1.112   .     S
C394   C395    1.526   .     S
C394   H976    1.108   1_554 S
C395   H971    1.111   1_554 S
C395   H513    1.111   .     S
C395   H1066   1.110   1_554 S
C396   H434    1.113   .     S
C396   C401    1.520   .     S
C396   H433    1.108   .     S
C396   C949    1.532   .     S
C397   H432    1.107   .     S
C397   C398    1.527   .     S
C397   C948    1.532   1_554 S
C397   H982    1.111   1_554 S
C398   H428    1.111   .     S
C398   H427    1.111   .     S
C398   H429    1.110   .     S
C399   H435    1.111   .     S
C399   O451    1.410   .     S
C399   H436    1.114   .     S
C399   H437    1.109   .     S
C400   H440    1.111   .     S
C400   H439    1.114   .     S
C400   O452    1.412   .     S
C400   H438    1.109   .     S
C401   C403    1.414   .     A
C402   N447    1.361   .     A
C402   H446    1.082   .     S
C403   N448    1.363   .     A
C403   H410    1.081   .     S
C404   N447    1.362   .     A
C404   C406    1.426   .     A
C404   H411    1.079   .     S
C405   N448    1.363   .     A
C405   H412    1.079   .     S
C406   O451    1.396   .     S
Cu407  O455    1.955   .     S
Cu407  O456    1.953   .     S
Cu407  O459    1.956   .     S
Cu407  O449    1.955   .     S
Cu407  Cu408   2.669   .     S
Cu407  N448    2.005   .     S
Cu408  O454    1.955   .     S
Cu408  O457    1.953   .     S
Cu408  O453    1.955   .     S
Cu408  N447    2.005   .     S
Cu408  O458    1.956   .     S
H409   C467    1.088   .     S
H419   C947    1.111   .     S
H422   C855    1.110   .     S
H424   C946    1.108   .     S
H430   C949    1.111   .     S
C461   O541    1.291   .     A
C461   O546    1.290   .     A
C461   C474    1.458   .     S
C462   O544    1.394   .     S
C462   C497    1.424   .     A
C462   C464    1.414   .     A
C463   C483    1.424   .     A
C463   C498    1.415   .     A
C463   C1016   1.514   1_554 S
C464   C493    1.423   .     A
C464   C1015   1.514   .     S
C465   O548    1.283   .     A
C465   O550    1.285   .     A
C465   C467    1.432   .     S
C466   O551    1.285   .     A
C466   C468    1.432   .     S
C466   O549    1.283   .     A
C468   C283    1.335   1_655 S
C468   H328    1.087   1_655 S
C469   C480    1.403   .     A
C469   C471    1.389   .     A
C469   H523    1.083   .     S
C470   C473    1.389   .     A
C470   C481    1.403   .     A
C470   H533    1.083   .     S
C471   C474    1.399   .     A
C471   H534    1.083   .     S
C472   O545    1.292   .     A
C472   C475    1.459   .     S
C472   O547    1.290   .     A
C473   H535    1.083   .     S
C473   C475    1.400   .     A
C474   C476    1.401   .     A
C475   C477    1.401   .     A
C476   H536    1.084   .     S
C476   C478    1.398   .     A
C477   C479    1.396   .     A
C477   H537    1.084   .     S
C478   O552    1.384   .     S
C478   C480    1.410   .     A
C479   C481    1.410   .     A
C479   O542    1.382   .     S
C481   C204    1.469   1_565 S
C482   H507    1.109   .     S
C482   H506    1.112   .     S
C482   H505    1.113   .     S
C482   O552    1.410   .     S
C483   C494    1.413   .     A
C483   C485    1.519   .     S
C484   O542    1.409   .     S
C484   H510    1.109   .     S
C484   H508    1.113   .     S
C484   H509    1.113   .     S
C485   H517    1.108   .     S
C485   C486    1.533   .     S
C485   H518    1.113   .     S
C486   H515    1.112   .     S
C486   C487    1.526   .     S
C486   H1068   1.108   1_554 S
C487   H1063   1.111   1_554 S
C487   H329    1.111   1_655 S
C487   H882    1.110   1_654 S
C488   H526    1.113   .     S
C488   C493    1.520   .     S
C488   H525    1.108   .     S
C488   C1041   1.532   .     S
C489   H524    1.107   .     S
C489   C490    1.527   .     S
C489   C1040   1.532   1_554 S
C489   H1074   1.111   1_554 S
C490   H520    1.111   .     S
C490   H519    1.111   .     S
C490   H521    1.110   .     S
C491   H527    1.111   .     S
C491   O543    1.410   .     S
C491   H528    1.114   .     S
C491   H529    1.109   .     S
C492   H532    1.111   .     S
C492   H531    1.114   .     S
C492   O544    1.412   .     S
C492   H530    1.109   .     S
C493   C495    1.414   .     A
C494   N539    1.361   .     A
C494   H538    1.082   .     S
C495   N540    1.363   .     A
C495   H502    1.081   .     S
C496   N539    1.362   .     A
C496   C498    1.426   .     A
C496   H503    1.079   .     S
C497   N540    1.363   .     A
C497   H504    1.079   .     S
C498   O543    1.396   .     S
Cu499  O547    1.955   .     S
Cu499  O548    1.953   .     S
Cu499  O551    1.956   .     S
Cu499  O541    1.955   .     S
Cu499  Cu500   2.669   .     S
Cu499  N540    2.005   .     S
Cu500  O546    1.955   .     S
Cu500  O549    1.953   .     S
Cu500  O545    1.955   .     S
Cu500  N539    2.005   .     S
Cu500  O550    1.956   .     S
H501   C283    1.088   1_655 S
H511   C1039   1.111   .     S
H514   C947    1.110   .     S
H516   C1038   1.108   .     S
H522   C1041   1.111   .     S
C553   O633    1.291   .     A
C553   O638    1.290   .     A
C553   C566    1.458   .     S
C554   O636    1.394   .     S
C554   C589    1.424   .     A
C554   C556    1.414   .     A
C555   C575    1.424   .     A
C555   C590    1.415   .     A
C556   C585    1.423   .     A
C556   C3      1.514   1_556 S
C557   O640    1.283   .     A
C557   O642    1.285   .     A
C557   C559    1.432   .     S
C558   O643    1.285   .     A
C558   C560    1.432   .     S
C558   O641    1.283   .     A
C559   C744    1.335   1_455 S
C559   H777    1.088   1_455 S
C560   C651    1.335   .     S
C560   H696    1.087   .     S
C561   C572    1.403   .     A
C561   C563    1.389   .     A
C561   H615    1.083   .     S
C562   C565    1.389   .     A
C562   C573    1.403   .     A
C562   H625    1.083   .     S
C563   C566    1.399   .     A
C563   H626    1.083   .     S
C564   O637    1.292   .     A
C564   C567    1.459   .     S
C564   O639    1.290   .     A
C565   H627    1.083   .     S
C565   C567    1.400   .     A
C566   C568    1.401   .     A
C567   C569    1.401   .     A
C568   H628    1.084   .     S
C568   C570    1.398   .     A
C569   C571    1.396   .     A
C569   H629    1.084   .     S
C570   O644    1.384   .     S
C570   C572    1.410   .     A
C571   C573    1.410   .     A
C571   O634    1.382   .     S
C572   C849    1.469   1_545 S
C573   C848    1.469   .     S
C574   H599    1.109   .     S
C574   H598    1.112   .     S
C574   H597    1.113   .     S
C574   O644    1.410   .     S
C575   C586    1.413   .     A
C575   C577    1.519   .     S
C576   O634    1.409   .     S
C576   H602    1.109   .     S
C576   H600    1.113   .     S
C576   H601    1.113   .     S
C577   H609    1.108   .     S
C577   C578    1.533   .     S
C577   H610    1.113   .     S
C578   H607    1.112   .     S
C578   C579    1.526   .     S
C579   H697    1.111   .     S
C580   H618    1.113   .     S
C580   C585    1.520   .     S
C580   H617    1.108   .     S
C580   C29     1.532   1_556 S
C581   H616    1.107   .     S
C581   C582    1.527   .     S
C582   H612    1.111   .     S
C582   H611    1.111   .     S
C582   H613    1.110   .     S
C583   H619    1.111   .     S
C583   O635    1.410   .     S
C583   H620    1.114   .     S
C583   H621    1.109   .     S
C584   H624    1.111   .     S
C584   H623    1.114   .     S
C584   O636    1.412   .     S
C584   H622    1.109   .     S
C585   C587    1.414   .     A
C586   N631    1.361   .     A
C586   H630    1.082   .     S
C587   N632    1.363   .     A
C587   H594    1.081   .     S
C588   N631    1.362   .     A
C588   C590    1.426   .     A
C588   H595    1.079   .     S
C589   N632    1.363   .     A
C589   H596    1.079   .     S
C590   O635    1.396   .     S
Cu591  O639    1.955   .     S
Cu591  O640    1.953   .     S
Cu591  O643    1.956   .     S
Cu591  O633    1.955   .     S
Cu591  Cu592   2.669   .     S
Cu591  N632    2.005   .     S
Cu592  O638    1.955   .     S
Cu592  O641    1.953   .     S
Cu592  O637    1.955   .     S
Cu592  N631    2.005   .     S
Cu592  O642    1.956   .     S
H593   C651    1.088   .     S
H603   C27     1.111   1_556 S
H604   C744    1.087   1_455 S
H605   C763    1.111   1_455 S
H606   C211    1.110   1_456 S
H608   C26     1.108   1_556 S
H614   C29     1.111   1_556 S
C645   O725    1.291   .     A
C645   O730    1.290   .     A
C645   C658    1.458   .     S
C646   O728    1.394   .     S
C646   C681    1.424   .     A
C646   C648    1.414   .     A
C647   C667    1.424   .     A
C647   C682    1.415   .     A
C648   C677    1.423   .     A
C648   C95     1.514   1_556 S
C649   O732    1.283   .     A
C649   O734    1.285   .     A
C649   C651    1.432   .     S
C650   O735    1.285   .     A
C650   C652    1.432   .     S
C650   O733    1.283   .     A
C652   C743    1.335   .     S
C652   H788    1.087   .     S
C653   C664    1.403   .     A
C653   C655    1.389   .     A
C653   H707    1.083   .     S
C654   C657    1.389   .     A
C654   C665    1.403   .     A
C654   H717    1.083   .     S
C655   C658    1.399   .     A
C655   H718    1.083   .     S
C656   O729    1.292   .     A
C656   C659    1.459   .     S
C656   O731    1.290   .     A
C657   H719    1.083   .     S
C657   C659    1.400   .     A
C658   C660    1.401   .     A
C659   C661    1.401   .     A
C660   H720    1.084   .     S
C660   C662    1.398   .     A
C661   C663    1.396   .     A
C661   H721    1.084   .     S
C662   O736    1.384   .     S
C662   C664    1.410   .     A
C663   C665    1.410   .     A
C663   O726    1.382   .     S
C664   C941    1.469   1_545 S
C665   C940    1.469   .     S
C666   H691    1.109   .     S
C666   H690    1.112   .     S
C666   H689    1.113   .     S
C666   O736    1.410   .     S
C667   C678    1.413   .     A
C667   C669    1.519   .     S
C668   O726    1.409   .     S
C668   H694    1.109   .     S
C668   H692    1.113   .     S
C668   H693    1.113   .     S
C669   H701    1.108   .     S
C669   C670    1.533   .     S
C669   H702    1.113   .     S
C670   H699    1.112   .     S
C670   C671    1.526   .     S
C671   H789    1.111   .     S
C672   H710    1.113   .     S
C672   C677    1.520   .     S
C672   H709    1.108   .     S
C672   C121    1.532   1_556 S
C673   H708    1.107   .     S
C673   C674    1.527   .     S
C674   H704    1.111   .     S
C674   H703    1.111   .     S
C674   H705    1.110   .     S
C675   H711    1.111   .     S
C675   O727    1.410   .     S
C675   H712    1.114   .     S
C675   H713    1.109   .     S
C676   H716    1.111   .     S
C676   H715    1.114   .     S
C676   O728    1.412   .     S
C676   H714    1.109   .     S
C677   C679    1.414   .     A
C678   N723    1.361   .     A
C678   H722    1.082   .     S
C679   N724    1.363   .     A
C679   H686    1.081   .     S
C680   N723    1.362   .     A
C680   C682    1.426   .     A
C680   H687    1.079   .     S
C681   N724    1.363   .     A
C681   H688    1.079   .     S
C682   O727    1.396   .     S
Cu683  O731    1.955   .     S
Cu683  O732    1.953   .     S
Cu683  O735    1.956   .     S
Cu683  O725    1.955   .     S
Cu683  Cu684   2.669   .     S
Cu683  N724    2.005   .     S
Cu684  O730    1.955   .     S
Cu684  O733    1.953   .     S
Cu684  O729    1.955   .     S
Cu684  N723    2.005   .     S
Cu684  O734    1.956   .     S
H685   C743    1.088   .     S
H695   C119    1.111   1_556 S
H698   C27     1.110   1_556 S
H700   C118    1.108   1_556 S
H706   C121    1.111   1_556 S
C737   O817    1.291   .     A
C737   O822    1.290   .     A
C737   C750    1.458   .     S
C738   O820    1.394   .     S
C738   C773    1.424   .     A
C738   C740    1.414   .     A
C739   C759    1.424   .     A
C739   C774    1.415   .     A
C740   C769    1.423   .     A
C740   C187    1.514   1_556 S
C741   O824    1.283   .     A
C741   O826    1.285   .     A
C741   C743    1.432   .     S
C742   O827    1.285   .     A
C742   C744    1.432   .     S
C742   O825    1.283   .     A
C744   C559    1.335   1_655 S
C744   H604    1.087   1_655 S
C745   C756    1.403   .     A
C745   C747    1.389   .     A
C745   H799    1.083   .     S
C746   C749    1.389   .     A
C746   C757    1.403   .     A
C746   H809    1.083   .     S
C747   C750    1.399   .     A
C747   H810    1.083   .     S
C748   O821    1.292   .     A
C748   C751    1.459   .     S
C748   O823    1.290   .     A
C749   H811    1.083   .     S
C749   C751    1.400   .     A
C750   C752    1.401   .     A
C751   C753    1.401   .     A
C752   H812    1.084   .     S
C752   C754    1.398   .     A
C753   C755    1.396   .     A
C753   H813    1.084   .     S
C754   O828    1.384   .     S
C754   C756    1.410   .     A
C755   C757    1.410   .     A
C755   O818    1.382   .     S
C756   C1033   1.469   1_545 S
C757   C1032   1.469   .     S
C758   H783    1.109   .     S
C758   H782    1.112   .     S
C758   H781    1.113   .     S
C758   O828    1.410   .     S
C759   C770    1.413   .     A
C759   C761    1.519   .     S
C760   O818    1.409   .     S
C760   H786    1.109   .     S
C760   H784    1.113   .     S
C760   H785    1.113   .     S
C761   H793    1.108   .     S
C761   C762    1.533   .     S
C761   H794    1.113   .     S
C762   H791    1.112   .     S
C762   C763    1.526   .     S
C763   H605    1.111   1_655 S
C763   H54     1.110   1_655 S
C764   H802    1.113   .     S
C764   C769    1.520   .     S
C764   H801    1.108   .     S
C764   C213    1.532   1_556 S
C765   H800    1.107   .     S
C765   C766    1.527   .     S
C766   H796    1.111   .     S
C766   H795    1.111   .     S
C766   H797    1.110   .     S
C767   H803    1.111   .     S
C767   O819    1.410   .     S
C767   H804    1.114   .     S
C767   H805    1.109   .     S
C768   H808    1.111   .     S
C768   H807    1.114   .     S
C768   O820    1.412   .     S
C768   H806    1.109   .     S
C769   C771    1.414   .     A
C770   N815    1.361   .     A
C770   H814    1.082   .     S
C771   N816    1.363   .     A
C771   H778    1.081   .     S
C772   N815    1.362   .     A
C772   C774    1.426   .     A
C772   H779    1.079   .     S
C773   N816    1.363   .     A
C773   H780    1.079   .     S
C774   O819    1.396   .     S
Cu775  O823    1.955   .     S
Cu775  O824    1.953   .     S
Cu775  O827    1.956   .     S
Cu775  O817    1.955   .     S
Cu775  Cu776   2.669   .     S
Cu775  N816    2.005   .     S
Cu776  O822    1.955   .     S
Cu776  O825    1.953   .     S
Cu776  O821    1.955   .     S
Cu776  N815    2.005   .     S
Cu776  O826    1.956   .     S
H777   C559    1.088   1_655 S
H787   C211    1.111   1_556 S
H790   C119    1.110   1_556 S
H792   C210    1.108   1_556 S
H798   C213    1.111   1_556 S
C829   O909    1.291   .     A
C829   O914    1.290   .     A
C829   C842    1.458   .     S
C830   O912    1.394   .     S
C830   C865    1.424   .     A
C830   C832    1.414   .     A
C831   C851    1.424   .     A
C831   C866    1.415   .     A
C832   C861    1.423   .     A
C832   C279    1.514   1_556 S
C833   O916    1.283   .     A
C833   O918    1.285   .     A
C833   C835    1.432   .     S
C834   O919    1.285   .     A
C834   C836    1.432   .     S
C834   O917    1.283   .     A
C835   C1020   1.335   1_455 S
C835   H1053   1.088   1_455 S
C836   C927    1.335   .     S
C836   H972    1.087   .     S
C837   C848    1.403   .     A
C837   C839    1.389   .     A
C837   H891    1.083   .     S
C838   C841    1.389   .     A
C838   C849    1.403   .     A
C838   H901    1.083   .     S
C839   C842    1.399   .     A
C839   H902    1.083   .     S
C840   O913    1.292   .     A
C840   C843    1.459   .     S
C840   O915    1.290   .     A
C841   H903    1.083   .     S
C841   C843    1.400   .     A
C842   C844    1.401   .     A
C843   C845    1.401   .     A
C844   H904    1.084   .     S
C844   C846    1.398   .     A
C845   C847    1.396   .     A
C845   H905    1.084   .     S
C846   O920    1.384   .     S
C846   C848    1.410   .     A
C847   C849    1.410   .     A
C847   O910    1.382   .     S
C849   C572    1.469   1_565 S
C850   H875    1.109   .     S
C850   H874    1.112   .     S
C850   H873    1.113   .     S
C850   O920    1.410   .     S
C851   C862    1.413   .     A
C851   C853    1.519   .     S
C852   O910    1.409   .     S
C852   H878    1.109   .     S
C852   H876    1.113   .     S
C852   H877    1.113   .     S
C853   H885    1.108   .     S
C853   C854    1.533   .     S
C853   H886    1.113   .     S
C854   H883    1.112   .     S
C854   C855    1.526   .     S
C855   H973    1.111   .     S
C856   H894    1.113   .     S
C856   C861    1.520   .     S
C856   H893    1.108   .     S
C856   C305    1.532   1_556 S
C857   H892    1.107   .     S
C857   C858    1.527   .     S
C858   H888    1.111   .     S
C858   H887    1.111   .     S
C858   H889    1.110   .     S
C859   H895    1.111   .     S
C859   O911    1.410   .     S
C859   H896    1.114   .     S
C859   H897    1.109   .     S
C860   H900    1.111   .     S
C860   H899    1.114   .     S
C860   O912    1.412   .     S
C860   H898    1.109   .     S
C861   C863    1.414   .     A
C862   N907    1.361   .     A
C862   H906    1.082   .     S
C863   N908    1.363   .     A
C863   H870    1.081   .     S
C864   N907    1.362   .     A
C864   C866    1.426   .     A
C864   H871    1.079   .     S
C865   N908    1.363   .     A
C865   H872    1.079   .     S
C866   O911    1.396   .     S
Cu867  O915    1.955   .     S
Cu867  O916    1.953   .     S
Cu867  O919    1.956   .     S
Cu867  O909    1.955   .     S
Cu867  Cu868   2.669   .     S
Cu867  N908    2.005   .     S
Cu868  O914    1.955   .     S
Cu868  O917    1.953   .     S
Cu868  O913    1.955   .     S
Cu868  N907    2.005   .     S
Cu868  O918    1.956   .     S
H869   C927    1.088   .     S
H879   C303    1.111   1_556 S
H880   C1020   1.087   1_455 S
H881   C1039   1.111   1_455 S
H882   C487    1.110   1_456 S
H884   C302    1.108   1_556 S
H890   C305    1.111   1_556 S
C921   O1001   1.291   .     A
C921   O1006   1.290   .     A
C921   C934    1.458   .     S
C922   O1004   1.394   .     S
C922   C957    1.424   .     A
C922   C924    1.414   .     A
C923   C943    1.424   .     A
C923   C958    1.415   .     A
C924   C953    1.423   .     A
C924   C371    1.514   1_556 S
C925   O1008   1.283   .     A
C925   O1010   1.285   .     A
C925   C927    1.432   .     S
C926   O1011   1.285   .     A
C926   C928    1.432   .     S
C926   O1009   1.283   .     A
C928   C1019   1.335   .     S
C928   H1064   1.087   .     S
C929   C940    1.403   .     A
C929   C931    1.389   .     A
C929   H983    1.083   .     S
C930   C933    1.389   .     A
C930   C941    1.403   .     A
C930   H993    1.083   .     S
C931   C934    1.399   .     A
C931   H994    1.083   .     S
C932   O1005   1.292   .     A
C932   C935    1.459   .     S
C932   O1007   1.290   .     A
C933   H995    1.083   .     S
C933   C935    1.400   .     A
C934   C936    1.401   .     A
C935   C937    1.401   .     A
C936   H996    1.084   .     S
C936   C938    1.398   .     A
C937   C939    1.396   .     A
C937   H997    1.084   .     S
C938   O1012   1.384   .     S
C938   C940    1.410   .     A
C939   C941    1.410   .     A
C939   O1002   1.382   .     S
C941   C664    1.469   1_565 S
C942   H967    1.109   .     S
C942   H966    1.112   .     S
C942   H965    1.113   .     S
C942   O1012   1.410   .     S
C943   C954    1.413   .     A
C943   C945    1.519   .     S
C944   O1002   1.409   .     S
C944   H970    1.109   .     S
C944   H968    1.113   .     S
C944   H969    1.113   .     S
C945   H977    1.108   .     S
C945   C946    1.533   .     S
C945   H978    1.113   .     S
C946   H975    1.112   .     S
C946   C947    1.526   .     S
C947   H1065   1.111   .     S
C948   H986    1.113   .     S
C948   C953    1.520   .     S
C948   H985    1.108   .     S
C948   C397    1.532   1_556 S
C949   H984    1.107   .     S
C949   C950    1.527   .     S
C950   H980    1.111   .     S
C950   H979    1.111   .     S
C950   H981    1.110   .     S
C951   H987    1.111   .     S
C951   O1003   1.410   .     S
C951   H988    1.114   .     S
C951   H989    1.109   .     S
C952   H992    1.111   .     S
C952   H991    1.114   .     S
C952   O1004   1.412   .     S
C952   H990    1.109   .     S
C953   C955    1.414   .     A
C954   N999    1.361   .     A
C954   H998    1.082   .     S
C955   N1000   1.363   .     A
C955   H962    1.081   .     S
C956   N999    1.362   .     A
C956   C958    1.426   .     A
C956   H963    1.079   .     S
C957   N1000   1.363   .     A
C957   H964    1.079   .     S
C958   O1003   1.396   .     S
Cu959  O1007   1.955   .     S
Cu959  O1008   1.953   .     S
Cu959  O1011   1.956   .     S
Cu959  O1001   1.955   .     S
Cu959  Cu960   2.669   .     S
Cu959  N1000   2.005   .     S
Cu960  O1006   1.955   .     S
Cu960  O1009   1.953   .     S
Cu960  O1005   1.955   .     S
Cu960  N999    2.005   .     S
Cu960  O1010   1.956   .     S
H961   C1019   1.088   .     S
H971   C395    1.111   1_556 S
H974   C303    1.110   1_556 S
H976   C394    1.108   1_556 S
H982   C397    1.111   1_556 S
C1013  O1093   1.291   .     A
C1013  O1098   1.290   .     A
C1013  C1026   1.458   .     S
C1014  O1096   1.394   .     S
C1014  C1049   1.424   .     A
C1014  C1016   1.414   .     A
C1015  C1035   1.424   .     A
C1015  C1050   1.415   .     A
C1016  C1045   1.423   .     A
C1016  C463    1.514   1_556 S
C1017  O1100   1.283   .     A
C1017  O1102   1.285   .     A
C1017  C1019   1.432   .     S
C1018  O1103   1.285   .     A
C1018  C1020   1.432   .     S
C1018  O1101   1.283   .     A
C1020  C835    1.335   1_655 S
C1020  H880    1.087   1_655 S
C1021  C1032   1.403   .     A
C1021  C1023   1.389   .     A
C1021  H1075   1.083   .     S
C1022  C1025   1.389   .     A
C1022  C1033   1.403   .     A
C1022  H1085   1.083   .     S
C1023  C1026   1.399   .     A
C1023  H1086   1.083   .     S
C1024  O1097   1.292   .     A
C1024  C1027   1.459   .     S
C1024  O1099   1.290   .     A
C1025  H1087   1.083   .     S
C1025  C1027   1.400   .     A
C1026  C1028   1.401   .     A
C1027  C1029   1.401   .     A
C1028  H1088   1.084   .     S
C1028  C1030   1.398   .     A
C1029  C1031   1.396   .     A
C1029  H1089   1.084   .     S
C1030  O1104   1.384   .     S
C1030  C1032   1.410   .     A
C1031  C1033   1.410   .     A
C1031  O1094   1.382   .     S
C1033  C756    1.469   1_565 S
C1034  H1059   1.109   .     S
C1034  H1058   1.112   .     S
C1034  H1057   1.113   .     S
C1034  O1104   1.410   .     S
C1035  C1046   1.413   .     A
C1035  C1037   1.519   .     S
C1036  O1094   1.409   .     S
C1036  H1062   1.109   .     S
C1036  H1060   1.113   .     S
C1036  H1061   1.113   .     S
C1037  H1069   1.108   .     S
C1037  C1038   1.533   .     S
C1037  H1070   1.113   .     S
C1038  H1067   1.112   .     S
C1038  C1039   1.526   .     S
C1039  H881    1.111   1_655 S
C1039  H330    1.110   1_655 S
C1040  H1078   1.113   .     S
C1040  C1045   1.520   .     S
C1040  H1077   1.108   .     S
C1040  C489    1.532   1_556 S
C1041  H1076   1.107   .     S
C1041  C1042   1.527   .     S
C1042  H1072   1.111   .     S
C1042  H1071   1.111   .     S
C1042  H1073   1.110   .     S
C1043  H1079   1.111   .     S
C1043  O1095   1.410   .     S
C1043  H1080   1.114   .     S
C1043  H1081   1.109   .     S
C1044  H1084   1.111   .     S
C1044  H1083   1.114   .     S
C1044  O1096   1.412   .     S
C1044  H1082   1.109   .     S
C1045  C1047   1.414   .     A
C1046  N1091   1.361   .     A
C1046  H1090   1.082   .     S
C1047  N1092   1.363   .     A
C1047  H1054   1.081   .     S
C1048  N1091   1.362   .     A
C1048  C1050   1.426   .     A
C1048  H1055   1.079   .     S
C1049  N1092   1.363   .     A
C1049  H1056   1.079   .     S
C1050  O1095   1.396   .     S
Cu1051 O1099   1.955   .     S
Cu1051 O1100   1.953   .     S
Cu1051 O1103   1.956   .     S
Cu1051 O1093   1.955   .     S
Cu1051 Cu1052  2.669   .     S
Cu1051 N1092   2.005   .     S
Cu1052 O1098   1.955   .     S
Cu1052 O1101   1.953   .     S
Cu1052 O1097   1.955   .     S
Cu1052 N1091   2.005   .     S
Cu1052 O1102   1.956   .     S
H1053  C835    1.088   1_655 S
H1063  C487    1.111   1_556 S
H1066  C395    1.110   1_556 S
H1068  C486    1.108   1_556 S
H1074  C489    1.111   1_556 S
