data_str_m2_o2_o5_pcu_sym.131
_audit_creation_date              2020-01-03
_audit_creation_method            'Materials Studio'
_symmetry_space_group_name_H-M    'P1'
_symmetry_Int_Tables_number       1
_symmetry_cell_setting            triclinic
loop_
_symmetry_equiv_pos_as_xyz
  x,y,z
_cell_length_a                    30.1521
_cell_length_b                    27.7542
_cell_length_c                    27.2290
_cell_angle_alpha                 90.0010
_cell_angle_beta                  90.1555
_cell_angle_gamma                 89.9998
loop_
_atom_site_label
_atom_site_type_symbol
_atom_site_fract_x
_atom_site_fract_y
_atom_site_fract_z
_atom_site_U_iso_or_equiv
_atom_site_adp_type
_atom_site_occupancy
C1     C     0.16507   0.25000   0.16665   0.00000  Uiso   1.00
C2     C     0.33493   0.25000   0.16668   0.00000  Uiso   1.00
C3     C     0.27128   0.10469   0.20310   0.00000  Uiso   1.00
C4     C     0.21635   0.39533   0.14445   0.00000  Uiso   1.00
C5     C     0.22872   0.10469   0.13023   0.00000  Uiso   1.00
C6     C     0.28365   0.39533   0.18888   0.00000  Uiso   1.00
C7     C     0.27140   0.05398   0.20400   0.00000  Uiso   1.00
C8     C     0.21554   0.44604   0.14435   0.00000  Uiso   1.00
C9     C     0.22860   0.05398   0.12933   0.00000  Uiso   1.00
C10    C     0.28446   0.44604   0.18898   0.00000  Uiso   1.00
C11    C     0.24998   0.25000   0.07352   0.00000  Uiso   1.00
C12    C     0.25002   0.25000   0.25981   0.00000  Uiso   1.00
C13    C     0.25000   0.02736   0.16667   0.00000  Uiso   1.00
C14    C     0.25000   0.47267   0.16667   0.00000  Uiso   1.00
C15    C     0.24999   0.24999   0.02184   0.00000  Uiso   1.00
C16    C     0.25001   0.24999   0.31149   0.00000  Uiso   1.00
C17    C     0.04763   0.26784   0.20731   0.00000  Uiso   1.00
C18    C     0.45257   0.23192   0.20725   0.00000  Uiso   1.00
C19    C     0.45238   0.26802   0.12610   0.00000  Uiso   1.00
C20    C     0.04744   0.23210   0.12600   0.00000  Uiso   1.00
C21    C     0.09379   0.26816   0.20744   0.00000  Uiso   1.00
C22    C     0.40641   0.23164   0.20738   0.00000  Uiso   1.00
C23    C     0.40621   0.26833   0.12597   0.00000  Uiso   1.00
C24    C     0.09360   0.23181   0.12587   0.00000  Uiso   1.00
C25    C     0.11692   0.25000   0.16665   0.00000  Uiso   1.00
C26    C     0.38308   0.25000   0.16668   0.00000  Uiso   1.00
C27    C     0.02430   0.24996   0.16666   0.00000  Uiso   1.00
C28    C     0.47570   0.24996   0.16667   0.00000  Uiso   1.00
Cu29   Cu    0.25000   0.29821   0.16667   0.00000  Uiso   1.00
Cu30   Cu    0.25000   0.20178   0.16667   0.00000  Uiso   1.00
H31    H     0.28819   0.12431   0.23191   0.00000  Uiso   1.00
H32    H     0.18973   0.37575   0.12676   0.00000  Uiso   1.00
H33    H     0.21181   0.12431   0.10142   0.00000  Uiso   1.00
H34    H     0.31027   0.37575   0.20657   0.00000  Uiso   1.00
H35    H     0.02993   0.28194   0.23877   0.00000  Uiso   1.00
H36    H     0.47042   0.21767   0.23863   0.00000  Uiso   1.00
H37    H     0.47007   0.28225   0.09471   0.00000  Uiso   1.00
H38    H     0.02959   0.21798   0.09456   0.00000  Uiso   1.00
H39    H     0.28774   0.03604   0.23430   0.00000  Uiso   1.00
H40    H     0.18761   0.46398   0.12736   0.00000  Uiso   1.00
H41    H     0.21226   0.03604   0.09904   0.00000  Uiso   1.00
H42    H     0.31240   0.46398   0.20597   0.00000  Uiso   1.00
N43    N     0.25000   0.12934   0.16667   0.00000  Uiso   1.00
N44    N     0.25000   0.37065   0.16667   0.00000  Uiso   1.00
O45    O     0.18573   0.29071   0.16667   0.00000  Uiso   1.00
O46    O     0.31427   0.20928   0.16666   0.00000  Uiso   1.00
O47    O     0.31427   0.29071   0.16666   0.00000  Uiso   1.00
O48    O     0.18573   0.20928   0.16667   0.00000  Uiso   1.00
O49    O     0.25000   0.29071   0.09613   0.00000  Uiso   1.00
O50    O     0.25000   0.20929   0.23720   0.00000  Uiso   1.00
O51    O     0.25000   0.29071   0.23720   0.00000  Uiso   1.00
O52    O     0.25000   0.20929   0.09613   0.00000  Uiso   1.00
Br53   Br    0.12384   0.29222   0.26471   0.00000  Uiso   1.00
Br54   Br    0.37661   0.20731   0.26453   0.00000  Uiso   1.00
Br55   Br    0.37617   0.29261   0.06880   0.00000  Uiso   1.00
Br56   Br    0.12340   0.20771   0.06864   0.00000  Uiso   1.00
C57    C     0.66507   0.25000   0.16665   0.00000  Uiso   1.00
C58    C     0.83493   0.25000   0.16668   0.00000  Uiso   1.00
C59    C     0.77128   0.10469   0.20310   0.00000  Uiso   1.00
C60    C     0.71635   0.39533   0.14445   0.00000  Uiso   1.00
C61    C     0.72872   0.10469   0.13023   0.00000  Uiso   1.00
C62    C     0.78365   0.39533   0.18888   0.00000  Uiso   1.00
C63    C     0.77140   0.05398   0.20400   0.00000  Uiso   1.00
C64    C     0.71554   0.44604   0.14435   0.00000  Uiso   1.00
C65    C     0.72860   0.05398   0.12933   0.00000  Uiso   1.00
C66    C     0.78446   0.44604   0.18898   0.00000  Uiso   1.00
C67    C     0.74998   0.25000   0.07352   0.00000  Uiso   1.00
C68    C     0.75002   0.25000   0.25981   0.00000  Uiso   1.00
C69    C     0.75000   0.02736   0.16667   0.00000  Uiso   1.00
C70    C     0.75000   0.47267   0.16667   0.00000  Uiso   1.00
C71    C     0.74999   0.24999   0.02184   0.00000  Uiso   1.00
C72    C     0.75001   0.24999   0.31149   0.00000  Uiso   1.00
C73    C     0.54763   0.26784   0.20731   0.00000  Uiso   1.00
C74    C     0.95257   0.23192   0.20725   0.00000  Uiso   1.00
C75    C     0.95238   0.26802   0.12610   0.00000  Uiso   1.00
C76    C     0.54744   0.23210   0.12600   0.00000  Uiso   1.00
C77    C     0.59379   0.26816   0.20744   0.00000  Uiso   1.00
C78    C     0.90641   0.23164   0.20738   0.00000  Uiso   1.00
C79    C     0.90621   0.26833   0.12597   0.00000  Uiso   1.00
C80    C     0.59360   0.23181   0.12587   0.00000  Uiso   1.00
C81    C     0.61692   0.25000   0.16665   0.00000  Uiso   1.00
C82    C     0.88308   0.25000   0.16668   0.00000  Uiso   1.00
C83    C     0.52430   0.24996   0.16666   0.00000  Uiso   1.00
C84    C     0.97570   0.24996   0.16667   0.00000  Uiso   1.00
Cu85   Cu    0.75000   0.29821   0.16667   0.00000  Uiso   1.00
Cu86   Cu    0.75000   0.20178   0.16667   0.00000  Uiso   1.00
H87    H     0.78819   0.12431   0.23191   0.00000  Uiso   1.00
H88    H     0.68973   0.37575   0.12676   0.00000  Uiso   1.00
H89    H     0.71181   0.12431   0.10142   0.00000  Uiso   1.00
H90    H     0.81027   0.37575   0.20657   0.00000  Uiso   1.00
H91    H     0.52993   0.28194   0.23877   0.00000  Uiso   1.00
H92    H     0.97042   0.21767   0.23863   0.00000  Uiso   1.00
H93    H     0.97007   0.28225   0.09471   0.00000  Uiso   1.00
H94    H     0.52959   0.21798   0.09456   0.00000  Uiso   1.00
H95    H     0.78774   0.03604   0.23430   0.00000  Uiso   1.00
H96    H     0.68761   0.46398   0.12736   0.00000  Uiso   1.00
H97    H     0.71226   0.03604   0.09904   0.00000  Uiso   1.00
H98    H     0.81240   0.46398   0.20597   0.00000  Uiso   1.00
N99    N     0.75000   0.12934   0.16667   0.00000  Uiso   1.00
N100   N     0.75000   0.37065   0.16667   0.00000  Uiso   1.00
O101   O     0.68573   0.29071   0.16667   0.00000  Uiso   1.00
O102   O     0.81427   0.20928   0.16666   0.00000  Uiso   1.00
O103   O     0.81427   0.29071   0.16666   0.00000  Uiso   1.00
O104   O     0.68573   0.20928   0.16667   0.00000  Uiso   1.00
O105   O     0.75000   0.29071   0.09613   0.00000  Uiso   1.00
O106   O     0.75000   0.20929   0.23720   0.00000  Uiso   1.00
O107   O     0.75000   0.29071   0.23720   0.00000  Uiso   1.00
O108   O     0.75000   0.20929   0.09613   0.00000  Uiso   1.00
Br109  Br    0.62384   0.29222   0.26471   0.00000  Uiso   1.00
Br110  Br    0.87661   0.20731   0.26453   0.00000  Uiso   1.00
Br111  Br    0.87617   0.29261   0.06880   0.00000  Uiso   1.00
Br112  Br    0.62340   0.20771   0.06864   0.00000  Uiso   1.00
C113   C     0.16507   0.75000   0.16665   0.00000  Uiso   1.00
C114   C     0.33493   0.75000   0.16668   0.00000  Uiso   1.00
C115   C     0.27128   0.60469   0.20310   0.00000  Uiso   1.00
C116   C     0.21635   0.89533   0.14445   0.00000  Uiso   1.00
C117   C     0.22872   0.60469   0.13023   0.00000  Uiso   1.00
C118   C     0.28365   0.89533   0.18888   0.00000  Uiso   1.00
C119   C     0.27140   0.55398   0.20400   0.00000  Uiso   1.00
C120   C     0.21554   0.94604   0.14435   0.00000  Uiso   1.00
C121   C     0.22860   0.55398   0.12933   0.00000  Uiso   1.00
C122   C     0.28446   0.94604   0.18898   0.00000  Uiso   1.00
C123   C     0.24998   0.75000   0.07352   0.00000  Uiso   1.00
C124   C     0.25002   0.75000   0.25981   0.00000  Uiso   1.00
C125   C     0.25000   0.52736   0.16667   0.00000  Uiso   1.00
C126   C     0.25000   0.97267   0.16667   0.00000  Uiso   1.00
C127   C     0.24999   0.74999   0.02184   0.00000  Uiso   1.00
C128   C     0.25001   0.74999   0.31149   0.00000  Uiso   1.00
C129   C     0.04763   0.76784   0.20731   0.00000  Uiso   1.00
C130   C     0.45257   0.73192   0.20725   0.00000  Uiso   1.00
C131   C     0.45238   0.76802   0.12610   0.00000  Uiso   1.00
C132   C     0.04744   0.73210   0.12600   0.00000  Uiso   1.00
C133   C     0.09379   0.76816   0.20744   0.00000  Uiso   1.00
C134   C     0.40641   0.73164   0.20738   0.00000  Uiso   1.00
C135   C     0.40621   0.76833   0.12597   0.00000  Uiso   1.00
C136   C     0.09360   0.73181   0.12587   0.00000  Uiso   1.00
C137   C     0.11692   0.75000   0.16665   0.00000  Uiso   1.00
C138   C     0.38308   0.75000   0.16668   0.00000  Uiso   1.00
C139   C     0.02430   0.74996   0.16666   0.00000  Uiso   1.00
C140   C     0.47570   0.74996   0.16667   0.00000  Uiso   1.00
Cu141  Cu    0.25000   0.79821   0.16667   0.00000  Uiso   1.00
Cu142  Cu    0.25000   0.70178   0.16667   0.00000  Uiso   1.00
H143   H     0.28819   0.62431   0.23191   0.00000  Uiso   1.00
H144   H     0.18973   0.87575   0.12676   0.00000  Uiso   1.00
H145   H     0.21181   0.62431   0.10142   0.00000  Uiso   1.00
H146   H     0.31027   0.87575   0.20657   0.00000  Uiso   1.00
H147   H     0.02993   0.78194   0.23877   0.00000  Uiso   1.00
H148   H     0.47042   0.71767   0.23863   0.00000  Uiso   1.00
H149   H     0.47007   0.78225   0.09471   0.00000  Uiso   1.00
H150   H     0.02959   0.71798   0.09456   0.00000  Uiso   1.00
H151   H     0.28774   0.53604   0.23430   0.00000  Uiso   1.00
H152   H     0.18761   0.96398   0.12736   0.00000  Uiso   1.00
H153   H     0.21226   0.53604   0.09904   0.00000  Uiso   1.00
H154   H     0.31240   0.96398   0.20597   0.00000  Uiso   1.00
N155   N     0.25000   0.62934   0.16667   0.00000  Uiso   1.00
N156   N     0.25000   0.87065   0.16667   0.00000  Uiso   1.00
O157   O     0.18573   0.79071   0.16667   0.00000  Uiso   1.00
O158   O     0.31427   0.70928   0.16666   0.00000  Uiso   1.00
O159   O     0.31427   0.79071   0.16666   0.00000  Uiso   1.00
O160   O     0.18573   0.70928   0.16667   0.00000  Uiso   1.00
O161   O     0.25000   0.79071   0.09613   0.00000  Uiso   1.00
O162   O     0.25000   0.70929   0.23720   0.00000  Uiso   1.00
O163   O     0.25000   0.79071   0.23720   0.00000  Uiso   1.00
O164   O     0.25000   0.70929   0.09613   0.00000  Uiso   1.00
Br165  Br    0.12384   0.79222   0.26471   0.00000  Uiso   1.00
Br166  Br    0.37661   0.70731   0.26453   0.00000  Uiso   1.00
Br167  Br    0.37617   0.79261   0.06880   0.00000  Uiso   1.00
Br168  Br    0.12340   0.70771   0.06864   0.00000  Uiso   1.00
C169   C     0.66507   0.75000   0.16665   0.00000  Uiso   1.00
C170   C     0.83493   0.75000   0.16668   0.00000  Uiso   1.00
C171   C     0.77128   0.60469   0.20310   0.00000  Uiso   1.00
C172   C     0.71635   0.89533   0.14445   0.00000  Uiso   1.00
C173   C     0.72872   0.60469   0.13023   0.00000  Uiso   1.00
C174   C     0.78365   0.89533   0.18888   0.00000  Uiso   1.00
C175   C     0.77140   0.55398   0.20400   0.00000  Uiso   1.00
C176   C     0.71554   0.94604   0.14435   0.00000  Uiso   1.00
C177   C     0.72860   0.55398   0.12933   0.00000  Uiso   1.00
C178   C     0.78446   0.94604   0.18898   0.00000  Uiso   1.00
C179   C     0.74998   0.75000   0.07352   0.00000  Uiso   1.00
C180   C     0.75002   0.75000   0.25981   0.00000  Uiso   1.00
C181   C     0.75000   0.52736   0.16667   0.00000  Uiso   1.00
C182   C     0.75000   0.97267   0.16667   0.00000  Uiso   1.00
C183   C     0.74999   0.74999   0.02184   0.00000  Uiso   1.00
C184   C     0.75001   0.74999   0.31149   0.00000  Uiso   1.00
C185   C     0.54763   0.76784   0.20731   0.00000  Uiso   1.00
C186   C     0.95257   0.73192   0.20725   0.00000  Uiso   1.00
C187   C     0.95238   0.76802   0.12610   0.00000  Uiso   1.00
C188   C     0.54744   0.73210   0.12600   0.00000  Uiso   1.00
C189   C     0.59379   0.76816   0.20744   0.00000  Uiso   1.00
C190   C     0.90641   0.73164   0.20738   0.00000  Uiso   1.00
C191   C     0.90621   0.76833   0.12597   0.00000  Uiso   1.00
C192   C     0.59360   0.73181   0.12587   0.00000  Uiso   1.00
C193   C     0.61692   0.75000   0.16665   0.00000  Uiso   1.00
C194   C     0.88308   0.75000   0.16668   0.00000  Uiso   1.00
C195   C     0.52430   0.74996   0.16666   0.00000  Uiso   1.00
C196   C     0.97570   0.74996   0.16667   0.00000  Uiso   1.00
Cu197  Cu    0.75000   0.79821   0.16667   0.00000  Uiso   1.00
Cu198  Cu    0.75000   0.70178   0.16667   0.00000  Uiso   1.00
H199   H     0.78819   0.62431   0.23191   0.00000  Uiso   1.00
H200   H     0.68973   0.87575   0.12676   0.00000  Uiso   1.00
H201   H     0.71181   0.62431   0.10142   0.00000  Uiso   1.00
H202   H     0.81027   0.87575   0.20657   0.00000  Uiso   1.00
H203   H     0.52993   0.78194   0.23877   0.00000  Uiso   1.00
H204   H     0.97042   0.71767   0.23863   0.00000  Uiso   1.00
H205   H     0.97007   0.78225   0.09471   0.00000  Uiso   1.00
H206   H     0.52959   0.71798   0.09456   0.00000  Uiso   1.00
H207   H     0.78774   0.53604   0.23430   0.00000  Uiso   1.00
H208   H     0.68761   0.96398   0.12736   0.00000  Uiso   1.00
H209   H     0.71226   0.53604   0.09904   0.00000  Uiso   1.00
H210   H     0.81240   0.96398   0.20597   0.00000  Uiso   1.00
N211   N     0.75000   0.62934   0.16667   0.00000  Uiso   1.00
N212   N     0.75000   0.87065   0.16667   0.00000  Uiso   1.00
O213   O     0.68573   0.79071   0.16667   0.00000  Uiso   1.00
O214   O     0.81427   0.70928   0.16666   0.00000  Uiso   1.00
O215   O     0.81427   0.79071   0.16666   0.00000  Uiso   1.00
O216   O     0.68573   0.70928   0.16667   0.00000  Uiso   1.00
O217   O     0.75000   0.79071   0.09613   0.00000  Uiso   1.00
O218   O     0.75000   0.70929   0.23720   0.00000  Uiso   1.00
O219   O     0.75000   0.79071   0.23720   0.00000  Uiso   1.00
O220   O     0.75000   0.70929   0.09613   0.00000  Uiso   1.00
Br221  Br    0.62384   0.79222   0.26471   0.00000  Uiso   1.00
Br222  Br    0.87661   0.70731   0.26453   0.00000  Uiso   1.00
Br223  Br    0.87617   0.79261   0.06880   0.00000  Uiso   1.00
Br224  Br    0.62340   0.70771   0.06864   0.00000  Uiso   1.00
C225   C     0.16507   0.25000   0.49999   0.00000  Uiso   1.00
C226   C     0.33493   0.25000   0.50001   0.00000  Uiso   1.00
C227   C     0.27128   0.10469   0.53644   0.00000  Uiso   1.00
C228   C     0.21635   0.39533   0.47779   0.00000  Uiso   1.00
C229   C     0.22872   0.10469   0.46356   0.00000  Uiso   1.00
C230   C     0.28365   0.39533   0.52221   0.00000  Uiso   1.00
C231   C     0.27140   0.05398   0.53733   0.00000  Uiso   1.00
C232   C     0.21554   0.44604   0.47768   0.00000  Uiso   1.00
C233   C     0.22860   0.05398   0.46267   0.00000  Uiso   1.00
C234   C     0.28446   0.44604   0.52231   0.00000  Uiso   1.00
C235   C     0.24998   0.25000   0.40685   0.00000  Uiso   1.00
C236   C     0.25002   0.25000   0.59315   0.00000  Uiso   1.00
C237   C     0.25000   0.02736   0.50000   0.00000  Uiso   1.00
C238   C     0.25000   0.47267   0.50000   0.00000  Uiso   1.00
C239   C     0.24999   0.24999   0.35517   0.00000  Uiso   1.00
C240   C     0.25001   0.24999   0.64483   0.00000  Uiso   1.00
C241   C     0.04763   0.26784   0.54065   0.00000  Uiso   1.00
C242   C     0.45257   0.23192   0.54058   0.00000  Uiso   1.00
C243   C     0.45238   0.26802   0.45943   0.00000  Uiso   1.00
C244   C     0.04744   0.23210   0.45934   0.00000  Uiso   1.00
C245   C     0.09379   0.26816   0.54078   0.00000  Uiso   1.00
C246   C     0.40641   0.23164   0.54072   0.00000  Uiso   1.00
C247   C     0.40621   0.26833   0.45930   0.00000  Uiso   1.00
C248   C     0.09360   0.23181   0.45920   0.00000  Uiso   1.00
C249   C     0.11692   0.25000   0.49999   0.00000  Uiso   1.00
C250   C     0.38308   0.25000   0.50001   0.00000  Uiso   1.00
C251   C     0.02430   0.24996   0.50000   0.00000  Uiso   1.00
C252   C     0.47570   0.24996   0.50000   0.00000  Uiso   1.00
Cu253  Cu    0.25000   0.29821   0.50000   0.00000  Uiso   1.00
Cu254  Cu    0.25000   0.20178   0.50000   0.00000  Uiso   1.00
H255   H     0.28819   0.12431   0.56524   0.00000  Uiso   1.00
H256   H     0.18973   0.37575   0.46010   0.00000  Uiso   1.00
H257   H     0.21181   0.12431   0.43476   0.00000  Uiso   1.00
H258   H     0.31027   0.37575   0.53990   0.00000  Uiso   1.00
H259   H     0.02993   0.28194   0.57210   0.00000  Uiso   1.00
H260   H     0.47042   0.21767   0.57196   0.00000  Uiso   1.00
H261   H     0.47007   0.28225   0.42804   0.00000  Uiso   1.00
H262   H     0.02959   0.21798   0.42789   0.00000  Uiso   1.00
H263   H     0.28774   0.03604   0.56763   0.00000  Uiso   1.00
H264   H     0.18761   0.46398   0.46070   0.00000  Uiso   1.00
H265   H     0.21226   0.03604   0.43237   0.00000  Uiso   1.00
H266   H     0.31240   0.46398   0.53930   0.00000  Uiso   1.00
N267   N     0.25000   0.12934   0.50000   0.00000  Uiso   1.00
N268   N     0.25000   0.37065   0.50000   0.00000  Uiso   1.00
O269   O     0.18573   0.29071   0.50000   0.00000  Uiso   1.00
O270   O     0.31427   0.20928   0.50000   0.00000  Uiso   1.00
O271   O     0.31427   0.29071   0.50000   0.00000  Uiso   1.00
O272   O     0.18573   0.20928   0.50000   0.00000  Uiso   1.00
O273   O     0.25000   0.29071   0.42946   0.00000  Uiso   1.00
O274   O     0.25000   0.20929   0.57054   0.00000  Uiso   1.00
O275   O     0.25000   0.29071   0.57054   0.00000  Uiso   1.00
O276   O     0.25000   0.20929   0.42946   0.00000  Uiso   1.00
Br277  Br    0.12384   0.29222   0.59804   0.00000  Uiso   1.00
Br278  Br    0.37661   0.20731   0.59786   0.00000  Uiso   1.00
Br279  Br    0.37617   0.29261   0.40213   0.00000  Uiso   1.00
Br280  Br    0.12340   0.20771   0.40197   0.00000  Uiso   1.00
C281   C     0.66507   0.25000   0.49999   0.00000  Uiso   1.00
C282   C     0.83493   0.25000   0.50001   0.00000  Uiso   1.00
C283   C     0.77128   0.10469   0.53644   0.00000  Uiso   1.00
C284   C     0.71635   0.39533   0.47779   0.00000  Uiso   1.00
C285   C     0.72872   0.10469   0.46356   0.00000  Uiso   1.00
C286   C     0.78365   0.39533   0.52221   0.00000  Uiso   1.00
C287   C     0.77140   0.05398   0.53733   0.00000  Uiso   1.00
C288   C     0.71554   0.44604   0.47768   0.00000  Uiso   1.00
C289   C     0.72860   0.05398   0.46267   0.00000  Uiso   1.00
C290   C     0.78446   0.44604   0.52231   0.00000  Uiso   1.00
C291   C     0.74998   0.25000   0.40685   0.00000  Uiso   1.00
C292   C     0.75002   0.25000   0.59315   0.00000  Uiso   1.00
C293   C     0.75000   0.02736   0.50000   0.00000  Uiso   1.00
C294   C     0.75000   0.47267   0.50000   0.00000  Uiso   1.00
C295   C     0.74999   0.24999   0.35517   0.00000  Uiso   1.00
C296   C     0.75001   0.24999   0.64483   0.00000  Uiso   1.00
C297   C     0.54763   0.26784   0.54065   0.00000  Uiso   1.00
C298   C     0.95257   0.23192   0.54058   0.00000  Uiso   1.00
C299   C     0.95238   0.26802   0.45943   0.00000  Uiso   1.00
C300   C     0.54744   0.23210   0.45934   0.00000  Uiso   1.00
C301   C     0.59379   0.26816   0.54078   0.00000  Uiso   1.00
C302   C     0.90641   0.23164   0.54072   0.00000  Uiso   1.00
C303   C     0.90621   0.26833   0.45930   0.00000  Uiso   1.00
C304   C     0.59360   0.23181   0.45920   0.00000  Uiso   1.00
C305   C     0.61692   0.25000   0.49999   0.00000  Uiso   1.00
C306   C     0.88308   0.25000   0.50001   0.00000  Uiso   1.00
C307   C     0.52430   0.24996   0.50000   0.00000  Uiso   1.00
C308   C     0.97570   0.24996   0.50000   0.00000  Uiso   1.00
Cu309  Cu    0.75000   0.29821   0.50000   0.00000  Uiso   1.00
Cu310  Cu    0.75000   0.20178   0.50000   0.00000  Uiso   1.00
H311   H     0.78819   0.12431   0.56524   0.00000  Uiso   1.00
H312   H     0.68973   0.37575   0.46010   0.00000  Uiso   1.00
H313   H     0.71181   0.12431   0.43476   0.00000  Uiso   1.00
H314   H     0.81027   0.37575   0.53990   0.00000  Uiso   1.00
H315   H     0.52993   0.28194   0.57210   0.00000  Uiso   1.00
H316   H     0.97042   0.21767   0.57196   0.00000  Uiso   1.00
H317   H     0.97007   0.28225   0.42804   0.00000  Uiso   1.00
H318   H     0.52959   0.21798   0.42789   0.00000  Uiso   1.00
H319   H     0.78774   0.03604   0.56763   0.00000  Uiso   1.00
H320   H     0.68761   0.46398   0.46070   0.00000  Uiso   1.00
H321   H     0.71226   0.03604   0.43237   0.00000  Uiso   1.00
H322   H     0.81240   0.46398   0.53930   0.00000  Uiso   1.00
N323   N     0.75000   0.12934   0.50000   0.00000  Uiso   1.00
N324   N     0.75000   0.37065   0.50000   0.00000  Uiso   1.00
O325   O     0.68573   0.29071   0.50000   0.00000  Uiso   1.00
O326   O     0.81427   0.20928   0.50000   0.00000  Uiso   1.00
O327   O     0.81427   0.29071   0.50000   0.00000  Uiso   1.00
O328   O     0.68573   0.20928   0.50000   0.00000  Uiso   1.00
O329   O     0.75000   0.29071   0.42946   0.00000  Uiso   1.00
O330   O     0.75000   0.20929   0.57054   0.00000  Uiso   1.00
O331   O     0.75000   0.29071   0.57054   0.00000  Uiso   1.00
O332   O     0.75000   0.20929   0.42946   0.00000  Uiso   1.00
Br333  Br    0.62384   0.29222   0.59804   0.00000  Uiso   1.00
Br334  Br    0.87661   0.20731   0.59786   0.00000  Uiso   1.00
Br335  Br    0.87617   0.29261   0.40213   0.00000  Uiso   1.00
Br336  Br    0.62340   0.20771   0.40197   0.00000  Uiso   1.00
C337   C     0.16507   0.75000   0.49999   0.00000  Uiso   1.00
C338   C     0.33493   0.75000   0.50001   0.00000  Uiso   1.00
C339   C     0.27128   0.60469   0.53644   0.00000  Uiso   1.00
C340   C     0.21635   0.89533   0.47779   0.00000  Uiso   1.00
C341   C     0.22872   0.60469   0.46356   0.00000  Uiso   1.00
C342   C     0.28365   0.89533   0.52221   0.00000  Uiso   1.00
C343   C     0.27140   0.55398   0.53733   0.00000  Uiso   1.00
C344   C     0.21554   0.94604   0.47768   0.00000  Uiso   1.00
C345   C     0.22860   0.55398   0.46267   0.00000  Uiso   1.00
C346   C     0.28446   0.94604   0.52231   0.00000  Uiso   1.00
C347   C     0.24998   0.75000   0.40685   0.00000  Uiso   1.00
C348   C     0.25002   0.75000   0.59315   0.00000  Uiso   1.00
C349   C     0.25000   0.52736   0.50000   0.00000  Uiso   1.00
C350   C     0.25000   0.97267   0.50000   0.00000  Uiso   1.00
C351   C     0.24999   0.74999   0.35517   0.00000  Uiso   1.00
C352   C     0.25001   0.74999   0.64483   0.00000  Uiso   1.00
C353   C     0.04763   0.76784   0.54065   0.00000  Uiso   1.00
C354   C     0.45257   0.73192   0.54058   0.00000  Uiso   1.00
C355   C     0.45238   0.76802   0.45943   0.00000  Uiso   1.00
C356   C     0.04744   0.73210   0.45934   0.00000  Uiso   1.00
C357   C     0.09379   0.76816   0.54078   0.00000  Uiso   1.00
C358   C     0.40641   0.73164   0.54072   0.00000  Uiso   1.00
C359   C     0.40621   0.76833   0.45930   0.00000  Uiso   1.00
C360   C     0.09360   0.73181   0.45920   0.00000  Uiso   1.00
C361   C     0.11692   0.75000   0.49999   0.00000  Uiso   1.00
C362   C     0.38308   0.75000   0.50001   0.00000  Uiso   1.00
C363   C     0.02430   0.74996   0.50000   0.00000  Uiso   1.00
C364   C     0.47570   0.74996   0.50000   0.00000  Uiso   1.00
Cu365  Cu    0.25000   0.79821   0.50000   0.00000  Uiso   1.00
Cu366  Cu    0.25000   0.70178   0.50000   0.00000  Uiso   1.00
H367   H     0.28819   0.62431   0.56524   0.00000  Uiso   1.00
H368   H     0.18973   0.87575   0.46010   0.00000  Uiso   1.00
H369   H     0.21181   0.62431   0.43476   0.00000  Uiso   1.00
H370   H     0.31027   0.87575   0.53990   0.00000  Uiso   1.00
H371   H     0.02993   0.78194   0.57210   0.00000  Uiso   1.00
H372   H     0.47042   0.71767   0.57196   0.00000  Uiso   1.00
H373   H     0.47007   0.78225   0.42804   0.00000  Uiso   1.00
H374   H     0.02959   0.71798   0.42789   0.00000  Uiso   1.00
H375   H     0.28774   0.53604   0.56763   0.00000  Uiso   1.00
H376   H     0.18761   0.96398   0.46070   0.00000  Uiso   1.00
H377   H     0.21226   0.53604   0.43237   0.00000  Uiso   1.00
H378   H     0.31240   0.96398   0.53930   0.00000  Uiso   1.00
N379   N     0.25000   0.62934   0.50000   0.00000  Uiso   1.00
N380   N     0.25000   0.87065   0.50000   0.00000  Uiso   1.00
O381   O     0.18573   0.79071   0.50000   0.00000  Uiso   1.00
O382   O     0.31427   0.70928   0.50000   0.00000  Uiso   1.00
O383   O     0.31427   0.79071   0.50000   0.00000  Uiso   1.00
O384   O     0.18573   0.70928   0.50000   0.00000  Uiso   1.00
O385   O     0.25000   0.79071   0.42946   0.00000  Uiso   1.00
O386   O     0.25000   0.70929   0.57054   0.00000  Uiso   1.00
O387   O     0.25000   0.79071   0.57054   0.00000  Uiso   1.00
O388   O     0.25000   0.70929   0.42946   0.00000  Uiso   1.00
Br389  Br    0.12384   0.79222   0.59804   0.00000  Uiso   1.00
Br390  Br    0.37661   0.70731   0.59786   0.00000  Uiso   1.00
Br391  Br    0.37617   0.79261   0.40213   0.00000  Uiso   1.00
Br392  Br    0.12340   0.70771   0.40197   0.00000  Uiso   1.00
C393   C     0.66507   0.75000   0.49999   0.00000  Uiso   1.00
C394   C     0.83493   0.75000   0.50001   0.00000  Uiso   1.00
C395   C     0.77128   0.60469   0.53644   0.00000  Uiso   1.00
C396   C     0.71635   0.89533   0.47779   0.00000  Uiso   1.00
C397   C     0.72872   0.60469   0.46356   0.00000  Uiso   1.00
C398   C     0.78365   0.89533   0.52221   0.00000  Uiso   1.00
C399   C     0.77140   0.55398   0.53733   0.00000  Uiso   1.00
C400   C     0.71554   0.94604   0.47768   0.00000  Uiso   1.00
C401   C     0.72860   0.55398   0.46267   0.00000  Uiso   1.00
C402   C     0.78446   0.94604   0.52231   0.00000  Uiso   1.00
C403   C     0.74998   0.75000   0.40685   0.00000  Uiso   1.00
C404   C     0.75002   0.75000   0.59315   0.00000  Uiso   1.00
C405   C     0.75000   0.52736   0.50000   0.00000  Uiso   1.00
C406   C     0.75000   0.97267   0.50000   0.00000  Uiso   1.00
C407   C     0.74999   0.74999   0.35517   0.00000  Uiso   1.00
C408   C     0.75001   0.74999   0.64483   0.00000  Uiso   1.00
C409   C     0.54763   0.76784   0.54065   0.00000  Uiso   1.00
C410   C     0.95257   0.73192   0.54058   0.00000  Uiso   1.00
C411   C     0.95238   0.76802   0.45943   0.00000  Uiso   1.00
C412   C     0.54744   0.73210   0.45934   0.00000  Uiso   1.00
C413   C     0.59379   0.76816   0.54078   0.00000  Uiso   1.00
C414   C     0.90641   0.73164   0.54072   0.00000  Uiso   1.00
C415   C     0.90621   0.76833   0.45930   0.00000  Uiso   1.00
C416   C     0.59360   0.73181   0.45920   0.00000  Uiso   1.00
C417   C     0.61692   0.75000   0.49999   0.00000  Uiso   1.00
C418   C     0.88308   0.75000   0.50001   0.00000  Uiso   1.00
C419   C     0.52430   0.74996   0.50000   0.00000  Uiso   1.00
C420   C     0.97570   0.74996   0.50000   0.00000  Uiso   1.00
Cu421  Cu    0.75000   0.79821   0.50000   0.00000  Uiso   1.00
Cu422  Cu    0.75000   0.70178   0.50000   0.00000  Uiso   1.00
H423   H     0.78819   0.62431   0.56524   0.00000  Uiso   1.00
H424   H     0.68973   0.87575   0.46010   0.00000  Uiso   1.00
H425   H     0.71181   0.62431   0.43476   0.00000  Uiso   1.00
H426   H     0.81027   0.87575   0.53990   0.00000  Uiso   1.00
H427   H     0.52993   0.78194   0.57210   0.00000  Uiso   1.00
H428   H     0.97042   0.71767   0.57196   0.00000  Uiso   1.00
H429   H     0.97007   0.78225   0.42804   0.00000  Uiso   1.00
H430   H     0.52959   0.71798   0.42789   0.00000  Uiso   1.00
H431   H     0.78774   0.53604   0.56763   0.00000  Uiso   1.00
H432   H     0.68761   0.96398   0.46070   0.00000  Uiso   1.00
H433   H     0.71226   0.53604   0.43237   0.00000  Uiso   1.00
H434   H     0.81240   0.96398   0.53930   0.00000  Uiso   1.00
N435   N     0.75000   0.62934   0.50000   0.00000  Uiso   1.00
N436   N     0.75000   0.87065   0.50000   0.00000  Uiso   1.00
O437   O     0.68573   0.79071   0.50000   0.00000  Uiso   1.00
O438   O     0.81427   0.70928   0.50000   0.00000  Uiso   1.00
O439   O     0.81427   0.79071   0.50000   0.00000  Uiso   1.00
O440   O     0.68573   0.70928   0.50000   0.00000  Uiso   1.00
O441   O     0.75000   0.79071   0.42946   0.00000  Uiso   1.00
O442   O     0.75000   0.70929   0.57054   0.00000  Uiso   1.00
O443   O     0.75000   0.79071   0.57054   0.00000  Uiso   1.00
O444   O     0.75000   0.70929   0.42946   0.00000  Uiso   1.00
Br445  Br    0.62384   0.79222   0.59804   0.00000  Uiso   1.00
Br446  Br    0.87661   0.70731   0.59786   0.00000  Uiso   1.00
Br447  Br    0.87617   0.79261   0.40213   0.00000  Uiso   1.00
Br448  Br    0.62340   0.70771   0.40197   0.00000  Uiso   1.00
C449   C     0.16507   0.25000   0.83332   0.00000  Uiso   1.00
C450   C     0.33493   0.25000   0.83335   0.00000  Uiso   1.00
C451   C     0.27128   0.10469   0.86977   0.00000  Uiso   1.00
C452   C     0.21635   0.39533   0.81112   0.00000  Uiso   1.00
C453   C     0.22872   0.10469   0.79690   0.00000  Uiso   1.00
C454   C     0.28365   0.39533   0.85555   0.00000  Uiso   1.00
C455   C     0.27140   0.05398   0.87066   0.00000  Uiso   1.00
C456   C     0.21554   0.44604   0.81102   0.00000  Uiso   1.00
C457   C     0.22860   0.05398   0.79600   0.00000  Uiso   1.00
C458   C     0.28446   0.44604   0.85565   0.00000  Uiso   1.00
C459   C     0.24998   0.25000   0.74019   0.00000  Uiso   1.00
C460   C     0.25002   0.25000   0.92648   0.00000  Uiso   1.00
C461   C     0.25000   0.02736   0.83333   0.00000  Uiso   1.00
C462   C     0.25000   0.47267   0.83333   0.00000  Uiso   1.00
C463   C     0.24999   0.24999   0.68851   0.00000  Uiso   1.00
C464   C     0.25001   0.24999   0.97816   0.00000  Uiso   1.00
C465   C     0.04763   0.26784   0.87398   0.00000  Uiso   1.00
C466   C     0.45257   0.23192   0.87391   0.00000  Uiso   1.00
C467   C     0.45238   0.26802   0.79276   0.00000  Uiso   1.00
C468   C     0.04744   0.23210   0.79267   0.00000  Uiso   1.00
C469   C     0.09379   0.26816   0.87411   0.00000  Uiso   1.00
C470   C     0.40641   0.23164   0.87405   0.00000  Uiso   1.00
C471   C     0.40621   0.26833   0.79264   0.00000  Uiso   1.00
C472   C     0.09360   0.23181   0.79254   0.00000  Uiso   1.00
C473   C     0.11692   0.25000   0.83332   0.00000  Uiso   1.00
C474   C     0.38308   0.25000   0.83335   0.00000  Uiso   1.00
C475   C     0.02430   0.24996   0.83333   0.00000  Uiso   1.00
C476   C     0.47570   0.24996   0.83333   0.00000  Uiso   1.00
Cu477  Cu    0.25000   0.29821   0.83333   0.00000  Uiso   1.00
Cu478  Cu    0.25000   0.20178   0.83333   0.00000  Uiso   1.00
H479   H     0.28819   0.12431   0.89858   0.00000  Uiso   1.00
H480   H     0.18973   0.37575   0.79343   0.00000  Uiso   1.00
H481   H     0.21181   0.12431   0.76809   0.00000  Uiso   1.00
H482   H     0.31027   0.37575   0.87324   0.00000  Uiso   1.00
H483   H     0.02993   0.28194   0.90543   0.00000  Uiso   1.00
H484   H     0.47042   0.21767   0.90530   0.00000  Uiso   1.00
H485   H     0.47007   0.28225   0.76137   0.00000  Uiso   1.00
H486   H     0.02959   0.21798   0.76123   0.00000  Uiso   1.00
H487   H     0.28774   0.03604   0.90096   0.00000  Uiso   1.00
H488   H     0.18761   0.46398   0.79403   0.00000  Uiso   1.00
H489   H     0.21226   0.03604   0.76570   0.00000  Uiso   1.00
H490   H     0.31240   0.46398   0.87264   0.00000  Uiso   1.00
N491   N     0.25000   0.12934   0.83333   0.00000  Uiso   1.00
N492   N     0.25000   0.37065   0.83333   0.00000  Uiso   1.00
O493   O     0.18573   0.29071   0.83334   0.00000  Uiso   1.00
O494   O     0.31427   0.20928   0.83333   0.00000  Uiso   1.00
O495   O     0.31427   0.29071   0.83333   0.00000  Uiso   1.00
O496   O     0.18573   0.20928   0.83334   0.00000  Uiso   1.00
O497   O     0.25000   0.29071   0.76280   0.00000  Uiso   1.00
O498   O     0.25000   0.20929   0.90387   0.00000  Uiso   1.00
O499   O     0.25000   0.29071   0.90387   0.00000  Uiso   1.00
O500   O     0.25000   0.20929   0.76280   0.00000  Uiso   1.00
Br501  Br    0.12384   0.29222   0.93137   0.00000  Uiso   1.00
Br502  Br    0.37661   0.20731   0.93119   0.00000  Uiso   1.00
Br503  Br    0.37617   0.29261   0.73547   0.00000  Uiso   1.00
Br504  Br    0.12340   0.20771   0.73530   0.00000  Uiso   1.00
C505   C     0.66507   0.25000   0.83332   0.00000  Uiso   1.00
C506   C     0.83493   0.25000   0.83335   0.00000  Uiso   1.00
C507   C     0.77128   0.10469   0.86977   0.00000  Uiso   1.00
C508   C     0.71635   0.39533   0.81112   0.00000  Uiso   1.00
C509   C     0.72872   0.10469   0.79690   0.00000  Uiso   1.00
C510   C     0.78365   0.39533   0.85555   0.00000  Uiso   1.00
C511   C     0.77140   0.05398   0.87066   0.00000  Uiso   1.00
C512   C     0.71554   0.44604   0.81102   0.00000  Uiso   1.00
C513   C     0.72860   0.05398   0.79600   0.00000  Uiso   1.00
C514   C     0.78446   0.44604   0.85565   0.00000  Uiso   1.00
C515   C     0.74998   0.25000   0.74019   0.00000  Uiso   1.00
C516   C     0.75002   0.25000   0.92648   0.00000  Uiso   1.00
C517   C     0.75000   0.02736   0.83333   0.00000  Uiso   1.00
C518   C     0.75000   0.47267   0.83333   0.00000  Uiso   1.00
C519   C     0.74999   0.24999   0.68851   0.00000  Uiso   1.00
C520   C     0.75001   0.24999   0.97816   0.00000  Uiso   1.00
C521   C     0.54763   0.26784   0.87398   0.00000  Uiso   1.00
C522   C     0.95257   0.23192   0.87391   0.00000  Uiso   1.00
C523   C     0.95238   0.26802   0.79276   0.00000  Uiso   1.00
C524   C     0.54744   0.23210   0.79267   0.00000  Uiso   1.00
C525   C     0.59379   0.26816   0.87411   0.00000  Uiso   1.00
C526   C     0.90641   0.23164   0.87405   0.00000  Uiso   1.00
C527   C     0.90621   0.26833   0.79264   0.00000  Uiso   1.00
C528   C     0.59360   0.23181   0.79254   0.00000  Uiso   1.00
C529   C     0.61692   0.25000   0.83332   0.00000  Uiso   1.00
C530   C     0.88308   0.25000   0.83335   0.00000  Uiso   1.00
C531   C     0.52430   0.24996   0.83333   0.00000  Uiso   1.00
C532   C     0.97570   0.24996   0.83333   0.00000  Uiso   1.00
Cu533  Cu    0.75000   0.29821   0.83333   0.00000  Uiso   1.00
Cu534  Cu    0.75000   0.20178   0.83333   0.00000  Uiso   1.00
H535   H     0.78819   0.12431   0.89858   0.00000  Uiso   1.00
H536   H     0.68973   0.37575   0.79343   0.00000  Uiso   1.00
H537   H     0.71181   0.12431   0.76809   0.00000  Uiso   1.00
H538   H     0.81027   0.37575   0.87324   0.00000  Uiso   1.00
H539   H     0.52993   0.28194   0.90543   0.00000  Uiso   1.00
H540   H     0.97042   0.21767   0.90530   0.00000  Uiso   1.00
H541   H     0.97007   0.28225   0.76137   0.00000  Uiso   1.00
H542   H     0.52959   0.21798   0.76123   0.00000  Uiso   1.00
H543   H     0.78774   0.03604   0.90096   0.00000  Uiso   1.00
H544   H     0.68761   0.46398   0.79403   0.00000  Uiso   1.00
H545   H     0.71226   0.03604   0.76570   0.00000  Uiso   1.00
H546   H     0.81240   0.46398   0.87264   0.00000  Uiso   1.00
N547   N     0.75000   0.12934   0.83333   0.00000  Uiso   1.00
N548   N     0.75000   0.37065   0.83333   0.00000  Uiso   1.00
O549   O     0.68573   0.29071   0.83334   0.00000  Uiso   1.00
O550   O     0.81427   0.20928   0.83333   0.00000  Uiso   1.00
O551   O     0.81427   0.29071   0.83333   0.00000  Uiso   1.00
O552   O     0.68573   0.20928   0.83334   0.00000  Uiso   1.00
O553   O     0.75000   0.29071   0.76280   0.00000  Uiso   1.00
O554   O     0.75000   0.20929   0.90387   0.00000  Uiso   1.00
O555   O     0.75000   0.29071   0.90387   0.00000  Uiso   1.00
O556   O     0.75000   0.20929   0.76280   0.00000  Uiso   1.00
Br557  Br    0.62384   0.29222   0.93137   0.00000  Uiso   1.00
Br558  Br    0.87661   0.20731   0.93119   0.00000  Uiso   1.00
Br559  Br    0.87617   0.29261   0.73547   0.00000  Uiso   1.00
Br560  Br    0.62340   0.20771   0.73530   0.00000  Uiso   1.00
C561   C     0.16507   0.75000   0.83332   0.00000  Uiso   1.00
C562   C     0.33493   0.75000   0.83335   0.00000  Uiso   1.00
C563   C     0.27128   0.60469   0.86977   0.00000  Uiso   1.00
C564   C     0.21635   0.89533   0.81112   0.00000  Uiso   1.00
C565   C     0.22872   0.60469   0.79690   0.00000  Uiso   1.00
C566   C     0.28365   0.89533   0.85555   0.00000  Uiso   1.00
C567   C     0.27140   0.55398   0.87066   0.00000  Uiso   1.00
C568   C     0.21554   0.94604   0.81102   0.00000  Uiso   1.00
C569   C     0.22860   0.55398   0.79600   0.00000  Uiso   1.00
C570   C     0.28446   0.94604   0.85565   0.00000  Uiso   1.00
C571   C     0.24998   0.75000   0.74019   0.00000  Uiso   1.00
C572   C     0.25002   0.75000   0.92648   0.00000  Uiso   1.00
C573   C     0.25000   0.52736   0.83333   0.00000  Uiso   1.00
C574   C     0.25000   0.97267   0.83333   0.00000  Uiso   1.00
C575   C     0.24999   0.74999   0.68851   0.00000  Uiso   1.00
C576   C     0.25001   0.74999   0.97816   0.00000  Uiso   1.00
C577   C     0.04763   0.76784   0.87398   0.00000  Uiso   1.00
C578   C     0.45257   0.73192   0.87391   0.00000  Uiso   1.00
C579   C     0.45238   0.76802   0.79276   0.00000  Uiso   1.00
C580   C     0.04744   0.73210   0.79267   0.00000  Uiso   1.00
C581   C     0.09379   0.76816   0.87411   0.00000  Uiso   1.00
C582   C     0.40641   0.73164   0.87405   0.00000  Uiso   1.00
C583   C     0.40621   0.76833   0.79264   0.00000  Uiso   1.00
C584   C     0.09360   0.73181   0.79254   0.00000  Uiso   1.00
C585   C     0.11692   0.75000   0.83332   0.00000  Uiso   1.00
C586   C     0.38308   0.75000   0.83335   0.00000  Uiso   1.00
C587   C     0.02430   0.74996   0.83333   0.00000  Uiso   1.00
C588   C     0.47570   0.74996   0.83333   0.00000  Uiso   1.00
Cu589  Cu    0.25000   0.79821   0.83333   0.00000  Uiso   1.00
Cu590  Cu    0.25000   0.70178   0.83333   0.00000  Uiso   1.00
H591   H     0.28819   0.62431   0.89858   0.00000  Uiso   1.00
H592   H     0.18973   0.87575   0.79343   0.00000  Uiso   1.00
H593   H     0.21181   0.62431   0.76809   0.00000  Uiso   1.00
H594   H     0.31027   0.87575   0.87324   0.00000  Uiso   1.00
H595   H     0.02993   0.78194   0.90543   0.00000  Uiso   1.00
H596   H     0.47042   0.71767   0.90530   0.00000  Uiso   1.00
H597   H     0.47007   0.78225   0.76137   0.00000  Uiso   1.00
H598   H     0.02959   0.71798   0.76123   0.00000  Uiso   1.00
H599   H     0.28774   0.53604   0.90096   0.00000  Uiso   1.00
H600   H     0.18761   0.96398   0.79403   0.00000  Uiso   1.00
H601   H     0.21226   0.53604   0.76570   0.00000  Uiso   1.00
H602   H     0.31240   0.96398   0.87264   0.00000  Uiso   1.00
N603   N     0.25000   0.62934   0.83333   0.00000  Uiso   1.00
N604   N     0.25000   0.87065   0.83333   0.00000  Uiso   1.00
O605   O     0.18573   0.79071   0.83334   0.00000  Uiso   1.00
O606   O     0.31427   0.70928   0.83333   0.00000  Uiso   1.00
O607   O     0.31427   0.79071   0.83333   0.00000  Uiso   1.00
O608   O     0.18573   0.70928   0.83334   0.00000  Uiso   1.00
O609   O     0.25000   0.79071   0.76280   0.00000  Uiso   1.00
O610   O     0.25000   0.70929   0.90387   0.00000  Uiso   1.00
O611   O     0.25000   0.79071   0.90387   0.00000  Uiso   1.00
O612   O     0.25000   0.70929   0.76280   0.00000  Uiso   1.00
Br613  Br    0.12384   0.79222   0.93137   0.00000  Uiso   1.00
Br614  Br    0.37661   0.70731   0.93119   0.00000  Uiso   1.00
Br615  Br    0.37617   0.79261   0.73547   0.00000  Uiso   1.00
Br616  Br    0.12340   0.70771   0.73530   0.00000  Uiso   1.00
C617   C     0.66507   0.75000   0.83332   0.00000  Uiso   1.00
C618   C     0.83493   0.75000   0.83335   0.00000  Uiso   1.00
C619   C     0.77128   0.60469   0.86977   0.00000  Uiso   1.00
C620   C     0.71635   0.89533   0.81112   0.00000  Uiso   1.00
C621   C     0.72872   0.60469   0.79690   0.00000  Uiso   1.00
C622   C     0.78365   0.89533   0.85555   0.00000  Uiso   1.00
C623   C     0.77140   0.55398   0.87066   0.00000  Uiso   1.00
C624   C     0.71554   0.94604   0.81102   0.00000  Uiso   1.00
C625   C     0.72860   0.55398   0.79600   0.00000  Uiso   1.00
C626   C     0.78446   0.94604   0.85565   0.00000  Uiso   1.00
C627   C     0.74998   0.75000   0.74019   0.00000  Uiso   1.00
C628   C     0.75002   0.75000   0.92648   0.00000  Uiso   1.00
C629   C     0.75000   0.52736   0.83333   0.00000  Uiso   1.00
C630   C     0.75000   0.97267   0.83333   0.00000  Uiso   1.00
C631   C     0.74999   0.74999   0.68851   0.00000  Uiso   1.00
C632   C     0.75001   0.74999   0.97816   0.00000  Uiso   1.00
C633   C     0.54763   0.76784   0.87398   0.00000  Uiso   1.00
C634   C     0.95257   0.73192   0.87391   0.00000  Uiso   1.00
C635   C     0.95238   0.76802   0.79276   0.00000  Uiso   1.00
C636   C     0.54744   0.73210   0.79267   0.00000  Uiso   1.00
C637   C     0.59379   0.76816   0.87411   0.00000  Uiso   1.00
C638   C     0.90641   0.73164   0.87405   0.00000  Uiso   1.00
C639   C     0.90621   0.76833   0.79264   0.00000  Uiso   1.00
C640   C     0.59360   0.73181   0.79254   0.00000  Uiso   1.00
C641   C     0.61692   0.75000   0.83332   0.00000  Uiso   1.00
C642   C     0.88308   0.75000   0.83335   0.00000  Uiso   1.00
C643   C     0.52430   0.74996   0.83333   0.00000  Uiso   1.00
C644   C     0.97570   0.74996   0.83333   0.00000  Uiso   1.00
Cu645  Cu    0.75000   0.79821   0.83333   0.00000  Uiso   1.00
Cu646  Cu    0.75000   0.70178   0.83333   0.00000  Uiso   1.00
H647   H     0.78819   0.62431   0.89858   0.00000  Uiso   1.00
H648   H     0.68973   0.87575   0.79343   0.00000  Uiso   1.00
H649   H     0.71181   0.62431   0.76809   0.00000  Uiso   1.00
H650   H     0.81027   0.87575   0.87324   0.00000  Uiso   1.00
H651   H     0.52993   0.78194   0.90543   0.00000  Uiso   1.00
H652   H     0.97042   0.71767   0.90530   0.00000  Uiso   1.00
H653   H     0.97007   0.78225   0.76137   0.00000  Uiso   1.00
H654   H     0.52959   0.71798   0.76123   0.00000  Uiso   1.00
H655   H     0.78774   0.53604   0.90096   0.00000  Uiso   1.00
H656   H     0.68761   0.96398   0.79403   0.00000  Uiso   1.00
H657   H     0.71226   0.53604   0.76570   0.00000  Uiso   1.00
H658   H     0.81240   0.96398   0.87264   0.00000  Uiso   1.00
N659   N     0.75000   0.62934   0.83333   0.00000  Uiso   1.00
N660   N     0.75000   0.87065   0.83333   0.00000  Uiso   1.00
O661   O     0.68573   0.79071   0.83334   0.00000  Uiso   1.00
O662   O     0.81427   0.70928   0.83333   0.00000  Uiso   1.00
O663   O     0.81427   0.79071   0.83333   0.00000  Uiso   1.00
O664   O     0.68573   0.70928   0.83334   0.00000  Uiso   1.00
O665   O     0.75000   0.79071   0.76280   0.00000  Uiso   1.00
O666   O     0.75000   0.70929   0.90387   0.00000  Uiso   1.00
O667   O     0.75000   0.79071   0.90387   0.00000  Uiso   1.00
O668   O     0.75000   0.70929   0.76280   0.00000  Uiso   1.00
Br669  Br    0.62384   0.79222   0.93137   0.00000  Uiso   1.00
Br670  Br    0.87661   0.70731   0.93119   0.00000  Uiso   1.00
Br671  Br    0.87617   0.79261   0.73547   0.00000  Uiso   1.00
Br672  Br    0.62340   0.70771   0.73530   0.00000  Uiso   1.00
loop_
_geom_bond_atom_site_label_1
_geom_bond_atom_site_label_2
_geom_bond_distance
_geom_bond_site_symmetry_2
_ccdc_geom_bond_type
C1     C25     1.452   .     S
C1     O48     1.290   .     A
C1     O45     1.290   .     A
C2     O47     1.290   .     A
C2     C26     1.452   .     S
C2     O46     1.290   .     A
C3     N43     1.364   .     A
C3     H31     1.081   .     S
C3     C7      1.408   .     A
C4     C8      1.408   .     A
C4     H32     1.081   .     S
C4     N44     1.364   .     A
C5     N43     1.364   .     A
C5     C9      1.408   .     A
C5     H33     1.081   .     S
C6     C10     1.408   .     A
C6     N44     1.364   .     A
C6     H34     1.081   .     S
C7     H39     1.081   .     S
C7     C13     1.411   .     A
C8     C14     1.411   .     A
C8     H40     1.081   .     S
C9     H41     1.081   .     S
C9     C13     1.411   .     A
C10    H42     1.081   .     S
C10    C14     1.411   .     A
C11    O49     1.287   .     A
C11    C15     1.407   .     S
C11    O52     1.287   .     A
C12    C16     1.407   .     S
C12    O51     1.287   .     A
C12    O50     1.287   .     A
C13    C126    1.518   1_545 S
C14    C125    1.518   .     S
C15    C464    1.189   1_554 S
C16    C239    1.189   .     S
C17    C27     1.401   .     A
C17    C21     1.392   .     A
C17    H35     1.083   .     S
C18    C28     1.401   .     A
C18    C22     1.392   .     A
C18    H36     1.083   .     S
C19    C28     1.401   .     A
C19    H37     1.083   .     S
C19    C23     1.392   .     A
C20    C27     1.401   .     A
C20    H38     1.083   .     S
C20    C24     1.392   .     A
C21    Br53    1.921   .     S
C21    C25     1.406   .     A
C22    Br54    1.921   .     S
C22    C26     1.407   .     A
C23    Br55    1.921   .     S
C23    C26     1.407   .     A
C24    Br56    1.921   .     S
C24    C25     1.406   .     A
C27    C84     1.465   1_455 S
C28    C83     1.465   .     S
Cu29   Cu30    2.676   .     S
Cu29   O49     1.932   .     S
Cu29   O47     1.949   .     S
Cu29   O51     1.932   .     S
Cu29   N44     2.011   .     S
Cu29   O45     1.949   .     S
Cu30   O52     1.932   .     S
Cu30   O48     1.949   .     S
Cu30   O50     1.932   .     S
Cu30   N43     2.011   .     S
Cu30   O46     1.949   .     S
C57    C81     1.452   .     S
C57    O104    1.290   .     A
C57    O101    1.290   .     A
C58    O103    1.290   .     A
C58    C82     1.452   .     S
C58    O102    1.290   .     A
C59    N99     1.364   .     A
C59    H87     1.081   .     S
C59    C63     1.408   .     A
C60    C64     1.408   .     A
C60    H88     1.081   .     S
C60    N100    1.364   .     A
C61    N99     1.364   .     A
C61    C65     1.408   .     A
C61    H89     1.081   .     S
C62    C66     1.408   .     A
C62    N100    1.364   .     A
C62    H90     1.081   .     S
C63    H95     1.081   .     S
C63    C69     1.411   .     A
C64    C70     1.411   .     A
C64    H96     1.081   .     S
C65    H97     1.081   .     S
C65    C69     1.411   .     A
C66    H98     1.081   .     S
C66    C70     1.411   .     A
C67    O105    1.287   .     A
C67    C71     1.407   .     S
C67    O108    1.287   .     A
C68    C72     1.407   .     S
C68    O107    1.287   .     A
C68    O106    1.287   .     A
C69    C182    1.518   1_545 S
C70    C181    1.518   .     S
C71    C520    1.189   1_554 S
C72    C295    1.189   .     S
C73    C83     1.401   .     A
C73    C77     1.392   .     A
C73    H91     1.083   .     S
C74    C84     1.401   .     A
C74    C78     1.392   .     A
C74    H92     1.083   .     S
C75    C84     1.401   .     A
C75    H93     1.083   .     S
C75    C79     1.392   .     A
C76    C83     1.401   .     A
C76    H94     1.083   .     S
C76    C80     1.392   .     A
C77    Br109   1.921   .     S
C77    C81     1.406   .     A
C78    Br110   1.921   .     S
C78    C82     1.407   .     A
C79    Br111   1.921   .     S
C79    C82     1.407   .     A
C80    Br112   1.921   .     S
C80    C81     1.406   .     A
C84    C27     1.465   1_655 S
Cu85   Cu86    2.676   .     S
Cu85   O105    1.932   .     S
Cu85   O103    1.949   .     S
Cu85   O107    1.932   .     S
Cu85   N100    2.011   .     S
Cu85   O101    1.949   .     S
Cu86   O108    1.932   .     S
Cu86   O104    1.949   .     S
Cu86   O106    1.932   .     S
Cu86   N99     2.011   .     S
Cu86   O102    1.949   .     S
C113   C137    1.452   .     S
C113   O160    1.290   .     A
C113   O157    1.290   .     A
C114   O159    1.290   .     A
C114   C138    1.452   .     S
C114   O158    1.290   .     A
C115   N155    1.364   .     A
C115   H143    1.081   .     S
C115   C119    1.408   .     A
C116   C120    1.408   .     A
C116   H144    1.081   .     S
C116   N156    1.364   .     A
C117   N155    1.364   .     A
C117   C121    1.408   .     A
C117   H145    1.081   .     S
C118   C122    1.408   .     A
C118   N156    1.364   .     A
C118   H146    1.081   .     S
C119   H151    1.081   .     S
C119   C125    1.411   .     A
C120   C126    1.411   .     A
C120   H152    1.081   .     S
C121   H153    1.081   .     S
C121   C125    1.411   .     A
C122   H154    1.081   .     S
C122   C126    1.411   .     A
C123   O161    1.287   .     A
C123   C127    1.407   .     S
C123   O164    1.287   .     A
C124   C128    1.407   .     S
C124   O163    1.287   .     A
C124   O162    1.287   .     A
C126   C13     1.518   1_565 S
C127   C576    1.189   1_554 S
C128   C351    1.189   .     S
C129   C139    1.401   .     A
C129   C133    1.392   .     A
C129   H147    1.083   .     S
C130   C140    1.401   .     A
C130   C134    1.392   .     A
C130   H148    1.083   .     S
C131   C140    1.401   .     A
C131   H149    1.083   .     S
C131   C135    1.392   .     A
C132   C139    1.401   .     A
C132   H150    1.083   .     S
C132   C136    1.392   .     A
C133   Br165   1.921   .     S
C133   C137    1.406   .     A
C134   Br166   1.921   .     S
C134   C138    1.407   .     A
C135   Br167   1.921   .     S
C135   C138    1.407   .     A
C136   Br168   1.921   .     S
C136   C137    1.406   .     A
C139   C196    1.465   1_455 S
C140   C195    1.465   .     S
Cu141  Cu142   2.676   .     S
Cu141  O161    1.932   .     S
Cu141  O159    1.949   .     S
Cu141  O163    1.932   .     S
Cu141  N156    2.011   .     S
Cu141  O157    1.949   .     S
Cu142  O164    1.932   .     S
Cu142  O160    1.949   .     S
Cu142  O162    1.932   .     S
Cu142  N155    2.011   .     S
Cu142  O158    1.949   .     S
C169   C193    1.452   .     S
C169   O216    1.290   .     A
C169   O213    1.290   .     A
C170   O215    1.290   .     A
C170   C194    1.452   .     S
C170   O214    1.290   .     A
C171   N211    1.364   .     A
C171   H199    1.081   .     S
C171   C175    1.408   .     A
C172   C176    1.408   .     A
C172   H200    1.081   .     S
C172   N212    1.364   .     A
C173   N211    1.364   .     A
C173   C177    1.408   .     A
C173   H201    1.081   .     S
C174   C178    1.408   .     A
C174   N212    1.364   .     A
C174   H202    1.081   .     S
C175   H207    1.081   .     S
C175   C181    1.411   .     A
C176   C182    1.411   .     A
C176   H208    1.081   .     S
C177   H209    1.081   .     S
C177   C181    1.411   .     A
C178   H210    1.081   .     S
C178   C182    1.411   .     A
C179   O217    1.287   .     A
C179   C183    1.407   .     S
C179   O220    1.287   .     A
C180   C184    1.407   .     S
C180   O219    1.287   .     A
C180   O218    1.287   .     A
C182   C69     1.518   1_565 S
C183   C632    1.189   1_554 S
C184   C407    1.189   .     S
C185   C195    1.401   .     A
C185   C189    1.392   .     A
C185   H203    1.083   .     S
C186   C196    1.401   .     A
C186   C190    1.392   .     A
C186   H204    1.083   .     S
C187   C196    1.401   .     A
C187   H205    1.083   .     S
C187   C191    1.392   .     A
C188   C195    1.401   .     A
C188   H206    1.083   .     S
C188   C192    1.392   .     A
C189   Br221   1.921   .     S
C189   C193    1.406   .     A
C190   Br222   1.921   .     S
C190   C194    1.407   .     A
C191   Br223   1.921   .     S
C191   C194    1.407   .     A
C192   Br224   1.921   .     S
C192   C193    1.406   .     A
C196   C139    1.465   1_655 S
Cu197  Cu198   2.676   .     S
Cu197  O217    1.932   .     S
Cu197  O215    1.949   .     S
Cu197  O219    1.932   .     S
Cu197  N212    2.011   .     S
Cu197  O213    1.949   .     S
Cu198  O220    1.932   .     S
Cu198  O216    1.949   .     S
Cu198  O218    1.932   .     S
Cu198  N211    2.011   .     S
Cu198  O214    1.949   .     S
C225   C249    1.452   .     S
C225   O272    1.290   .     A
C225   O269    1.290   .     A
C226   O271    1.290   .     A
C226   C250    1.452   .     S
C226   O270    1.290   .     A
C227   N267    1.364   .     A
C227   H255    1.081   .     S
C227   C231    1.408   .     A
C228   C232    1.408   .     A
C228   H256    1.081   .     S
C228   N268    1.364   .     A
C229   N267    1.364   .     A
C229   C233    1.408   .     A
C229   H257    1.081   .     S
C230   C234    1.408   .     A
C230   N268    1.364   .     A
C230   H258    1.081   .     S
C231   H263    1.081   .     S
C231   C237    1.411   .     A
C232   C238    1.411   .     A
C232   H264    1.081   .     S
C233   H265    1.081   .     S
C233   C237    1.411   .     A
C234   H266    1.081   .     S
C234   C238    1.411   .     A
C235   O273    1.287   .     A
C235   C239    1.407   .     S
C235   O276    1.287   .     A
C236   C240    1.407   .     S
C236   O275    1.287   .     A
C236   O274    1.287   .     A
C237   C350    1.518   1_545 S
C238   C349    1.518   .     S
C240   C463    1.189   .     S
C241   C251    1.401   .     A
C241   C245    1.392   .     A
C241   H259    1.083   .     S
C242   C252    1.401   .     A
C242   C246    1.392   .     A
C242   H260    1.083   .     S
C243   C252    1.401   .     A
C243   H261    1.083   .     S
C243   C247    1.392   .     A
C244   C251    1.401   .     A
C244   H262    1.083   .     S
C244   C248    1.392   .     A
C245   Br277   1.921   .     S
C245   C249    1.406   .     A
C246   Br278   1.921   .     S
C246   C250    1.407   .     A
C247   Br279   1.921   .     S
C247   C250    1.407   .     A
C248   Br280   1.921   .     S
C248   C249    1.406   .     A
C251   C308    1.465   1_455 S
C252   C307    1.465   .     S
Cu253  Cu254   2.676   .     S
Cu253  O273    1.932   .     S
Cu253  O271    1.949   .     S
Cu253  O275    1.932   .     S
Cu253  N268    2.011   .     S
Cu253  O269    1.949   .     S
Cu254  O276    1.932   .     S
Cu254  O272    1.949   .     S
Cu254  O274    1.932   .     S
Cu254  N267    2.011   .     S
Cu254  O270    1.949   .     S
C281   C305    1.452   .     S
C281   O328    1.290   .     A
C281   O325    1.290   .     A
C282   O327    1.290   .     A
C282   C306    1.452   .     S
C282   O326    1.290   .     A
C283   N323    1.364   .     A
C283   H311    1.081   .     S
C283   C287    1.408   .     A
C284   C288    1.408   .     A
C284   H312    1.081   .     S
C284   N324    1.364   .     A
C285   N323    1.364   .     A
C285   C289    1.408   .     A
C285   H313    1.081   .     S
C286   C290    1.408   .     A
C286   N324    1.364   .     A
C286   H314    1.081   .     S
C287   H319    1.081   .     S
C287   C293    1.411   .     A
C288   C294    1.411   .     A
C288   H320    1.081   .     S
C289   H321    1.081   .     S
C289   C293    1.411   .     A
C290   H322    1.081   .     S
C290   C294    1.411   .     A
C291   O329    1.287   .     A
C291   C295    1.407   .     S
C291   O332    1.287   .     A
C292   C296    1.407   .     S
C292   O331    1.287   .     A
C292   O330    1.287   .     A
C293   C406    1.518   1_545 S
C294   C405    1.518   .     S
C296   C519    1.189   .     S
C297   C307    1.401   .     A
C297   C301    1.392   .     A
C297   H315    1.083   .     S
C298   C308    1.401   .     A
C298   C302    1.392   .     A
C298   H316    1.083   .     S
C299   C308    1.401   .     A
C299   H317    1.083   .     S
C299   C303    1.392   .     A
C300   C307    1.401   .     A
C300   H318    1.083   .     S
C300   C304    1.392   .     A
C301   Br333   1.921   .     S
C301   C305    1.406   .     A
C302   Br334   1.921   .     S
C302   C306    1.407   .     A
C303   Br335   1.921   .     S
C303   C306    1.407   .     A
C304   Br336   1.921   .     S
C304   C305    1.406   .     A
C308   C251    1.465   1_655 S
Cu309  Cu310   2.676   .     S
Cu309  O329    1.932   .     S
Cu309  O327    1.949   .     S
Cu309  O331    1.932   .     S
Cu309  N324    2.011   .     S
Cu309  O325    1.949   .     S
Cu310  O332    1.932   .     S
Cu310  O328    1.949   .     S
Cu310  O330    1.932   .     S
Cu310  N323    2.011   .     S
Cu310  O326    1.949   .     S
C337   C361    1.452   .     S
C337   O384    1.290   .     A
C337   O381    1.290   .     A
C338   O383    1.290   .     A
C338   C362    1.452   .     S
C338   O382    1.290   .     A
C339   N379    1.364   .     A
C339   H367    1.081   .     S
C339   C343    1.408   .     A
C340   C344    1.408   .     A
C340   H368    1.081   .     S
C340   N380    1.364   .     A
C341   N379    1.364   .     A
C341   C345    1.408   .     A
C341   H369    1.081   .     S
C342   C346    1.408   .     A
C342   N380    1.364   .     A
C342   H370    1.081   .     S
C343   H375    1.081   .     S
C343   C349    1.411   .     A
C344   C350    1.411   .     A
C344   H376    1.081   .     S
C345   H377    1.081   .     S
C345   C349    1.411   .     A
C346   H378    1.081   .     S
C346   C350    1.411   .     A
C347   O385    1.287   .     A
C347   C351    1.407   .     S
C347   O388    1.287   .     A
C348   C352    1.407   .     S
C348   O387    1.287   .     A
C348   O386    1.287   .     A
C350   C237    1.518   1_565 S
C352   C575    1.189   .     S
C353   C363    1.401   .     A
C353   C357    1.392   .     A
C353   H371    1.083   .     S
C354   C364    1.401   .     A
C354   C358    1.392   .     A
C354   H372    1.083   .     S
C355   C364    1.401   .     A
C355   H373    1.083   .     S
C355   C359    1.392   .     A
C356   C363    1.401   .     A
C356   H374    1.083   .     S
C356   C360    1.392   .     A
C357   Br389   1.921   .     S
C357   C361    1.406   .     A
C358   Br390   1.921   .     S
C358   C362    1.407   .     A
C359   Br391   1.921   .     S
C359   C362    1.407   .     A
C360   Br392   1.921   .     S
C360   C361    1.406   .     A
C363   C420    1.465   1_455 S
C364   C419    1.465   .     S
Cu365  Cu366   2.676   .     S
Cu365  O385    1.932   .     S
Cu365  O383    1.949   .     S
Cu365  O387    1.932   .     S
Cu365  N380    2.011   .     S
Cu365  O381    1.949   .     S
Cu366  O388    1.932   .     S
Cu366  O384    1.949   .     S
Cu366  O386    1.932   .     S
Cu366  N379    2.011   .     S
Cu366  O382    1.949   .     S
C393   C417    1.452   .     S
C393   O440    1.290   .     A
C393   O437    1.290   .     A
C394   O439    1.290   .     A
C394   C418    1.452   .     S
C394   O438    1.290   .     A
C395   N435    1.364   .     A
C395   H423    1.081   .     S
C395   C399    1.408   .     A
C396   C400    1.408   .     A
C396   H424    1.081   .     S
C396   N436    1.364   .     A
C397   N435    1.364   .     A
C397   C401    1.408   .     A
C397   H425    1.081   .     S
C398   C402    1.408   .     A
C398   N436    1.364   .     A
C398   H426    1.081   .     S
C399   H431    1.081   .     S
C399   C405    1.411   .     A
C400   C406    1.411   .     A
C400   H432    1.081   .     S
C401   H433    1.081   .     S
C401   C405    1.411   .     A
C402   H434    1.081   .     S
C402   C406    1.411   .     A
C403   O441    1.287   .     A
C403   C407    1.407   .     S
C403   O444    1.287   .     A
C404   C408    1.407   .     S
C404   O443    1.287   .     A
C404   O442    1.287   .     A
C406   C293    1.518   1_565 S
C408   C631    1.189   .     S
C409   C419    1.401   .     A
C409   C413    1.392   .     A
C409   H427    1.083   .     S
C410   C420    1.401   .     A
C410   C414    1.392   .     A
C410   H428    1.083   .     S
C411   C420    1.401   .     A
C411   H429    1.083   .     S
C411   C415    1.392   .     A
C412   C419    1.401   .     A
C412   H430    1.083   .     S
C412   C416    1.392   .     A
C413   Br445   1.921   .     S
C413   C417    1.406   .     A
C414   Br446   1.921   .     S
C414   C418    1.407   .     A
C415   Br447   1.921   .     S
C415   C418    1.407   .     A
C416   Br448   1.921   .     S
C416   C417    1.406   .     A
C420   C363    1.465   1_655 S
Cu421  Cu422   2.676   .     S
Cu421  O441    1.932   .     S
Cu421  O439    1.949   .     S
Cu421  O443    1.932   .     S
Cu421  N436    2.011   .     S
Cu421  O437    1.949   .     S
Cu422  O444    1.932   .     S
Cu422  O440    1.949   .     S
Cu422  O442    1.932   .     S
Cu422  N435    2.011   .     S
Cu422  O438    1.949   .     S
C449   C473    1.452   .     S
C449   O496    1.290   .     A
C449   O493    1.290   .     A
C450   O495    1.290   .     A
C450   C474    1.452   .     S
C450   O494    1.290   .     A
C451   N491    1.364   .     A
C451   H479    1.081   .     S
C451   C455    1.408   .     A
C452   C456    1.408   .     A
C452   H480    1.081   .     S
C452   N492    1.364   .     A
C453   N491    1.364   .     A
C453   C457    1.408   .     A
C453   H481    1.081   .     S
C454   C458    1.408   .     A
C454   N492    1.364   .     A
C454   H482    1.081   .     S
C455   H487    1.081   .     S
C455   C461    1.411   .     A
C456   C462    1.411   .     A
C456   H488    1.081   .     S
C457   H489    1.081   .     S
C457   C461    1.411   .     A
C458   H490    1.081   .     S
C458   C462    1.411   .     A
C459   O497    1.287   .     A
C459   C463    1.407   .     S
C459   O500    1.287   .     A
C460   C464    1.407   .     S
C460   O499    1.287   .     A
C460   O498    1.287   .     A
C461   C574    1.518   1_545 S
C462   C573    1.518   .     S
C464   C15     1.189   1_556 S
C465   C475    1.401   .     A
C465   C469    1.392   .     A
C465   H483    1.083   .     S
C466   C476    1.401   .     A
C466   C470    1.392   .     A
C466   H484    1.083   .     S
C467   C476    1.401   .     A
C467   H485    1.083   .     S
C467   C471    1.392   .     A
C468   C475    1.401   .     A
C468   H486    1.083   .     S
C468   C472    1.392   .     A
C469   Br501   1.921   .     S
C469   C473    1.406   .     A
C470   Br502   1.921   .     S
C470   C474    1.407   .     A
C471   Br503   1.921   .     S
C471   C474    1.407   .     A
C472   Br504   1.921   .     S
C472   C473    1.406   .     A
C475   C532    1.465   1_455 S
C476   C531    1.465   .     S
Cu477  Cu478   2.676   .     S
Cu477  O497    1.932   .     S
Cu477  O495    1.949   .     S
Cu477  O499    1.932   .     S
Cu477  N492    2.011   .     S
Cu477  O493    1.949   .     S
Cu478  O500    1.932   .     S
Cu478  O496    1.949   .     S
Cu478  O498    1.932   .     S
Cu478  N491    2.011   .     S
Cu478  O494    1.949   .     S
C505   C529    1.452   .     S
C505   O552    1.290   .     A
C505   O549    1.290   .     A
C506   O551    1.290   .     A
C506   C530    1.452   .     S
C506   O550    1.290   .     A
C507   N547    1.364   .     A
C507   H535    1.081   .     S
C507   C511    1.408   .     A
C508   C512    1.408   .     A
C508   H536    1.081   .     S
C508   N548    1.364   .     A
C509   N547    1.364   .     A
C509   C513    1.408   .     A
C509   H537    1.081   .     S
C510   C514    1.408   .     A
C510   N548    1.364   .     A
C510   H538    1.081   .     S
C511   H543    1.081   .     S
C511   C517    1.411   .     A
C512   C518    1.411   .     A
C512   H544    1.081   .     S
C513   H545    1.081   .     S
C513   C517    1.411   .     A
C514   H546    1.081   .     S
C514   C518    1.411   .     A
C515   O553    1.287   .     A
C515   C519    1.407   .     S
C515   O556    1.287   .     A
C516   C520    1.407   .     S
C516   O555    1.287   .     A
C516   O554    1.287   .     A
C517   C630    1.518   1_545 S
C518   C629    1.518   .     S
C520   C71     1.189   1_556 S
C521   C531    1.401   .     A
C521   C525    1.392   .     A
C521   H539    1.083   .     S
C522   C532    1.401   .     A
C522   C526    1.392   .     A
C522   H540    1.083   .     S
C523   C532    1.401   .     A
C523   H541    1.083   .     S
C523   C527    1.392   .     A
C524   C531    1.401   .     A
C524   H542    1.083   .     S
C524   C528    1.392   .     A
C525   Br557   1.921   .     S
C525   C529    1.406   .     A
C526   Br558   1.921   .     S
C526   C530    1.407   .     A
C527   Br559   1.921   .     S
C527   C530    1.407   .     A
C528   Br560   1.921   .     S
C528   C529    1.406   .     A
C532   C475    1.465   1_655 S
Cu533  Cu534   2.676   .     S
Cu533  O553    1.932   .     S
Cu533  O551    1.949   .     S
Cu533  O555    1.932   .     S
Cu533  N548    2.011   .     S
Cu533  O549    1.949   .     S
Cu534  O556    1.932   .     S
Cu534  O552    1.949   .     S
Cu534  O554    1.932   .     S
Cu534  N547    2.011   .     S
Cu534  O550    1.949   .     S
C561   C585    1.452   .     S
C561   O608    1.290   .     A
C561   O605    1.290   .     A
C562   O607    1.290   .     A
C562   C586    1.452   .     S
C562   O606    1.290   .     A
C563   N603    1.364   .     A
C563   H591    1.081   .     S
C563   C567    1.408   .     A
C564   C568    1.408   .     A
C564   H592    1.081   .     S
C564   N604    1.364   .     A
C565   N603    1.364   .     A
C565   C569    1.408   .     A
C565   H593    1.081   .     S
C566   C570    1.408   .     A
C566   N604    1.364   .     A
C566   H594    1.081   .     S
C567   H599    1.081   .     S
C567   C573    1.411   .     A
C568   C574    1.411   .     A
C568   H600    1.081   .     S
C569   H601    1.081   .     S
C569   C573    1.411   .     A
C570   H602    1.081   .     S
C570   C574    1.411   .     A
C571   O609    1.287   .     A
C571   C575    1.407   .     S
C571   O612    1.287   .     A
C572   C576    1.407   .     S
C572   O611    1.287   .     A
C572   O610    1.287   .     A
C574   C461    1.518   1_565 S
C576   C127    1.189   1_556 S
C577   C587    1.401   .     A
C577   C581    1.392   .     A
C577   H595    1.083   .     S
C578   C588    1.401   .     A
C578   C582    1.392   .     A
C578   H596    1.083   .     S
C579   C588    1.401   .     A
C579   H597    1.083   .     S
C579   C583    1.392   .     A
C580   C587    1.401   .     A
C580   H598    1.083   .     S
C580   C584    1.392   .     A
C581   Br613   1.921   .     S
C581   C585    1.406   .     A
C582   Br614   1.921   .     S
C582   C586    1.407   .     A
C583   Br615   1.921   .     S
C583   C586    1.407   .     A
C584   Br616   1.921   .     S
C584   C585    1.406   .     A
C587   C644    1.465   1_455 S
C588   C643    1.465   .     S
Cu589  Cu590   2.676   .     S
Cu589  O609    1.932   .     S
Cu589  O607    1.949   .     S
Cu589  O611    1.932   .     S
Cu589  N604    2.011   .     S
Cu589  O605    1.949   .     S
Cu590  O612    1.932   .     S
Cu590  O608    1.949   .     S
Cu590  O610    1.932   .     S
Cu590  N603    2.011   .     S
Cu590  O606    1.949   .     S
C617   C641    1.452   .     S
C617   O664    1.290   .     A
C617   O661    1.290   .     A
C618   O663    1.290   .     A
C618   C642    1.452   .     S
C618   O662    1.290   .     A
C619   N659    1.364   .     A
C619   H647    1.081   .     S
C619   C623    1.408   .     A
C620   C624    1.408   .     A
C620   H648    1.081   .     S
C620   N660    1.364   .     A
C621   N659    1.364   .     A
C621   C625    1.408   .     A
C621   H649    1.081   .     S
C622   C626    1.408   .     A
C622   N660    1.364   .     A
C622   H650    1.081   .     S
C623   H655    1.081   .     S
C623   C629    1.411   .     A
C624   C630    1.411   .     A
C624   H656    1.081   .     S
C625   H657    1.081   .     S
C625   C629    1.411   .     A
C626   H658    1.081   .     S
C626   C630    1.411   .     A
C627   O665    1.287   .     A
C627   C631    1.407   .     S
C627   O668    1.287   .     A
C628   C632    1.407   .     S
C628   O667    1.287   .     A
C628   O666    1.287   .     A
C630   C517    1.518   1_565 S
C632   C183    1.189   1_556 S
C633   C643    1.401   .     A
C633   C637    1.392   .     A
C633   H651    1.083   .     S
C634   C644    1.401   .     A
C634   C638    1.392   .     A
C634   H652    1.083   .     S
C635   C644    1.401   .     A
C635   H653    1.083   .     S
C635   C639    1.392   .     A
C636   C643    1.401   .     A
C636   H654    1.083   .     S
C636   C640    1.392   .     A
C637   Br669   1.921   .     S
C637   C641    1.406   .     A
C638   Br670   1.921   .     S
C638   C642    1.407   .     A
C639   Br671   1.921   .     S
C639   C642    1.407   .     A
C640   Br672   1.921   .     S
C640   C641    1.406   .     A
C644   C587    1.465   1_655 S
Cu645  Cu646   2.676   .     S
Cu645  O665    1.932   .     S
Cu645  O663    1.949   .     S
Cu645  O667    1.932   .     S
Cu645  N660    2.011   .     S
Cu645  O661    1.949   .     S
Cu646  O668    1.932   .     S
Cu646  O664    1.949   .     S
Cu646  O666    1.932   .     S
Cu646  N659    2.011   .     S
Cu646  O662    1.949   .     S
