data_str_m2_o2_o5_pcu_sym.124
_audit_creation_date              2020-01-03
_audit_creation_method            'Materials Studio'
_symmetry_space_group_name_H-M    'P1'
_symmetry_Int_Tables_number       1
_symmetry_cell_setting            triclinic
loop_
_symmetry_equiv_pos_as_xyz
  x,y,z
_cell_length_a                    30.2722
_cell_length_b                    27.8594
_cell_length_c                    27.2190
_cell_angle_alpha                 89.9712
_cell_angle_beta                  90.7780
_cell_angle_gamma                 89.8927
loop_
_atom_site_label
_atom_site_type_symbol
_atom_site_fract_x
_atom_site_fract_y
_atom_site_fract_z
_atom_site_U_iso_or_equiv
_atom_site_adp_type
_atom_site_occupancy
C1     C     0.16495   0.25002   0.16676   0.00000  Uiso   1.00
C2     C     0.27310   0.44574   0.20310   0.00000  Uiso   1.00
C3     C     0.24992   0.25001   0.07356   0.00000  Uiso   1.00
C4     C     0.25004   0.24999   0.25977   0.00000  Uiso   1.00
C5     C     0.25040   0.02743   0.16674   0.00000  Uiso   1.00
C6     C     0.25018   0.47262   0.16700   0.00000  Uiso   1.00
C7     C     0.24994   0.25001   0.02185   0.00000  Uiso   1.00
C8     C     0.24998   0.24999   0.31148   0.00000  Uiso   1.00
C9     C     0.04718   0.29255   0.15869   0.00000  Uiso   1.00
C10    C     0.45203   0.21117   0.14682   0.00000  Uiso   1.00
C11    C     0.45229   0.28843   0.18796   0.00000  Uiso   1.00
C12    C     0.33496   0.24996   0.16675   0.00000  Uiso   1.00
C13    C     0.04769   0.20720   0.17631   0.00000  Uiso   1.00
C14    C     0.09308   0.29268   0.15890   0.00000  Uiso   1.00
C15    C     0.40612   0.21111   0.14684   0.00000  Uiso   1.00
C16    C     0.40637   0.28866   0.18732   0.00000  Uiso   1.00
C17    C     0.09361   0.20721   0.17579   0.00000  Uiso   1.00
C18    C     0.11662   0.24998   0.16712   0.00000  Uiso   1.00
C19    C     0.38311   0.24990   0.16697   0.00000  Uiso   1.00
C20    C     0.02409   0.24984   0.16754   0.00000  Uiso   1.00
C21    C     0.47551   0.24977   0.16751   0.00000  Uiso   1.00
C22    C     0.35359   0.11650   0.21958   0.00000  Uiso   1.00
C23    C     0.28116   0.10514   0.19390   0.00000  Uiso   1.00
C24    C     0.16079   0.38870   0.08612   0.00000  Uiso   1.00
C25    C     0.19317   0.11971   0.06084   0.00000  Uiso   1.00
C26    C     0.29014   0.38130   0.28406   0.00000  Uiso   1.00
C27    C     0.22578   0.39523   0.13200   0.00000  Uiso   1.00
C28    C     0.22002   0.10480   0.13833   0.00000  Uiso   1.00
C29    C     0.27315   0.39487   0.20237   0.00000  Uiso   1.00
C30    C     0.28179   0.05418   0.19391   0.00000  Uiso   1.00
C31    C     0.22746   0.44617   0.13055   0.00000  Uiso   1.00
C32    C     0.21871   0.05406   0.13975   0.00000  Uiso   1.00
Cu33   Cu    0.25000   0.29822   0.16667   0.00000  Uiso   1.00
Cu34   Cu    0.25000   0.20179   0.16667   0.00000  Uiso   1.00
H35    H     0.02978   0.32578   0.15104   0.00000  Uiso   1.00
H36    H     0.36222   0.10764   0.18095   0.00000  Uiso   1.00
H37    H     0.36078   0.08569   0.24433   0.00000  Uiso   1.00
H38    H     0.14418   0.40240   0.11961   0.00000  Uiso   1.00
H39    H     0.13956   0.35999   0.07038   0.00000  Uiso   1.00
H40    H     0.16319   0.41732   0.05788   0.00000  Uiso   1.00
H41    H     0.22821   0.12112   0.04881   0.00000  Uiso   1.00
H42    H     0.17466   0.14719   0.03937   0.00000  Uiso   1.00
H43    H     0.17841   0.08425   0.05188   0.00000  Uiso   1.00
H44    H     0.30147   0.35158   0.30829   0.00000  Uiso   1.00
H45    H     0.25411   0.38625   0.29040   0.00000  Uiso   1.00
H46    H     0.46911   0.18135   0.12999   0.00000  Uiso   1.00
H47    H     0.30885   0.41383   0.29529   0.00000  Uiso   1.00
H48    H     0.11008   0.32612   0.15225   0.00000  Uiso   1.00
H49    H     0.38860   0.18116   0.13040   0.00000  Uiso   1.00
H50    H     0.38906   0.31874   0.20343   0.00000  Uiso   1.00
H51    H     0.11104   0.17383   0.18266   0.00000  Uiso   1.00
H52    H     0.46960   0.31822   0.20494   0.00000  Uiso   1.00
H53    H     0.03070   0.17395   0.18412   0.00000  Uiso   1.00
H54    H     0.30673   0.03614   0.21562   0.00000  Uiso   1.00
H55    H     0.21184   0.46457   0.10010   0.00000  Uiso   1.00
H56    H     0.19208   0.03621   0.12042   0.00000  Uiso   1.00
H57    H     0.29155   0.46357   0.23179   0.00000  Uiso   1.00
H58    H     0.37537   0.14642   0.23146   0.00000  Uiso   1.00
N59    N     0.25000   0.12935   0.16667   0.00000  Uiso   1.00
N60    N     0.25000   0.37066   0.16667   0.00000  Uiso   1.00
O61    O     0.18573   0.29072   0.16667   0.00000  Uiso   1.00
O62    O     0.20290   0.36899   0.09654   0.00000  Uiso   1.00
O63    O     0.18890   0.13033   0.11127   0.00000  Uiso   1.00
O64    O     0.29943   0.36884   0.23494   0.00000  Uiso   1.00
O65    O     0.31427   0.20929   0.16666   0.00000  Uiso   1.00
O66    O     0.31427   0.29072   0.16666   0.00000  Uiso   1.00
O67    O     0.18573   0.20929   0.16667   0.00000  Uiso   1.00
O68    O     0.25000   0.29071   0.09613   0.00000  Uiso   1.00
O69    O     0.25000   0.20929   0.23720   0.00000  Uiso   1.00
O70    O     0.25000   0.29071   0.23720   0.00000  Uiso   1.00
O71    O     0.25000   0.20929   0.09613   0.00000  Uiso   1.00
O72    O     0.30924   0.13145   0.22426   0.00000  Uiso   1.00
C73    C     0.66495   0.25002   0.16676   0.00000  Uiso   1.00
C74    C     0.77310   0.44574   0.20310   0.00000  Uiso   1.00
C75    C     0.74992   0.25001   0.07356   0.00000  Uiso   1.00
C76    C     0.75004   0.24999   0.25977   0.00000  Uiso   1.00
C77    C     0.75040   0.02743   0.16674   0.00000  Uiso   1.00
C78    C     0.75018   0.47262   0.16700   0.00000  Uiso   1.00
C79    C     0.74994   0.25001   0.02185   0.00000  Uiso   1.00
C80    C     0.74998   0.24999   0.31148   0.00000  Uiso   1.00
C81    C     0.54718   0.29255   0.15869   0.00000  Uiso   1.00
C82    C     0.95203   0.21117   0.14682   0.00000  Uiso   1.00
C83    C     0.95229   0.28843   0.18796   0.00000  Uiso   1.00
C84    C     0.83496   0.24996   0.16675   0.00000  Uiso   1.00
C85    C     0.54769   0.20720   0.17631   0.00000  Uiso   1.00
C86    C     0.59308   0.29268   0.15890   0.00000  Uiso   1.00
C87    C     0.90612   0.21111   0.14684   0.00000  Uiso   1.00
C88    C     0.90637   0.28866   0.18732   0.00000  Uiso   1.00
C89    C     0.59361   0.20721   0.17579   0.00000  Uiso   1.00
C90    C     0.61662   0.24998   0.16712   0.00000  Uiso   1.00
C91    C     0.88311   0.24990   0.16697   0.00000  Uiso   1.00
C92    C     0.52409   0.24984   0.16754   0.00000  Uiso   1.00
C93    C     0.97551   0.24977   0.16751   0.00000  Uiso   1.00
C94    C     0.85359   0.11650   0.21958   0.00000  Uiso   1.00
C95    C     0.78116   0.10514   0.19390   0.00000  Uiso   1.00
C96    C     0.66079   0.38870   0.08612   0.00000  Uiso   1.00
C97    C     0.69317   0.11971   0.06084   0.00000  Uiso   1.00
C98    C     0.79014   0.38130   0.28406   0.00000  Uiso   1.00
C99    C     0.72578   0.39523   0.13200   0.00000  Uiso   1.00
C100   C     0.72002   0.10480   0.13833   0.00000  Uiso   1.00
C101   C     0.77315   0.39487   0.20237   0.00000  Uiso   1.00
C102   C     0.78179   0.05418   0.19391   0.00000  Uiso   1.00
C103   C     0.72746   0.44617   0.13055   0.00000  Uiso   1.00
C104   C     0.71871   0.05406   0.13975   0.00000  Uiso   1.00
Cu105  Cu    0.75000   0.29822   0.16667   0.00000  Uiso   1.00
Cu106  Cu    0.75000   0.20179   0.16667   0.00000  Uiso   1.00
H107   H     0.52978   0.32578   0.15104   0.00000  Uiso   1.00
H108   H     0.86222   0.10764   0.18095   0.00000  Uiso   1.00
H109   H     0.86078   0.08569   0.24433   0.00000  Uiso   1.00
H110   H     0.64418   0.40240   0.11961   0.00000  Uiso   1.00
H111   H     0.63956   0.35999   0.07038   0.00000  Uiso   1.00
H112   H     0.66319   0.41732   0.05788   0.00000  Uiso   1.00
H113   H     0.72821   0.12112   0.04881   0.00000  Uiso   1.00
H114   H     0.67466   0.14719   0.03937   0.00000  Uiso   1.00
H115   H     0.67841   0.08425   0.05188   0.00000  Uiso   1.00
H116   H     0.80147   0.35158   0.30829   0.00000  Uiso   1.00
H117   H     0.75411   0.38625   0.29040   0.00000  Uiso   1.00
H118   H     0.96911   0.18135   0.12999   0.00000  Uiso   1.00
H119   H     0.80885   0.41383   0.29529   0.00000  Uiso   1.00
H120   H     0.61008   0.32612   0.15225   0.00000  Uiso   1.00
H121   H     0.88860   0.18116   0.13040   0.00000  Uiso   1.00
H122   H     0.88906   0.31874   0.20343   0.00000  Uiso   1.00
H123   H     0.61104   0.17383   0.18266   0.00000  Uiso   1.00
H124   H     0.96960   0.31822   0.20494   0.00000  Uiso   1.00
H125   H     0.53070   0.17395   0.18412   0.00000  Uiso   1.00
H126   H     0.80673   0.03614   0.21562   0.00000  Uiso   1.00
H127   H     0.71184   0.46457   0.10010   0.00000  Uiso   1.00
H128   H     0.69208   0.03621   0.12042   0.00000  Uiso   1.00
H129   H     0.79155   0.46357   0.23179   0.00000  Uiso   1.00
H130   H     0.87537   0.14642   0.23146   0.00000  Uiso   1.00
N131   N     0.75000   0.12935   0.16667   0.00000  Uiso   1.00
N132   N     0.75000   0.37066   0.16667   0.00000  Uiso   1.00
O133   O     0.68573   0.29072   0.16667   0.00000  Uiso   1.00
O134   O     0.70290   0.36899   0.09654   0.00000  Uiso   1.00
O135   O     0.68890   0.13033   0.11127   0.00000  Uiso   1.00
O136   O     0.79943   0.36884   0.23494   0.00000  Uiso   1.00
O137   O     0.81427   0.20929   0.16666   0.00000  Uiso   1.00
O138   O     0.81427   0.29072   0.16666   0.00000  Uiso   1.00
O139   O     0.68573   0.20929   0.16667   0.00000  Uiso   1.00
O140   O     0.75000   0.29071   0.09613   0.00000  Uiso   1.00
O141   O     0.75000   0.20929   0.23720   0.00000  Uiso   1.00
O142   O     0.75000   0.29071   0.23720   0.00000  Uiso   1.00
O143   O     0.75000   0.20929   0.09613   0.00000  Uiso   1.00
O144   O     0.80924   0.13145   0.22426   0.00000  Uiso   1.00
C145   C     0.16495   0.75002   0.16676   0.00000  Uiso   1.00
C146   C     0.27310   0.94574   0.20310   0.00000  Uiso   1.00
C147   C     0.24992   0.75001   0.07356   0.00000  Uiso   1.00
C148   C     0.25004   0.74999   0.25977   0.00000  Uiso   1.00
C149   C     0.25040   0.52743   0.16674   0.00000  Uiso   1.00
C150   C     0.25018   0.97262   0.16700   0.00000  Uiso   1.00
C151   C     0.24994   0.75001   0.02185   0.00000  Uiso   1.00
C152   C     0.24998   0.74999   0.31148   0.00000  Uiso   1.00
C153   C     0.04718   0.79255   0.15869   0.00000  Uiso   1.00
C154   C     0.45203   0.71117   0.14682   0.00000  Uiso   1.00
C155   C     0.45229   0.78843   0.18796   0.00000  Uiso   1.00
C156   C     0.33496   0.74996   0.16675   0.00000  Uiso   1.00
C157   C     0.04769   0.70720   0.17631   0.00000  Uiso   1.00
C158   C     0.09308   0.79268   0.15890   0.00000  Uiso   1.00
C159   C     0.40612   0.71111   0.14684   0.00000  Uiso   1.00
C160   C     0.40637   0.78866   0.18732   0.00000  Uiso   1.00
C161   C     0.09361   0.70721   0.17579   0.00000  Uiso   1.00
C162   C     0.11662   0.74998   0.16712   0.00000  Uiso   1.00
C163   C     0.38311   0.74990   0.16697   0.00000  Uiso   1.00
C164   C     0.02409   0.74984   0.16754   0.00000  Uiso   1.00
C165   C     0.47551   0.74977   0.16751   0.00000  Uiso   1.00
C166   C     0.35359   0.61650   0.21958   0.00000  Uiso   1.00
C167   C     0.28116   0.60514   0.19390   0.00000  Uiso   1.00
C168   C     0.16079   0.88870   0.08612   0.00000  Uiso   1.00
C169   C     0.19317   0.61971   0.06084   0.00000  Uiso   1.00
C170   C     0.29014   0.88130   0.28406   0.00000  Uiso   1.00
C171   C     0.22578   0.89523   0.13200   0.00000  Uiso   1.00
C172   C     0.22002   0.60480   0.13833   0.00000  Uiso   1.00
C173   C     0.27315   0.89487   0.20237   0.00000  Uiso   1.00
C174   C     0.28179   0.55418   0.19391   0.00000  Uiso   1.00
C175   C     0.22746   0.94617   0.13055   0.00000  Uiso   1.00
C176   C     0.21871   0.55406   0.13975   0.00000  Uiso   1.00
Cu177  Cu    0.25000   0.79822   0.16667   0.00000  Uiso   1.00
Cu178  Cu    0.25000   0.70179   0.16667   0.00000  Uiso   1.00
H179   H     0.02978   0.82578   0.15104   0.00000  Uiso   1.00
H180   H     0.36222   0.60764   0.18095   0.00000  Uiso   1.00
H181   H     0.36078   0.58569   0.24433   0.00000  Uiso   1.00
H182   H     0.14418   0.90240   0.11961   0.00000  Uiso   1.00
H183   H     0.13956   0.85999   0.07038   0.00000  Uiso   1.00
H184   H     0.16319   0.91732   0.05788   0.00000  Uiso   1.00
H185   H     0.22821   0.62112   0.04881   0.00000  Uiso   1.00
H186   H     0.17466   0.64719   0.03937   0.00000  Uiso   1.00
H187   H     0.17841   0.58425   0.05188   0.00000  Uiso   1.00
H188   H     0.30147   0.85158   0.30829   0.00000  Uiso   1.00
H189   H     0.25411   0.88625   0.29040   0.00000  Uiso   1.00
H190   H     0.46911   0.68135   0.12999   0.00000  Uiso   1.00
H191   H     0.30885   0.91383   0.29529   0.00000  Uiso   1.00
H192   H     0.11008   0.82612   0.15225   0.00000  Uiso   1.00
H193   H     0.38860   0.68116   0.13040   0.00000  Uiso   1.00
H194   H     0.38906   0.81874   0.20343   0.00000  Uiso   1.00
H195   H     0.11104   0.67383   0.18266   0.00000  Uiso   1.00
H196   H     0.46960   0.81822   0.20494   0.00000  Uiso   1.00
H197   H     0.03070   0.67395   0.18412   0.00000  Uiso   1.00
H198   H     0.30673   0.53614   0.21562   0.00000  Uiso   1.00
H199   H     0.21184   0.96457   0.10010   0.00000  Uiso   1.00
H200   H     0.19208   0.53621   0.12042   0.00000  Uiso   1.00
H201   H     0.29155   0.96357   0.23179   0.00000  Uiso   1.00
H202   H     0.37537   0.64642   0.23146   0.00000  Uiso   1.00
N203   N     0.25000   0.62935   0.16667   0.00000  Uiso   1.00
N204   N     0.25000   0.87066   0.16667   0.00000  Uiso   1.00
O205   O     0.18573   0.79072   0.16667   0.00000  Uiso   1.00
O206   O     0.20290   0.86899   0.09654   0.00000  Uiso   1.00
O207   O     0.18890   0.63033   0.11127   0.00000  Uiso   1.00
O208   O     0.29943   0.86884   0.23494   0.00000  Uiso   1.00
O209   O     0.31427   0.70929   0.16666   0.00000  Uiso   1.00
O210   O     0.31427   0.79072   0.16666   0.00000  Uiso   1.00
O211   O     0.18573   0.70929   0.16667   0.00000  Uiso   1.00
O212   O     0.25000   0.79071   0.09613   0.00000  Uiso   1.00
O213   O     0.25000   0.70929   0.23720   0.00000  Uiso   1.00
O214   O     0.25000   0.79071   0.23720   0.00000  Uiso   1.00
O215   O     0.25000   0.70929   0.09613   0.00000  Uiso   1.00
O216   O     0.30924   0.63145   0.22426   0.00000  Uiso   1.00
C217   C     0.66495   0.75002   0.16676   0.00000  Uiso   1.00
C218   C     0.77310   0.94574   0.20310   0.00000  Uiso   1.00
C219   C     0.74992   0.75001   0.07356   0.00000  Uiso   1.00
C220   C     0.75004   0.74999   0.25977   0.00000  Uiso   1.00
C221   C     0.75040   0.52743   0.16674   0.00000  Uiso   1.00
C222   C     0.75018   0.97262   0.16700   0.00000  Uiso   1.00
C223   C     0.74994   0.75001   0.02185   0.00000  Uiso   1.00
C224   C     0.74998   0.74999   0.31148   0.00000  Uiso   1.00
C225   C     0.54718   0.79255   0.15869   0.00000  Uiso   1.00
C226   C     0.95203   0.71117   0.14682   0.00000  Uiso   1.00
C227   C     0.95229   0.78843   0.18796   0.00000  Uiso   1.00
C228   C     0.83496   0.74996   0.16675   0.00000  Uiso   1.00
C229   C     0.54769   0.70720   0.17631   0.00000  Uiso   1.00
C230   C     0.59308   0.79268   0.15890   0.00000  Uiso   1.00
C231   C     0.90612   0.71111   0.14684   0.00000  Uiso   1.00
C232   C     0.90637   0.78866   0.18732   0.00000  Uiso   1.00
C233   C     0.59361   0.70721   0.17579   0.00000  Uiso   1.00
C234   C     0.61662   0.74998   0.16712   0.00000  Uiso   1.00
C235   C     0.88311   0.74990   0.16697   0.00000  Uiso   1.00
C236   C     0.52409   0.74984   0.16754   0.00000  Uiso   1.00
C237   C     0.97551   0.74977   0.16751   0.00000  Uiso   1.00
C238   C     0.85359   0.61650   0.21958   0.00000  Uiso   1.00
C239   C     0.78116   0.60514   0.19390   0.00000  Uiso   1.00
C240   C     0.66079   0.88870   0.08612   0.00000  Uiso   1.00
C241   C     0.69317   0.61971   0.06084   0.00000  Uiso   1.00
C242   C     0.79014   0.88130   0.28406   0.00000  Uiso   1.00
C243   C     0.72578   0.89523   0.13200   0.00000  Uiso   1.00
C244   C     0.72002   0.60480   0.13833   0.00000  Uiso   1.00
C245   C     0.77315   0.89487   0.20237   0.00000  Uiso   1.00
C246   C     0.78179   0.55418   0.19391   0.00000  Uiso   1.00
C247   C     0.72746   0.94617   0.13055   0.00000  Uiso   1.00
C248   C     0.71871   0.55406   0.13975   0.00000  Uiso   1.00
Cu249  Cu    0.75000   0.79822   0.16667   0.00000  Uiso   1.00
Cu250  Cu    0.75000   0.70179   0.16667   0.00000  Uiso   1.00
H251   H     0.52978   0.82578   0.15104   0.00000  Uiso   1.00
H252   H     0.86222   0.60764   0.18095   0.00000  Uiso   1.00
H253   H     0.86078   0.58569   0.24433   0.00000  Uiso   1.00
H254   H     0.64418   0.90240   0.11961   0.00000  Uiso   1.00
H255   H     0.63956   0.85999   0.07038   0.00000  Uiso   1.00
H256   H     0.66319   0.91732   0.05788   0.00000  Uiso   1.00
H257   H     0.72821   0.62112   0.04881   0.00000  Uiso   1.00
H258   H     0.67466   0.64719   0.03937   0.00000  Uiso   1.00
H259   H     0.67841   0.58425   0.05188   0.00000  Uiso   1.00
H260   H     0.80147   0.85158   0.30829   0.00000  Uiso   1.00
H261   H     0.75411   0.88625   0.29040   0.00000  Uiso   1.00
H262   H     0.96911   0.68135   0.12999   0.00000  Uiso   1.00
H263   H     0.80885   0.91383   0.29529   0.00000  Uiso   1.00
H264   H     0.61008   0.82612   0.15225   0.00000  Uiso   1.00
H265   H     0.88860   0.68116   0.13040   0.00000  Uiso   1.00
H266   H     0.88906   0.81874   0.20343   0.00000  Uiso   1.00
H267   H     0.61104   0.67383   0.18266   0.00000  Uiso   1.00
H268   H     0.96960   0.81822   0.20494   0.00000  Uiso   1.00
H269   H     0.53070   0.67395   0.18412   0.00000  Uiso   1.00
H270   H     0.80673   0.53614   0.21562   0.00000  Uiso   1.00
H271   H     0.71184   0.96457   0.10010   0.00000  Uiso   1.00
H272   H     0.69208   0.53621   0.12042   0.00000  Uiso   1.00
H273   H     0.79155   0.96357   0.23179   0.00000  Uiso   1.00
H274   H     0.87537   0.64642   0.23146   0.00000  Uiso   1.00
N275   N     0.75000   0.62935   0.16667   0.00000  Uiso   1.00
N276   N     0.75000   0.87066   0.16667   0.00000  Uiso   1.00
O277   O     0.68573   0.79072   0.16667   0.00000  Uiso   1.00
O278   O     0.70290   0.86899   0.09654   0.00000  Uiso   1.00
O279   O     0.68890   0.63033   0.11127   0.00000  Uiso   1.00
O280   O     0.79943   0.86884   0.23494   0.00000  Uiso   1.00
O281   O     0.81427   0.70929   0.16666   0.00000  Uiso   1.00
O282   O     0.81427   0.79072   0.16666   0.00000  Uiso   1.00
O283   O     0.68573   0.70929   0.16667   0.00000  Uiso   1.00
O284   O     0.75000   0.79071   0.09613   0.00000  Uiso   1.00
O285   O     0.75000   0.70929   0.23720   0.00000  Uiso   1.00
O286   O     0.75000   0.79071   0.23720   0.00000  Uiso   1.00
O287   O     0.75000   0.70929   0.09613   0.00000  Uiso   1.00
O288   O     0.80924   0.63145   0.22426   0.00000  Uiso   1.00
C289   C     0.16495   0.25002   0.50009   0.00000  Uiso   1.00
C290   C     0.27310   0.44574   0.53643   0.00000  Uiso   1.00
C291   C     0.24992   0.25001   0.40689   0.00000  Uiso   1.00
C292   C     0.25004   0.24999   0.59311   0.00000  Uiso   1.00
C293   C     0.25040   0.02743   0.50007   0.00000  Uiso   1.00
C294   C     0.25018   0.47262   0.50033   0.00000  Uiso   1.00
C295   C     0.24994   0.25001   0.35519   0.00000  Uiso   1.00
C296   C     0.24998   0.24999   0.64482   0.00000  Uiso   1.00
C297   C     0.04718   0.29255   0.49202   0.00000  Uiso   1.00
C298   C     0.45203   0.21117   0.48015   0.00000  Uiso   1.00
C299   C     0.45229   0.28843   0.52130   0.00000  Uiso   1.00
C300   C     0.33496   0.24996   0.50009   0.00000  Uiso   1.00
C301   C     0.04769   0.20720   0.50965   0.00000  Uiso   1.00
C302   C     0.09308   0.29268   0.49224   0.00000  Uiso   1.00
C303   C     0.40612   0.21111   0.48018   0.00000  Uiso   1.00
C304   C     0.40637   0.28866   0.52066   0.00000  Uiso   1.00
C305   C     0.09361   0.20721   0.50912   0.00000  Uiso   1.00
C306   C     0.11662   0.24998   0.50046   0.00000  Uiso   1.00
C307   C     0.38311   0.24990   0.50030   0.00000  Uiso   1.00
C308   C     0.02409   0.24984   0.50087   0.00000  Uiso   1.00
C309   C     0.47551   0.24977   0.50084   0.00000  Uiso   1.00
C310   C     0.35359   0.11650   0.55292   0.00000  Uiso   1.00
C311   C     0.28116   0.10514   0.52724   0.00000  Uiso   1.00
C312   C     0.16079   0.38870   0.41945   0.00000  Uiso   1.00
C313   C     0.19317   0.11971   0.39418   0.00000  Uiso   1.00
C314   C     0.29014   0.38130   0.61740   0.00000  Uiso   1.00
C315   C     0.22578   0.39523   0.46533   0.00000  Uiso   1.00
C316   C     0.22002   0.10480   0.47166   0.00000  Uiso   1.00
C317   C     0.27315   0.39487   0.53571   0.00000  Uiso   1.00
C318   C     0.28179   0.05418   0.52724   0.00000  Uiso   1.00
C319   C     0.22746   0.44617   0.46388   0.00000  Uiso   1.00
C320   C     0.21871   0.05406   0.47308   0.00000  Uiso   1.00
Cu321  Cu    0.25000   0.29822   0.50000   0.00000  Uiso   1.00
Cu322  Cu    0.25000   0.20179   0.50000   0.00000  Uiso   1.00
H323   H     0.02978   0.32578   0.48438   0.00000  Uiso   1.00
H324   H     0.36222   0.10764   0.51428   0.00000  Uiso   1.00
H325   H     0.36078   0.08569   0.57766   0.00000  Uiso   1.00
H326   H     0.14418   0.40240   0.45295   0.00000  Uiso   1.00
H327   H     0.13956   0.35999   0.40371   0.00000  Uiso   1.00
H328   H     0.16319   0.41732   0.39121   0.00000  Uiso   1.00
H329   H     0.22821   0.12112   0.38215   0.00000  Uiso   1.00
H330   H     0.17466   0.14719   0.37270   0.00000  Uiso   1.00
H331   H     0.17841   0.08425   0.38521   0.00000  Uiso   1.00
H332   H     0.30147   0.35158   0.64163   0.00000  Uiso   1.00
H333   H     0.25411   0.38625   0.62374   0.00000  Uiso   1.00
H334   H     0.46911   0.18135   0.46332   0.00000  Uiso   1.00
H335   H     0.30885   0.41383   0.62862   0.00000  Uiso   1.00
H336   H     0.11008   0.32612   0.48558   0.00000  Uiso   1.00
H337   H     0.38860   0.18116   0.46373   0.00000  Uiso   1.00
H338   H     0.38906   0.31874   0.53677   0.00000  Uiso   1.00
H339   H     0.11104   0.17383   0.51599   0.00000  Uiso   1.00
H340   H     0.46960   0.31822   0.53828   0.00000  Uiso   1.00
H341   H     0.03070   0.17395   0.51745   0.00000  Uiso   1.00
H342   H     0.30673   0.03614   0.54896   0.00000  Uiso   1.00
H343   H     0.21184   0.46457   0.43343   0.00000  Uiso   1.00
H344   H     0.19208   0.03621   0.45375   0.00000  Uiso   1.00
H345   H     0.29155   0.46357   0.56513   0.00000  Uiso   1.00
H346   H     0.37537   0.14642   0.56479   0.00000  Uiso   1.00
N347   N     0.25000   0.12935   0.50000   0.00000  Uiso   1.00
N348   N     0.25000   0.37066   0.50000   0.00000  Uiso   1.00
O349   O     0.18573   0.29072   0.50000   0.00000  Uiso   1.00
O350   O     0.20290   0.36899   0.42987   0.00000  Uiso   1.00
O351   O     0.18890   0.13033   0.44460   0.00000  Uiso   1.00
O352   O     0.29943   0.36884   0.56828   0.00000  Uiso   1.00
O353   O     0.31427   0.20929   0.50000   0.00000  Uiso   1.00
O354   O     0.31427   0.29072   0.50000   0.00000  Uiso   1.00
O355   O     0.18573   0.20929   0.50000   0.00000  Uiso   1.00
O356   O     0.25000   0.29071   0.42946   0.00000  Uiso   1.00
O357   O     0.25000   0.20929   0.57054   0.00000  Uiso   1.00
O358   O     0.25000   0.29071   0.57054   0.00000  Uiso   1.00
O359   O     0.25000   0.20929   0.42946   0.00000  Uiso   1.00
O360   O     0.30924   0.13145   0.55759   0.00000  Uiso   1.00
C361   C     0.66495   0.25002   0.50009   0.00000  Uiso   1.00
C362   C     0.77310   0.44574   0.53643   0.00000  Uiso   1.00
C363   C     0.74992   0.25001   0.40689   0.00000  Uiso   1.00
C364   C     0.75004   0.24999   0.59311   0.00000  Uiso   1.00
C365   C     0.75040   0.02743   0.50007   0.00000  Uiso   1.00
C366   C     0.75018   0.47262   0.50033   0.00000  Uiso   1.00
C367   C     0.74994   0.25001   0.35519   0.00000  Uiso   1.00
C368   C     0.74998   0.24999   0.64482   0.00000  Uiso   1.00
C369   C     0.54718   0.29255   0.49202   0.00000  Uiso   1.00
C370   C     0.95203   0.21117   0.48015   0.00000  Uiso   1.00
C371   C     0.95229   0.28843   0.52130   0.00000  Uiso   1.00
C372   C     0.83496   0.24996   0.50009   0.00000  Uiso   1.00
C373   C     0.54769   0.20720   0.50965   0.00000  Uiso   1.00
C374   C     0.59308   0.29268   0.49224   0.00000  Uiso   1.00
C375   C     0.90612   0.21111   0.48018   0.00000  Uiso   1.00
C376   C     0.90637   0.28866   0.52066   0.00000  Uiso   1.00
C377   C     0.59361   0.20721   0.50912   0.00000  Uiso   1.00
C378   C     0.61662   0.24998   0.50046   0.00000  Uiso   1.00
C379   C     0.88311   0.24990   0.50030   0.00000  Uiso   1.00
C380   C     0.52409   0.24984   0.50087   0.00000  Uiso   1.00
C381   C     0.97551   0.24977   0.50084   0.00000  Uiso   1.00
C382   C     0.85359   0.11650   0.55292   0.00000  Uiso   1.00
C383   C     0.78116   0.10514   0.52724   0.00000  Uiso   1.00
C384   C     0.66079   0.38870   0.41945   0.00000  Uiso   1.00
C385   C     0.69317   0.11971   0.39418   0.00000  Uiso   1.00
C386   C     0.79014   0.38130   0.61740   0.00000  Uiso   1.00
C387   C     0.72578   0.39523   0.46533   0.00000  Uiso   1.00
C388   C     0.72002   0.10480   0.47166   0.00000  Uiso   1.00
C389   C     0.77315   0.39487   0.53571   0.00000  Uiso   1.00
C390   C     0.78179   0.05418   0.52724   0.00000  Uiso   1.00
C391   C     0.72746   0.44617   0.46388   0.00000  Uiso   1.00
C392   C     0.71871   0.05406   0.47308   0.00000  Uiso   1.00
Cu393  Cu    0.75000   0.29822   0.50000   0.00000  Uiso   1.00
Cu394  Cu    0.75000   0.20179   0.50000   0.00000  Uiso   1.00
H395   H     0.52978   0.32578   0.48438   0.00000  Uiso   1.00
H396   H     0.86222   0.10764   0.51428   0.00000  Uiso   1.00
H397   H     0.86078   0.08569   0.57766   0.00000  Uiso   1.00
H398   H     0.64418   0.40240   0.45295   0.00000  Uiso   1.00
H399   H     0.63956   0.35999   0.40371   0.00000  Uiso   1.00
H400   H     0.66319   0.41732   0.39121   0.00000  Uiso   1.00
H401   H     0.72821   0.12112   0.38215   0.00000  Uiso   1.00
H402   H     0.67466   0.14719   0.37270   0.00000  Uiso   1.00
H403   H     0.67841   0.08425   0.38521   0.00000  Uiso   1.00
H404   H     0.80147   0.35158   0.64163   0.00000  Uiso   1.00
H405   H     0.75411   0.38625   0.62374   0.00000  Uiso   1.00
H406   H     0.96911   0.18135   0.46332   0.00000  Uiso   1.00
H407   H     0.80885   0.41383   0.62862   0.00000  Uiso   1.00
H408   H     0.61008   0.32612   0.48558   0.00000  Uiso   1.00
H409   H     0.88860   0.18116   0.46373   0.00000  Uiso   1.00
H410   H     0.88906   0.31874   0.53677   0.00000  Uiso   1.00
H411   H     0.61104   0.17383   0.51599   0.00000  Uiso   1.00
H412   H     0.96960   0.31822   0.53828   0.00000  Uiso   1.00
H413   H     0.53070   0.17395   0.51745   0.00000  Uiso   1.00
H414   H     0.80673   0.03614   0.54896   0.00000  Uiso   1.00
H415   H     0.71184   0.46457   0.43343   0.00000  Uiso   1.00
H416   H     0.69208   0.03621   0.45375   0.00000  Uiso   1.00
H417   H     0.79155   0.46357   0.56513   0.00000  Uiso   1.00
H418   H     0.87537   0.14642   0.56479   0.00000  Uiso   1.00
N419   N     0.75000   0.12935   0.50000   0.00000  Uiso   1.00
N420   N     0.75000   0.37066   0.50000   0.00000  Uiso   1.00
O421   O     0.68573   0.29072   0.50000   0.00000  Uiso   1.00
O422   O     0.70290   0.36899   0.42987   0.00000  Uiso   1.00
O423   O     0.68890   0.13033   0.44460   0.00000  Uiso   1.00
O424   O     0.79943   0.36884   0.56828   0.00000  Uiso   1.00
O425   O     0.81427   0.20929   0.50000   0.00000  Uiso   1.00
O426   O     0.81427   0.29072   0.50000   0.00000  Uiso   1.00
O427   O     0.68573   0.20929   0.50000   0.00000  Uiso   1.00
O428   O     0.75000   0.29071   0.42946   0.00000  Uiso   1.00
O429   O     0.75000   0.20929   0.57054   0.00000  Uiso   1.00
O430   O     0.75000   0.29071   0.57054   0.00000  Uiso   1.00
O431   O     0.75000   0.20929   0.42946   0.00000  Uiso   1.00
O432   O     0.80924   0.13145   0.55759   0.00000  Uiso   1.00
C433   C     0.16495   0.75002   0.50009   0.00000  Uiso   1.00
C434   C     0.27310   0.94574   0.53643   0.00000  Uiso   1.00
C435   C     0.24992   0.75001   0.40689   0.00000  Uiso   1.00
C436   C     0.25004   0.74999   0.59311   0.00000  Uiso   1.00
C437   C     0.25040   0.52743   0.50007   0.00000  Uiso   1.00
C438   C     0.25018   0.97262   0.50033   0.00000  Uiso   1.00
C439   C     0.24994   0.75001   0.35519   0.00000  Uiso   1.00
C440   C     0.24998   0.74999   0.64482   0.00000  Uiso   1.00
C441   C     0.04718   0.79255   0.49202   0.00000  Uiso   1.00
C442   C     0.45203   0.71117   0.48015   0.00000  Uiso   1.00
C443   C     0.45229   0.78843   0.52130   0.00000  Uiso   1.00
C444   C     0.33496   0.74996   0.50009   0.00000  Uiso   1.00
C445   C     0.04769   0.70720   0.50965   0.00000  Uiso   1.00
C446   C     0.09308   0.79268   0.49224   0.00000  Uiso   1.00
C447   C     0.40612   0.71111   0.48018   0.00000  Uiso   1.00
C448   C     0.40637   0.78866   0.52066   0.00000  Uiso   1.00
C449   C     0.09361   0.70721   0.50912   0.00000  Uiso   1.00
C450   C     0.11662   0.74998   0.50046   0.00000  Uiso   1.00
C451   C     0.38311   0.74990   0.50030   0.00000  Uiso   1.00
C452   C     0.02409   0.74984   0.50087   0.00000  Uiso   1.00
C453   C     0.47551   0.74977   0.50084   0.00000  Uiso   1.00
C454   C     0.35359   0.61650   0.55292   0.00000  Uiso   1.00
C455   C     0.28116   0.60514   0.52724   0.00000  Uiso   1.00
C456   C     0.16079   0.88870   0.41945   0.00000  Uiso   1.00
C457   C     0.19317   0.61971   0.39418   0.00000  Uiso   1.00
C458   C     0.29014   0.88130   0.61740   0.00000  Uiso   1.00
C459   C     0.22578   0.89523   0.46533   0.00000  Uiso   1.00
C460   C     0.22002   0.60480   0.47166   0.00000  Uiso   1.00
C461   C     0.27315   0.89487   0.53571   0.00000  Uiso   1.00
C462   C     0.28179   0.55418   0.52724   0.00000  Uiso   1.00
C463   C     0.22746   0.94617   0.46388   0.00000  Uiso   1.00
C464   C     0.21871   0.55406   0.47308   0.00000  Uiso   1.00
Cu465  Cu    0.25000   0.79822   0.50000   0.00000  Uiso   1.00
Cu466  Cu    0.25000   0.70179   0.50000   0.00000  Uiso   1.00
H467   H     0.02978   0.82578   0.48438   0.00000  Uiso   1.00
H468   H     0.36222   0.60764   0.51428   0.00000  Uiso   1.00
H469   H     0.36078   0.58569   0.57766   0.00000  Uiso   1.00
H470   H     0.14418   0.90240   0.45295   0.00000  Uiso   1.00
H471   H     0.13956   0.85999   0.40371   0.00000  Uiso   1.00
H472   H     0.16319   0.91732   0.39121   0.00000  Uiso   1.00
H473   H     0.22821   0.62112   0.38215   0.00000  Uiso   1.00
H474   H     0.17466   0.64719   0.37270   0.00000  Uiso   1.00
H475   H     0.17841   0.58425   0.38521   0.00000  Uiso   1.00
H476   H     0.30147   0.85158   0.64163   0.00000  Uiso   1.00
H477   H     0.25411   0.88625   0.62374   0.00000  Uiso   1.00
H478   H     0.46911   0.68135   0.46332   0.00000  Uiso   1.00
H479   H     0.30885   0.91383   0.62862   0.00000  Uiso   1.00
H480   H     0.11008   0.82612   0.48558   0.00000  Uiso   1.00
H481   H     0.38860   0.68116   0.46373   0.00000  Uiso   1.00
H482   H     0.38906   0.81874   0.53677   0.00000  Uiso   1.00
H483   H     0.11104   0.67383   0.51599   0.00000  Uiso   1.00
H484   H     0.46960   0.81822   0.53828   0.00000  Uiso   1.00
H485   H     0.03070   0.67395   0.51745   0.00000  Uiso   1.00
H486   H     0.30673   0.53614   0.54896   0.00000  Uiso   1.00
H487   H     0.21184   0.96457   0.43343   0.00000  Uiso   1.00
H488   H     0.19208   0.53621   0.45375   0.00000  Uiso   1.00
H489   H     0.29155   0.96357   0.56513   0.00000  Uiso   1.00
H490   H     0.37537   0.64642   0.56479   0.00000  Uiso   1.00
N491   N     0.25000   0.62935   0.50000   0.00000  Uiso   1.00
N492   N     0.25000   0.87066   0.50000   0.00000  Uiso   1.00
O493   O     0.18573   0.79072   0.50000   0.00000  Uiso   1.00
O494   O     0.20290   0.86899   0.42987   0.00000  Uiso   1.00
O495   O     0.18890   0.63033   0.44460   0.00000  Uiso   1.00
O496   O     0.29943   0.86884   0.56828   0.00000  Uiso   1.00
O497   O     0.31427   0.70929   0.50000   0.00000  Uiso   1.00
O498   O     0.31427   0.79072   0.50000   0.00000  Uiso   1.00
O499   O     0.18573   0.70929   0.50000   0.00000  Uiso   1.00
O500   O     0.25000   0.79071   0.42946   0.00000  Uiso   1.00
O501   O     0.25000   0.70929   0.57054   0.00000  Uiso   1.00
O502   O     0.25000   0.79071   0.57054   0.00000  Uiso   1.00
O503   O     0.25000   0.70929   0.42946   0.00000  Uiso   1.00
O504   O     0.30924   0.63145   0.55759   0.00000  Uiso   1.00
C505   C     0.66495   0.75002   0.50009   0.00000  Uiso   1.00
C506   C     0.77310   0.94574   0.53643   0.00000  Uiso   1.00
C507   C     0.74992   0.75001   0.40689   0.00000  Uiso   1.00
C508   C     0.75004   0.74999   0.59311   0.00000  Uiso   1.00
C509   C     0.75040   0.52743   0.50007   0.00000  Uiso   1.00
C510   C     0.75018   0.97262   0.50033   0.00000  Uiso   1.00
C511   C     0.74994   0.75001   0.35519   0.00000  Uiso   1.00
C512   C     0.74998   0.74999   0.64482   0.00000  Uiso   1.00
C513   C     0.54718   0.79255   0.49202   0.00000  Uiso   1.00
C514   C     0.95203   0.71117   0.48015   0.00000  Uiso   1.00
C515   C     0.95229   0.78843   0.52130   0.00000  Uiso   1.00
C516   C     0.83496   0.74996   0.50009   0.00000  Uiso   1.00
C517   C     0.54769   0.70720   0.50965   0.00000  Uiso   1.00
C518   C     0.59308   0.79268   0.49224   0.00000  Uiso   1.00
C519   C     0.90612   0.71111   0.48018   0.00000  Uiso   1.00
C520   C     0.90637   0.78866   0.52066   0.00000  Uiso   1.00
C521   C     0.59361   0.70721   0.50912   0.00000  Uiso   1.00
C522   C     0.61662   0.74998   0.50046   0.00000  Uiso   1.00
C523   C     0.88311   0.74990   0.50030   0.00000  Uiso   1.00
C524   C     0.52409   0.74984   0.50087   0.00000  Uiso   1.00
C525   C     0.97551   0.74977   0.50084   0.00000  Uiso   1.00
C526   C     0.85359   0.61650   0.55292   0.00000  Uiso   1.00
C527   C     0.78116   0.60514   0.52724   0.00000  Uiso   1.00
C528   C     0.66079   0.88870   0.41945   0.00000  Uiso   1.00
C529   C     0.69317   0.61971   0.39418   0.00000  Uiso   1.00
C530   C     0.79014   0.88130   0.61740   0.00000  Uiso   1.00
C531   C     0.72578   0.89523   0.46533   0.00000  Uiso   1.00
C532   C     0.72002   0.60480   0.47166   0.00000  Uiso   1.00
C533   C     0.77315   0.89487   0.53571   0.00000  Uiso   1.00
C534   C     0.78179   0.55418   0.52724   0.00000  Uiso   1.00
C535   C     0.72746   0.94617   0.46388   0.00000  Uiso   1.00
C536   C     0.71871   0.55406   0.47308   0.00000  Uiso   1.00
Cu537  Cu    0.75000   0.79822   0.50000   0.00000  Uiso   1.00
Cu538  Cu    0.75000   0.70179   0.50000   0.00000  Uiso   1.00
H539   H     0.52978   0.82578   0.48438   0.00000  Uiso   1.00
H540   H     0.86222   0.60764   0.51428   0.00000  Uiso   1.00
H541   H     0.86078   0.58569   0.57766   0.00000  Uiso   1.00
H542   H     0.64418   0.90240   0.45295   0.00000  Uiso   1.00
H543   H     0.63956   0.85999   0.40371   0.00000  Uiso   1.00
H544   H     0.66319   0.91732   0.39121   0.00000  Uiso   1.00
H545   H     0.72821   0.62112   0.38215   0.00000  Uiso   1.00
H546   H     0.67466   0.64719   0.37270   0.00000  Uiso   1.00
H547   H     0.67841   0.58425   0.38521   0.00000  Uiso   1.00
H548   H     0.80147   0.85158   0.64163   0.00000  Uiso   1.00
H549   H     0.75411   0.88625   0.62374   0.00000  Uiso   1.00
H550   H     0.96911   0.68135   0.46332   0.00000  Uiso   1.00
H551   H     0.80885   0.91383   0.62862   0.00000  Uiso   1.00
H552   H     0.61008   0.82612   0.48558   0.00000  Uiso   1.00
H553   H     0.88860   0.68116   0.46373   0.00000  Uiso   1.00
H554   H     0.88906   0.81874   0.53677   0.00000  Uiso   1.00
H555   H     0.61104   0.67383   0.51599   0.00000  Uiso   1.00
H556   H     0.96960   0.81822   0.53828   0.00000  Uiso   1.00
H557   H     0.53070   0.67395   0.51745   0.00000  Uiso   1.00
H558   H     0.80673   0.53614   0.54896   0.00000  Uiso   1.00
H559   H     0.71184   0.96457   0.43343   0.00000  Uiso   1.00
H560   H     0.69208   0.53621   0.45375   0.00000  Uiso   1.00
H561   H     0.79155   0.96357   0.56513   0.00000  Uiso   1.00
H562   H     0.87537   0.64642   0.56479   0.00000  Uiso   1.00
N563   N     0.75000   0.62935   0.50000   0.00000  Uiso   1.00
N564   N     0.75000   0.87066   0.50000   0.00000  Uiso   1.00
O565   O     0.68573   0.79072   0.50000   0.00000  Uiso   1.00
O566   O     0.70290   0.86899   0.42987   0.00000  Uiso   1.00
O567   O     0.68890   0.63033   0.44460   0.00000  Uiso   1.00
O568   O     0.79943   0.86884   0.56828   0.00000  Uiso   1.00
O569   O     0.81427   0.70929   0.50000   0.00000  Uiso   1.00
O570   O     0.81427   0.79072   0.50000   0.00000  Uiso   1.00
O571   O     0.68573   0.70929   0.50000   0.00000  Uiso   1.00
O572   O     0.75000   0.79071   0.42946   0.00000  Uiso   1.00
O573   O     0.75000   0.70929   0.57054   0.00000  Uiso   1.00
O574   O     0.75000   0.79071   0.57054   0.00000  Uiso   1.00
O575   O     0.75000   0.70929   0.42946   0.00000  Uiso   1.00
O576   O     0.80924   0.63145   0.55759   0.00000  Uiso   1.00
C577   C     0.16495   0.25002   0.83343   0.00000  Uiso   1.00
C578   C     0.27310   0.44574   0.86976   0.00000  Uiso   1.00
C579   C     0.24992   0.25001   0.74023   0.00000  Uiso   1.00
C580   C     0.25004   0.24999   0.92644   0.00000  Uiso   1.00
C581   C     0.25040   0.02743   0.83341   0.00000  Uiso   1.00
C582   C     0.25018   0.47262   0.83366   0.00000  Uiso   1.00
C583   C     0.24994   0.25001   0.68852   0.00000  Uiso   1.00
C584   C     0.24998   0.24999   0.97815   0.00000  Uiso   1.00
C585   C     0.04718   0.29255   0.82536   0.00000  Uiso   1.00
C586   C     0.45203   0.21117   0.81348   0.00000  Uiso   1.00
C587   C     0.45229   0.28843   0.85463   0.00000  Uiso   1.00
C588   C     0.33496   0.24996   0.83342   0.00000  Uiso   1.00
C589   C     0.04769   0.20720   0.84298   0.00000  Uiso   1.00
C590   C     0.09308   0.29268   0.82557   0.00000  Uiso   1.00
C591   C     0.40612   0.21111   0.81351   0.00000  Uiso   1.00
C592   C     0.40637   0.28866   0.85399   0.00000  Uiso   1.00
C593   C     0.09361   0.20721   0.84245   0.00000  Uiso   1.00
C594   C     0.11662   0.24998   0.83379   0.00000  Uiso   1.00
C595   C     0.38311   0.24990   0.83364   0.00000  Uiso   1.00
C596   C     0.02409   0.24984   0.83420   0.00000  Uiso   1.00
C597   C     0.47551   0.24977   0.83418   0.00000  Uiso   1.00
C598   C     0.35359   0.11650   0.88625   0.00000  Uiso   1.00
C599   C     0.28116   0.10514   0.86057   0.00000  Uiso   1.00
C600   C     0.16079   0.38870   0.75279   0.00000  Uiso   1.00
C601   C     0.19317   0.11971   0.72751   0.00000  Uiso   1.00
C602   C     0.29014   0.38130   0.95073   0.00000  Uiso   1.00
C603   C     0.22578   0.39523   0.79866   0.00000  Uiso   1.00
C604   C     0.22002   0.10480   0.80499   0.00000  Uiso   1.00
C605   C     0.27315   0.39487   0.86904   0.00000  Uiso   1.00
C606   C     0.28179   0.05418   0.86057   0.00000  Uiso   1.00
C607   C     0.22746   0.44617   0.79722   0.00000  Uiso   1.00
C608   C     0.21871   0.05406   0.80642   0.00000  Uiso   1.00
Cu609  Cu    0.25000   0.29822   0.83333   0.00000  Uiso   1.00
Cu610  Cu    0.25000   0.20179   0.83333   0.00000  Uiso   1.00
H611   H     0.02978   0.32578   0.81771   0.00000  Uiso   1.00
H612   H     0.36222   0.10764   0.84762   0.00000  Uiso   1.00
H613   H     0.36078   0.08569   0.91099   0.00000  Uiso   1.00
H614   H     0.14418   0.40240   0.78628   0.00000  Uiso   1.00
H615   H     0.13956   0.35999   0.73705   0.00000  Uiso   1.00
H616   H     0.16319   0.41732   0.72455   0.00000  Uiso   1.00
H617   H     0.22821   0.12112   0.71548   0.00000  Uiso   1.00
H618   H     0.17466   0.14719   0.70603   0.00000  Uiso   1.00
H619   H     0.17841   0.08425   0.71854   0.00000  Uiso   1.00
H620   H     0.30147   0.35158   0.97496   0.00000  Uiso   1.00
H621   H     0.25411   0.38625   0.95707   0.00000  Uiso   1.00
H622   H     0.46911   0.18135   0.79665   0.00000  Uiso   1.00
H623   H     0.30885   0.41383   0.96195   0.00000  Uiso   1.00
H624   H     0.11008   0.32612   0.81891   0.00000  Uiso   1.00
H625   H     0.38860   0.18116   0.79706   0.00000  Uiso   1.00
H626   H     0.38906   0.31874   0.87010   0.00000  Uiso   1.00
H627   H     0.11104   0.17383   0.84933   0.00000  Uiso   1.00
H628   H     0.46960   0.31822   0.87161   0.00000  Uiso   1.00
H629   H     0.03070   0.17395   0.85078   0.00000  Uiso   1.00
H630   H     0.30673   0.03614   0.88229   0.00000  Uiso   1.00
H631   H     0.21184   0.46457   0.76677   0.00000  Uiso   1.00
H632   H     0.19208   0.03621   0.78708   0.00000  Uiso   1.00
H633   H     0.29155   0.46357   0.89846   0.00000  Uiso   1.00
H634   H     0.37537   0.14642   0.89812   0.00000  Uiso   1.00
N635   N     0.25000   0.12935   0.83333   0.00000  Uiso   1.00
N636   N     0.25000   0.37066   0.83333   0.00000  Uiso   1.00
O637   O     0.18573   0.29072   0.83334   0.00000  Uiso   1.00
O638   O     0.20290   0.36899   0.76321   0.00000  Uiso   1.00
O639   O     0.18890   0.13033   0.77794   0.00000  Uiso   1.00
O640   O     0.29943   0.36884   0.90161   0.00000  Uiso   1.00
O641   O     0.31427   0.20929   0.83333   0.00000  Uiso   1.00
O642   O     0.31427   0.29072   0.83333   0.00000  Uiso   1.00
O643   O     0.18573   0.20929   0.83334   0.00000  Uiso   1.00
O644   O     0.25000   0.29071   0.76280   0.00000  Uiso   1.00
O645   O     0.25000   0.20929   0.90387   0.00000  Uiso   1.00
O646   O     0.25000   0.29071   0.90387   0.00000  Uiso   1.00
O647   O     0.25000   0.20929   0.76280   0.00000  Uiso   1.00
O648   O     0.30924   0.13145   0.89093   0.00000  Uiso   1.00
C649   C     0.66495   0.25002   0.83343   0.00000  Uiso   1.00
C650   C     0.77310   0.44574   0.86976   0.00000  Uiso   1.00
C651   C     0.74992   0.25001   0.74023   0.00000  Uiso   1.00
C652   C     0.75004   0.24999   0.92644   0.00000  Uiso   1.00
C653   C     0.75040   0.02743   0.83341   0.00000  Uiso   1.00
C654   C     0.75018   0.47262   0.83366   0.00000  Uiso   1.00
C655   C     0.74994   0.25001   0.68852   0.00000  Uiso   1.00
C656   C     0.74998   0.24999   0.97815   0.00000  Uiso   1.00
C657   C     0.54718   0.29255   0.82536   0.00000  Uiso   1.00
C658   C     0.95203   0.21117   0.81348   0.00000  Uiso   1.00
C659   C     0.95229   0.28843   0.85463   0.00000  Uiso   1.00
C660   C     0.83496   0.24996   0.83342   0.00000  Uiso   1.00
C661   C     0.54769   0.20720   0.84298   0.00000  Uiso   1.00
C662   C     0.59308   0.29268   0.82557   0.00000  Uiso   1.00
C663   C     0.90612   0.21111   0.81351   0.00000  Uiso   1.00
C664   C     0.90637   0.28866   0.85399   0.00000  Uiso   1.00
C665   C     0.59361   0.20721   0.84245   0.00000  Uiso   1.00
C666   C     0.61662   0.24998   0.83379   0.00000  Uiso   1.00
C667   C     0.88311   0.24990   0.83364   0.00000  Uiso   1.00
C668   C     0.52409   0.24984   0.83420   0.00000  Uiso   1.00
C669   C     0.97551   0.24977   0.83418   0.00000  Uiso   1.00
C670   C     0.85359   0.11650   0.88625   0.00000  Uiso   1.00
C671   C     0.78116   0.10514   0.86057   0.00000  Uiso   1.00
C672   C     0.66079   0.38870   0.75279   0.00000  Uiso   1.00
C673   C     0.69317   0.11971   0.72751   0.00000  Uiso   1.00
C674   C     0.79014   0.38130   0.95073   0.00000  Uiso   1.00
C675   C     0.72578   0.39523   0.79866   0.00000  Uiso   1.00
C676   C     0.72002   0.10480   0.80499   0.00000  Uiso   1.00
C677   C     0.77315   0.39487   0.86904   0.00000  Uiso   1.00
C678   C     0.78179   0.05418   0.86057   0.00000  Uiso   1.00
C679   C     0.72746   0.44617   0.79722   0.00000  Uiso   1.00
C680   C     0.71871   0.05406   0.80642   0.00000  Uiso   1.00
Cu681  Cu    0.75000   0.29822   0.83333   0.00000  Uiso   1.00
Cu682  Cu    0.75000   0.20179   0.83333   0.00000  Uiso   1.00
H683   H     0.52978   0.32578   0.81771   0.00000  Uiso   1.00
H684   H     0.86222   0.10764   0.84762   0.00000  Uiso   1.00
H685   H     0.86078   0.08569   0.91099   0.00000  Uiso   1.00
H686   H     0.64418   0.40240   0.78628   0.00000  Uiso   1.00
H687   H     0.63956   0.35999   0.73705   0.00000  Uiso   1.00
H688   H     0.66319   0.41732   0.72455   0.00000  Uiso   1.00
H689   H     0.72821   0.12112   0.71548   0.00000  Uiso   1.00
H690   H     0.67466   0.14719   0.70603   0.00000  Uiso   1.00
H691   H     0.67841   0.08425   0.71854   0.00000  Uiso   1.00
H692   H     0.80147   0.35158   0.97496   0.00000  Uiso   1.00
H693   H     0.75411   0.38625   0.95707   0.00000  Uiso   1.00
H694   H     0.96911   0.18135   0.79665   0.00000  Uiso   1.00
H695   H     0.80885   0.41383   0.96195   0.00000  Uiso   1.00
H696   H     0.61008   0.32612   0.81891   0.00000  Uiso   1.00
H697   H     0.88860   0.18116   0.79706   0.00000  Uiso   1.00
H698   H     0.88906   0.31874   0.87010   0.00000  Uiso   1.00
H699   H     0.61104   0.17383   0.84933   0.00000  Uiso   1.00
H700   H     0.96960   0.31822   0.87161   0.00000  Uiso   1.00
H701   H     0.53070   0.17395   0.85078   0.00000  Uiso   1.00
H702   H     0.80673   0.03614   0.88229   0.00000  Uiso   1.00
H703   H     0.71184   0.46457   0.76677   0.00000  Uiso   1.00
H704   H     0.69208   0.03621   0.78708   0.00000  Uiso   1.00
H705   H     0.79155   0.46357   0.89846   0.00000  Uiso   1.00
H706   H     0.87537   0.14642   0.89812   0.00000  Uiso   1.00
N707   N     0.75000   0.12935   0.83333   0.00000  Uiso   1.00
N708   N     0.75000   0.37066   0.83333   0.00000  Uiso   1.00
O709   O     0.68573   0.29072   0.83334   0.00000  Uiso   1.00
O710   O     0.70290   0.36899   0.76321   0.00000  Uiso   1.00
O711   O     0.68890   0.13033   0.77794   0.00000  Uiso   1.00
O712   O     0.79943   0.36884   0.90161   0.00000  Uiso   1.00
O713   O     0.81427   0.20929   0.83333   0.00000  Uiso   1.00
O714   O     0.81427   0.29072   0.83333   0.00000  Uiso   1.00
O715   O     0.68573   0.20929   0.83334   0.00000  Uiso   1.00
O716   O     0.75000   0.29071   0.76280   0.00000  Uiso   1.00
O717   O     0.75000   0.20929   0.90387   0.00000  Uiso   1.00
O718   O     0.75000   0.29071   0.90387   0.00000  Uiso   1.00
O719   O     0.75000   0.20929   0.76280   0.00000  Uiso   1.00
O720   O     0.80924   0.13145   0.89093   0.00000  Uiso   1.00
C721   C     0.16495   0.75002   0.83343   0.00000  Uiso   1.00
C722   C     0.27310   0.94574   0.86976   0.00000  Uiso   1.00
C723   C     0.24992   0.75001   0.74023   0.00000  Uiso   1.00
C724   C     0.25004   0.74999   0.92644   0.00000  Uiso   1.00
C725   C     0.25040   0.52743   0.83341   0.00000  Uiso   1.00
C726   C     0.25018   0.97262   0.83366   0.00000  Uiso   1.00
C727   C     0.24994   0.75001   0.68852   0.00000  Uiso   1.00
C728   C     0.24998   0.74999   0.97815   0.00000  Uiso   1.00
C729   C     0.04718   0.79255   0.82536   0.00000  Uiso   1.00
C730   C     0.45203   0.71117   0.81348   0.00000  Uiso   1.00
C731   C     0.45229   0.78843   0.85463   0.00000  Uiso   1.00
C732   C     0.33496   0.74996   0.83342   0.00000  Uiso   1.00
C733   C     0.04769   0.70720   0.84298   0.00000  Uiso   1.00
C734   C     0.09308   0.79268   0.82557   0.00000  Uiso   1.00
C735   C     0.40612   0.71111   0.81351   0.00000  Uiso   1.00
C736   C     0.40637   0.78866   0.85399   0.00000  Uiso   1.00
C737   C     0.09361   0.70721   0.84245   0.00000  Uiso   1.00
C738   C     0.11662   0.74998   0.83379   0.00000  Uiso   1.00
C739   C     0.38311   0.74990   0.83364   0.00000  Uiso   1.00
C740   C     0.02409   0.74984   0.83420   0.00000  Uiso   1.00
C741   C     0.47551   0.74977   0.83418   0.00000  Uiso   1.00
C742   C     0.35359   0.61650   0.88625   0.00000  Uiso   1.00
C743   C     0.28116   0.60514   0.86057   0.00000  Uiso   1.00
C744   C     0.16079   0.88870   0.75279   0.00000  Uiso   1.00
C745   C     0.19317   0.61971   0.72751   0.00000  Uiso   1.00
C746   C     0.29014   0.88130   0.95073   0.00000  Uiso   1.00
C747   C     0.22578   0.89523   0.79866   0.00000  Uiso   1.00
C748   C     0.22002   0.60480   0.80499   0.00000  Uiso   1.00
C749   C     0.27315   0.89487   0.86904   0.00000  Uiso   1.00
C750   C     0.28179   0.55418   0.86057   0.00000  Uiso   1.00
C751   C     0.22746   0.94617   0.79722   0.00000  Uiso   1.00
C752   C     0.21871   0.55406   0.80642   0.00000  Uiso   1.00
Cu753  Cu    0.25000   0.79822   0.83333   0.00000  Uiso   1.00
Cu754  Cu    0.25000   0.70179   0.83333   0.00000  Uiso   1.00
H755   H     0.02978   0.82578   0.81771   0.00000  Uiso   1.00
H756   H     0.36222   0.60764   0.84762   0.00000  Uiso   1.00
H757   H     0.36078   0.58569   0.91099   0.00000  Uiso   1.00
H758   H     0.14418   0.90240   0.78628   0.00000  Uiso   1.00
H759   H     0.13956   0.85999   0.73705   0.00000  Uiso   1.00
H760   H     0.16319   0.91732   0.72455   0.00000  Uiso   1.00
H761   H     0.22821   0.62112   0.71548   0.00000  Uiso   1.00
H762   H     0.17466   0.64719   0.70603   0.00000  Uiso   1.00
H763   H     0.17841   0.58425   0.71854   0.00000  Uiso   1.00
H764   H     0.30147   0.85158   0.97496   0.00000  Uiso   1.00
H765   H     0.25411   0.88625   0.95707   0.00000  Uiso   1.00
H766   H     0.46911   0.68135   0.79665   0.00000  Uiso   1.00
H767   H     0.30885   0.91383   0.96195   0.00000  Uiso   1.00
H768   H     0.11008   0.82612   0.81891   0.00000  Uiso   1.00
H769   H     0.38860   0.68116   0.79706   0.00000  Uiso   1.00
H770   H     0.38906   0.81874   0.87010   0.00000  Uiso   1.00
H771   H     0.11104   0.67383   0.84933   0.00000  Uiso   1.00
H772   H     0.46960   0.81822   0.87161   0.00000  Uiso   1.00
H773   H     0.03070   0.67395   0.85078   0.00000  Uiso   1.00
H774   H     0.30673   0.53614   0.88229   0.00000  Uiso   1.00
H775   H     0.21184   0.96457   0.76677   0.00000  Uiso   1.00
H776   H     0.19208   0.53621   0.78708   0.00000  Uiso   1.00
H777   H     0.29155   0.96357   0.89846   0.00000  Uiso   1.00
H778   H     0.37537   0.64642   0.89812   0.00000  Uiso   1.00
N779   N     0.25000   0.62935   0.83333   0.00000  Uiso   1.00
N780   N     0.25000   0.87066   0.83333   0.00000  Uiso   1.00
O781   O     0.18573   0.79072   0.83334   0.00000  Uiso   1.00
O782   O     0.20290   0.86899   0.76321   0.00000  Uiso   1.00
O783   O     0.18890   0.63033   0.77794   0.00000  Uiso   1.00
O784   O     0.29943   0.86884   0.90161   0.00000  Uiso   1.00
O785   O     0.31427   0.70929   0.83333   0.00000  Uiso   1.00
O786   O     0.31427   0.79072   0.83333   0.00000  Uiso   1.00
O787   O     0.18573   0.70929   0.83334   0.00000  Uiso   1.00
O788   O     0.25000   0.79071   0.76280   0.00000  Uiso   1.00
O789   O     0.25000   0.70929   0.90387   0.00000  Uiso   1.00
O790   O     0.25000   0.79071   0.90387   0.00000  Uiso   1.00
O791   O     0.25000   0.70929   0.76280   0.00000  Uiso   1.00
O792   O     0.30924   0.63145   0.89093   0.00000  Uiso   1.00
C793   C     0.66495   0.75002   0.83343   0.00000  Uiso   1.00
C794   C     0.77310   0.94574   0.86976   0.00000  Uiso   1.00
C795   C     0.74992   0.75001   0.74023   0.00000  Uiso   1.00
C796   C     0.75004   0.74999   0.92644   0.00000  Uiso   1.00
C797   C     0.75040   0.52743   0.83341   0.00000  Uiso   1.00
C798   C     0.75018   0.97262   0.83366   0.00000  Uiso   1.00
C799   C     0.74994   0.75001   0.68852   0.00000  Uiso   1.00
C800   C     0.74998   0.74999   0.97815   0.00000  Uiso   1.00
C801   C     0.54718   0.79255   0.82536   0.00000  Uiso   1.00
C802   C     0.95203   0.71117   0.81348   0.00000  Uiso   1.00
C803   C     0.95229   0.78843   0.85463   0.00000  Uiso   1.00
C804   C     0.83496   0.74996   0.83342   0.00000  Uiso   1.00
C805   C     0.54769   0.70720   0.84298   0.00000  Uiso   1.00
C806   C     0.59308   0.79268   0.82557   0.00000  Uiso   1.00
C807   C     0.90612   0.71111   0.81351   0.00000  Uiso   1.00
C808   C     0.90637   0.78866   0.85399   0.00000  Uiso   1.00
C809   C     0.59361   0.70721   0.84245   0.00000  Uiso   1.00
C810   C     0.61662   0.74998   0.83379   0.00000  Uiso   1.00
C811   C     0.88311   0.74990   0.83364   0.00000  Uiso   1.00
C812   C     0.52409   0.74984   0.83420   0.00000  Uiso   1.00
C813   C     0.97551   0.74977   0.83418   0.00000  Uiso   1.00
C814   C     0.85359   0.61650   0.88625   0.00000  Uiso   1.00
C815   C     0.78116   0.60514   0.86057   0.00000  Uiso   1.00
C816   C     0.66079   0.88870   0.75279   0.00000  Uiso   1.00
C817   C     0.69317   0.61971   0.72751   0.00000  Uiso   1.00
C818   C     0.79014   0.88130   0.95073   0.00000  Uiso   1.00
C819   C     0.72578   0.89523   0.79866   0.00000  Uiso   1.00
C820   C     0.72002   0.60480   0.80499   0.00000  Uiso   1.00
C821   C     0.77315   0.89487   0.86904   0.00000  Uiso   1.00
C822   C     0.78179   0.55418   0.86057   0.00000  Uiso   1.00
C823   C     0.72746   0.94617   0.79722   0.00000  Uiso   1.00
C824   C     0.71871   0.55406   0.80642   0.00000  Uiso   1.00
Cu825  Cu    0.75000   0.79822   0.83333   0.00000  Uiso   1.00
Cu826  Cu    0.75000   0.70179   0.83333   0.00000  Uiso   1.00
H827   H     0.52978   0.82578   0.81771   0.00000  Uiso   1.00
H828   H     0.86222   0.60764   0.84762   0.00000  Uiso   1.00
H829   H     0.86078   0.58569   0.91099   0.00000  Uiso   1.00
H830   H     0.64418   0.90240   0.78628   0.00000  Uiso   1.00
H831   H     0.63956   0.85999   0.73705   0.00000  Uiso   1.00
H832   H     0.66319   0.91732   0.72455   0.00000  Uiso   1.00
H833   H     0.72821   0.62112   0.71548   0.00000  Uiso   1.00
H834   H     0.67466   0.64719   0.70603   0.00000  Uiso   1.00
H835   H     0.67841   0.58425   0.71854   0.00000  Uiso   1.00
H836   H     0.80147   0.85158   0.97496   0.00000  Uiso   1.00
H837   H     0.75411   0.88625   0.95707   0.00000  Uiso   1.00
H838   H     0.96911   0.68135   0.79665   0.00000  Uiso   1.00
H839   H     0.80885   0.91383   0.96195   0.00000  Uiso   1.00
H840   H     0.61008   0.82612   0.81891   0.00000  Uiso   1.00
H841   H     0.88860   0.68116   0.79706   0.00000  Uiso   1.00
H842   H     0.88906   0.81874   0.87010   0.00000  Uiso   1.00
H843   H     0.61104   0.67383   0.84933   0.00000  Uiso   1.00
H844   H     0.96960   0.81822   0.87161   0.00000  Uiso   1.00
H845   H     0.53070   0.67395   0.85078   0.00000  Uiso   1.00
H846   H     0.80673   0.53614   0.88229   0.00000  Uiso   1.00
H847   H     0.71184   0.96457   0.76677   0.00000  Uiso   1.00
H848   H     0.69208   0.53621   0.78708   0.00000  Uiso   1.00
H849   H     0.79155   0.96357   0.89846   0.00000  Uiso   1.00
H850   H     0.87537   0.64642   0.89812   0.00000  Uiso   1.00
N851   N     0.75000   0.62935   0.83333   0.00000  Uiso   1.00
N852   N     0.75000   0.87066   0.83333   0.00000  Uiso   1.00
O853   O     0.68573   0.79072   0.83334   0.00000  Uiso   1.00
O854   O     0.70290   0.86899   0.76321   0.00000  Uiso   1.00
O855   O     0.68890   0.63033   0.77794   0.00000  Uiso   1.00
O856   O     0.79943   0.86884   0.90161   0.00000  Uiso   1.00
O857   O     0.81427   0.70929   0.83333   0.00000  Uiso   1.00
O858   O     0.81427   0.79072   0.83333   0.00000  Uiso   1.00
O859   O     0.68573   0.70929   0.83334   0.00000  Uiso   1.00
O860   O     0.75000   0.79071   0.76280   0.00000  Uiso   1.00
O861   O     0.75000   0.70929   0.90387   0.00000  Uiso   1.00
O862   O     0.75000   0.79071   0.90387   0.00000  Uiso   1.00
O863   O     0.75000   0.70929   0.76280   0.00000  Uiso   1.00
O864   O     0.80924   0.63145   0.89093   0.00000  Uiso   1.00
loop_
_geom_bond_atom_site_label_1
_geom_bond_atom_site_label_2
_geom_bond_distance
_geom_bond_site_symmetry_2
_ccdc_geom_bond_type
C1     C18     1.463   .     S
C1     O67     1.297   .     A
C1     O61     1.298   .     A
C2     H57     1.076   .     S
C2     C6      1.409   .     A
C2     C29     1.417   .     A
C3     O71     1.290   .     A
C3     O68     1.290   .     A
C3     C7      1.407   .     S
C4     C8      1.407   .     S
C4     O70     1.290   .     A
C4     O69     1.290   .     A
C5     C32     1.410   .     A
C5     C30     1.411   .     A
C5     C150    1.527   1_545 S
C6     C31     1.409   .     A
C6     C149    1.527   .     S
C7     C584    1.190   1_554 S
C8     C295    1.190   .     S
C9     C14     1.390   .     A
C9     C20     1.403   .     A
C9     H35     1.083   .     S
C10    H46     1.083   .     S
C10    C15     1.390   .     A
C10    C21     1.404   .     A
C11    C16     1.390   .     A
C11    C21     1.404   .     A
C11    H52     1.083   .     S
C12    C19     1.457   .     S
C12    O65     1.296   .     A
C12    O66     1.296   .     A
C13    H53     1.083   .     S
C13    C20     1.404   .     A
C13    C17     1.390   .     A
C14    C18     1.402   .     A
C14    H48     1.081   .     S
C15    H49     1.083   .     S
C15    C19     1.401   .     A
C16    C19     1.401   .     A
C16    H50     1.083   .     S
C17    C18     1.403   .     A
C17    H51     1.083   .     S
C20    C93     1.471   1_455 S
C21    C92     1.471   .     S
C22    H58     1.109   .     S
C22    H36     1.115   .     S
C22    O72     1.413   .     S
C22    H37     1.110   .     S
C23    C30     1.420   .     A
C23    N59     1.368   .     A
C23    O72     1.388   .     S
C24    H38     1.114   .     S
C24    H39     1.109   .     S
C24    O62     1.412   .     S
C24    H40     1.110   .     S
C25    H42     1.110   .     S
C25    H43     1.111   .     S
C25    O63     1.412   .     S
C25    H41     1.115   .     S
C26    O64     1.413   .     S
C26    H44     1.109   .     S
C26    H47     1.110   .     S
C26    H45     1.115   .     S
C27    O62     1.389   .     S
C27    C31     1.421   .     A
C27    N60     1.370   .     A
C28    O63     1.383   .     S
C28    C32     1.415   .     A
C28    N59     1.368   .     A
C29    N60     1.369   .     A
C29    O64     1.387   .     S
C30    H54     1.076   .     S
C31    H55     1.078   .     S
C32    H56     1.079   .     S
Cu33   O70     1.931   .     S
Cu33   O66     1.956   .     S
Cu33   Cu34    2.686   .     S
Cu33   N60     2.018   .     S
Cu33   O61     1.957   .     S
Cu33   O68     1.931   .     S
Cu34   O69     1.931   .     S
Cu34   O67     1.956   .     S
Cu34   N59     2.018   .     S
Cu34   O65     1.957   .     S
Cu34   O71     1.931   .     S
C73    C90     1.463   .     S
C73    O139    1.297   .     A
C73    O133    1.298   .     A
C74    H129    1.076   .     S
C74    C78     1.409   .     A
C74    C101    1.417   .     A
C75    O143    1.290   .     A
C75    O140    1.290   .     A
C75    C79     1.407   .     S
C76    C80     1.407   .     S
C76    O142    1.290   .     A
C76    O141    1.290   .     A
C77    C104    1.410   .     A
C77    C102    1.411   .     A
C77    C222    1.527   1_545 S
C78    C103    1.409   .     A
C78    C221    1.527   .     S
C79    C656    1.190   1_554 S
C80    C367    1.190   .     S
C81    C86     1.390   .     A
C81    C92     1.403   .     A
C81    H107    1.083   .     S
C82    H118    1.083   .     S
C82    C87     1.390   .     A
C82    C93     1.404   .     A
C83    C88     1.390   .     A
C83    C93     1.404   .     A
C83    H124    1.083   .     S
C84    C91     1.457   .     S
C84    O137    1.296   .     A
C84    O138    1.296   .     A
C85    H125    1.083   .     S
C85    C92     1.404   .     A
C85    C89     1.390   .     A
C86    C90     1.402   .     A
C86    H120    1.081   .     S
C87    H121    1.083   .     S
C87    C91     1.401   .     A
C88    C91     1.401   .     A
C88    H122    1.083   .     S
C89    C90     1.403   .     A
C89    H123    1.083   .     S
C93    C20     1.471   1_655 S
C94    H130    1.109   .     S
C94    H108    1.115   .     S
C94    O144    1.413   .     S
C94    H109    1.110   .     S
C95    C102    1.420   .     A
C95    N131    1.368   .     A
C95    O144    1.388   .     S
C96    H110    1.114   .     S
C96    H111    1.109   .     S
C96    O134    1.412   .     S
C96    H112    1.110   .     S
C97    H114    1.110   .     S
C97    H115    1.111   .     S
C97    O135    1.412   .     S
C97    H113    1.115   .     S
C98    O136    1.413   .     S
C98    H116    1.109   .     S
C98    H119    1.110   .     S
C98    H117    1.115   .     S
C99    O134    1.389   .     S
C99    C103    1.421   .     A
C99    N132    1.370   .     A
C100   O135    1.383   .     S
C100   C104    1.415   .     A
C100   N131    1.368   .     A
C101   N132    1.369   .     A
C101   O136    1.387   .     S
C102   H126    1.076   .     S
C103   H127    1.078   .     S
C104   H128    1.079   .     S
Cu105  O142    1.931   .     S
Cu105  O138    1.956   .     S
Cu105  Cu106   2.686   .     S
Cu105  N132    2.018   .     S
Cu105  O133    1.957   .     S
Cu105  O140    1.931   .     S
Cu106  O141    1.931   .     S
Cu106  O139    1.956   .     S
Cu106  N131    2.018   .     S
Cu106  O137    1.957   .     S
Cu106  O143    1.931   .     S
C145   C162    1.463   .     S
C145   O211    1.297   .     A
C145   O205    1.298   .     A
C146   H201    1.076   .     S
C146   C150    1.409   .     A
C146   C173    1.417   .     A
C147   O215    1.290   .     A
C147   O212    1.290   .     A
C147   C151    1.407   .     S
C148   C152    1.407   .     S
C148   O214    1.290   .     A
C148   O213    1.290   .     A
C149   C176    1.410   .     A
C149   C174    1.411   .     A
C150   C175    1.409   .     A
C150   C5      1.527   1_565 S
C151   C728    1.190   1_554 S
C152   C439    1.190   .     S
C153   C158    1.390   .     A
C153   C164    1.403   .     A
C153   H179    1.083   .     S
C154   H190    1.083   .     S
C154   C159    1.390   .     A
C154   C165    1.404   .     A
C155   C160    1.390   .     A
C155   C165    1.404   .     A
C155   H196    1.083   .     S
C156   C163    1.457   .     S
C156   O209    1.296   .     A
C156   O210    1.296   .     A
C157   H197    1.083   .     S
C157   C164    1.404   .     A
C157   C161    1.390   .     A
C158   C162    1.402   .     A
C158   H192    1.081   .     S
C159   H193    1.083   .     S
C159   C163    1.401   .     A
C160   C163    1.401   .     A
C160   H194    1.083   .     S
C161   C162    1.403   .     A
C161   H195    1.083   .     S
C164   C237    1.471   1_455 S
C165   C236    1.471   .     S
C166   H202    1.109   .     S
C166   H180    1.115   .     S
C166   O216    1.413   .     S
C166   H181    1.110   .     S
C167   C174    1.420   .     A
C167   N203    1.368   .     A
C167   O216    1.388   .     S
C168   H182    1.114   .     S
C168   H183    1.109   .     S
C168   O206    1.412   .     S
C168   H184    1.110   .     S
C169   H186    1.110   .     S
C169   H187    1.111   .     S
C169   O207    1.412   .     S
C169   H185    1.115   .     S
C170   O208    1.413   .     S
C170   H188    1.109   .     S
C170   H191    1.110   .     S
C170   H189    1.115   .     S
C171   O206    1.389   .     S
C171   C175    1.421   .     A
C171   N204    1.370   .     A
C172   O207    1.383   .     S
C172   C176    1.415   .     A
C172   N203    1.368   .     A
C173   N204    1.369   .     A
C173   O208    1.387   .     S
C174   H198    1.076   .     S
C175   H199    1.078   .     S
C176   H200    1.079   .     S
Cu177  O214    1.931   .     S
Cu177  O210    1.956   .     S
Cu177  Cu178   2.686   .     S
Cu177  N204    2.018   .     S
Cu177  O205    1.957   .     S
Cu177  O212    1.931   .     S
Cu178  O213    1.931   .     S
Cu178  O211    1.956   .     S
Cu178  N203    2.018   .     S
Cu178  O209    1.957   .     S
Cu178  O215    1.931   .     S
C217   C234    1.463   .     S
C217   O283    1.297   .     A
C217   O277    1.298   .     A
C218   H273    1.076   .     S
C218   C222    1.409   .     A
C218   C245    1.417   .     A
C219   O287    1.290   .     A
C219   O284    1.290   .     A
C219   C223    1.407   .     S
C220   C224    1.407   .     S
C220   O286    1.290   .     A
C220   O285    1.290   .     A
C221   C248    1.410   .     A
C221   C246    1.411   .     A
C222   C247    1.409   .     A
C222   C77     1.527   1_565 S
C223   C800    1.190   1_554 S
C224   C511    1.190   .     S
C225   C230    1.390   .     A
C225   C236    1.403   .     A
C225   H251    1.083   .     S
C226   H262    1.083   .     S
C226   C231    1.390   .     A
C226   C237    1.404   .     A
C227   C232    1.390   .     A
C227   C237    1.404   .     A
C227   H268    1.083   .     S
C228   C235    1.457   .     S
C228   O281    1.296   .     A
C228   O282    1.296   .     A
C229   H269    1.083   .     S
C229   C236    1.404   .     A
C229   C233    1.390   .     A
C230   C234    1.402   .     A
C230   H264    1.081   .     S
C231   H265    1.083   .     S
C231   C235    1.401   .     A
C232   C235    1.401   .     A
C232   H266    1.083   .     S
C233   C234    1.403   .     A
C233   H267    1.083   .     S
C237   C164    1.471   1_655 S
C238   H274    1.109   .     S
C238   H252    1.115   .     S
C238   O288    1.413   .     S
C238   H253    1.110   .     S
C239   C246    1.420   .     A
C239   N275    1.368   .     A
C239   O288    1.388   .     S
C240   H254    1.114   .     S
C240   H255    1.109   .     S
C240   O278    1.412   .     S
C240   H256    1.110   .     S
C241   H258    1.110   .     S
C241   H259    1.111   .     S
C241   O279    1.412   .     S
C241   H257    1.115   .     S
C242   O280    1.413   .     S
C242   H260    1.109   .     S
C242   H263    1.110   .     S
C242   H261    1.115   .     S
C243   O278    1.389   .     S
C243   C247    1.421   .     A
C243   N276    1.370   .     A
C244   O279    1.383   .     S
C244   C248    1.415   .     A
C244   N275    1.368   .     A
C245   N276    1.369   .     A
C245   O280    1.387   .     S
C246   H270    1.076   .     S
C247   H271    1.078   .     S
C248   H272    1.079   .     S
Cu249  O286    1.931   .     S
Cu249  O282    1.956   .     S
Cu249  Cu250   2.686   .     S
Cu249  N276    2.018   .     S
Cu249  O277    1.957   .     S
Cu249  O284    1.931   .     S
Cu250  O285    1.931   .     S
Cu250  O283    1.956   .     S
Cu250  N275    2.018   .     S
Cu250  O281    1.957   .     S
Cu250  O287    1.931   .     S
C289   C306    1.463   .     S
C289   O355    1.297   .     A
C289   O349    1.298   .     A
C290   H345    1.076   .     S
C290   C294    1.409   .     A
C290   C317    1.417   .     A
C291   O359    1.290   .     A
C291   O356    1.290   .     A
C291   C295    1.407   .     S
C292   C296    1.407   .     S
C292   O358    1.290   .     A
C292   O357    1.290   .     A
C293   C320    1.410   .     A
C293   C318    1.411   .     A
C293   C438    1.527   1_545 S
C294   C319    1.409   .     A
C294   C437    1.527   .     S
C296   C583    1.190   .     S
C297   C302    1.390   .     A
C297   C308    1.403   .     A
C297   H323    1.083   .     S
C298   H334    1.083   .     S
C298   C303    1.390   .     A
C298   C309    1.404   .     A
C299   C304    1.390   .     A
C299   C309    1.404   .     A
C299   H340    1.083   .     S
C300   C307    1.457   .     S
C300   O353    1.296   .     A
C300   O354    1.296   .     A
C301   H341    1.083   .     S
C301   C308    1.404   .     A
C301   C305    1.390   .     A
C302   C306    1.402   .     A
C302   H336    1.081   .     S
C303   H337    1.083   .     S
C303   C307    1.401   .     A
C304   C307    1.401   .     A
C304   H338    1.083   .     S
C305   C306    1.403   .     A
C305   H339    1.083   .     S
C308   C381    1.471   1_455 S
C309   C380    1.471   .     S
C310   H346    1.109   .     S
C310   H324    1.115   .     S
C310   O360    1.413   .     S
C310   H325    1.110   .     S
C311   C318    1.420   .     A
C311   N347    1.368   .     A
C311   O360    1.388   .     S
C312   H326    1.114   .     S
C312   H327    1.109   .     S
C312   O350    1.412   .     S
C312   H328    1.110   .     S
C313   H330    1.110   .     S
C313   H331    1.111   .     S
C313   O351    1.412   .     S
C313   H329    1.115   .     S
C314   O352    1.413   .     S
C314   H332    1.109   .     S
C314   H335    1.110   .     S
C314   H333    1.115   .     S
C315   O350    1.389   .     S
C315   C319    1.421   .     A
C315   N348    1.370   .     A
C316   O351    1.383   .     S
C316   C320    1.415   .     A
C316   N347    1.368   .     A
C317   N348    1.369   .     A
C317   O352    1.387   .     S
C318   H342    1.076   .     S
C319   H343    1.078   .     S
C320   H344    1.079   .     S
Cu321  O358    1.931   .     S
Cu321  O354    1.956   .     S
Cu321  Cu322   2.686   .     S
Cu321  N348    2.018   .     S
Cu321  O349    1.957   .     S
Cu321  O356    1.931   .     S
Cu322  O357    1.931   .     S
Cu322  O355    1.956   .     S
Cu322  N347    2.018   .     S
Cu322  O353    1.957   .     S
Cu322  O359    1.931   .     S
C361   C378    1.463   .     S
C361   O427    1.297   .     A
C361   O421    1.298   .     A
C362   H417    1.076   .     S
C362   C366    1.409   .     A
C362   C389    1.417   .     A
C363   O431    1.290   .     A
C363   O428    1.290   .     A
C363   C367    1.407   .     S
C364   C368    1.407   .     S
C364   O430    1.290   .     A
C364   O429    1.290   .     A
C365   C392    1.410   .     A
C365   C390    1.411   .     A
C365   C510    1.527   1_545 S
C366   C391    1.409   .     A
C366   C509    1.527   .     S
C368   C655    1.190   .     S
C369   C374    1.390   .     A
C369   C380    1.403   .     A
C369   H395    1.083   .     S
C370   H406    1.083   .     S
C370   C375    1.390   .     A
C370   C381    1.404   .     A
C371   C376    1.390   .     A
C371   C381    1.404   .     A
C371   H412    1.083   .     S
C372   C379    1.457   .     S
C372   O425    1.296   .     A
C372   O426    1.296   .     A
C373   H413    1.083   .     S
C373   C380    1.404   .     A
C373   C377    1.390   .     A
C374   C378    1.402   .     A
C374   H408    1.081   .     S
C375   H409    1.083   .     S
C375   C379    1.401   .     A
C376   C379    1.401   .     A
C376   H410    1.083   .     S
C377   C378    1.403   .     A
C377   H411    1.083   .     S
C381   C308    1.471   1_655 S
C382   H418    1.109   .     S
C382   H396    1.115   .     S
C382   O432    1.413   .     S
C382   H397    1.110   .     S
C383   C390    1.420   .     A
C383   N419    1.368   .     A
C383   O432    1.388   .     S
C384   H398    1.114   .     S
C384   H399    1.109   .     S
C384   O422    1.412   .     S
C384   H400    1.110   .     S
C385   H402    1.110   .     S
C385   H403    1.111   .     S
C385   O423    1.412   .     S
C385   H401    1.115   .     S
C386   O424    1.413   .     S
C386   H404    1.109   .     S
C386   H407    1.110   .     S
C386   H405    1.115   .     S
C387   O422    1.389   .     S
C387   C391    1.421   .     A
C387   N420    1.370   .     A
C388   O423    1.383   .     S
C388   C392    1.415   .     A
C388   N419    1.368   .     A
C389   N420    1.369   .     A
C389   O424    1.387   .     S
C390   H414    1.076   .     S
C391   H415    1.078   .     S
C392   H416    1.079   .     S
Cu393  O430    1.931   .     S
Cu393  O426    1.956   .     S
Cu393  Cu394   2.686   .     S
Cu393  N420    2.018   .     S
Cu393  O421    1.957   .     S
Cu393  O428    1.931   .     S
Cu394  O429    1.931   .     S
Cu394  O427    1.956   .     S
Cu394  N419    2.018   .     S
Cu394  O425    1.957   .     S
Cu394  O431    1.931   .     S
C433   C450    1.463   .     S
C433   O499    1.297   .     A
C433   O493    1.298   .     A
C434   H489    1.076   .     S
C434   C438    1.409   .     A
C434   C461    1.417   .     A
C435   O503    1.290   .     A
C435   O500    1.290   .     A
C435   C439    1.407   .     S
C436   C440    1.407   .     S
C436   O502    1.290   .     A
C436   O501    1.290   .     A
C437   C464    1.410   .     A
C437   C462    1.411   .     A
C438   C463    1.409   .     A
C438   C293    1.527   1_565 S
C440   C727    1.190   .     S
C441   C446    1.390   .     A
C441   C452    1.403   .     A
C441   H467    1.083   .     S
C442   H478    1.083   .     S
C442   C447    1.390   .     A
C442   C453    1.404   .     A
C443   C448    1.390   .     A
C443   C453    1.404   .     A
C443   H484    1.083   .     S
C444   C451    1.457   .     S
C444   O497    1.296   .     A
C444   O498    1.296   .     A
C445   H485    1.083   .     S
C445   C452    1.404   .     A
C445   C449    1.390   .     A
C446   C450    1.402   .     A
C446   H480    1.081   .     S
C447   H481    1.083   .     S
C447   C451    1.401   .     A
C448   C451    1.401   .     A
C448   H482    1.083   .     S
C449   C450    1.403   .     A
C449   H483    1.083   .     S
C452   C525    1.471   1_455 S
C453   C524    1.471   .     S
C454   H490    1.109   .     S
C454   H468    1.115   .     S
C454   O504    1.413   .     S
C454   H469    1.110   .     S
C455   C462    1.420   .     A
C455   N491    1.368   .     A
C455   O504    1.388   .     S
C456   H470    1.114   .     S
C456   H471    1.109   .     S
C456   O494    1.412   .     S
C456   H472    1.110   .     S
C457   H474    1.110   .     S
C457   H475    1.111   .     S
C457   O495    1.412   .     S
C457   H473    1.115   .     S
C458   O496    1.413   .     S
C458   H476    1.109   .     S
C458   H479    1.110   .     S
C458   H477    1.115   .     S
C459   O494    1.389   .     S
C459   C463    1.421   .     A
C459   N492    1.370   .     A
C460   O495    1.383   .     S
C460   C464    1.415   .     A
C460   N491    1.368   .     A
C461   N492    1.369   .     A
C461   O496    1.387   .     S
C462   H486    1.076   .     S
C463   H487    1.078   .     S
C464   H488    1.079   .     S
Cu465  O502    1.931   .     S
Cu465  O498    1.956   .     S
Cu465  Cu466   2.686   .     S
Cu465  N492    2.018   .     S
Cu465  O493    1.957   .     S
Cu465  O500    1.931   .     S
Cu466  O501    1.931   .     S
Cu466  O499    1.956   .     S
Cu466  N491    2.018   .     S
Cu466  O497    1.957   .     S
Cu466  O503    1.931   .     S
C505   C522    1.463   .     S
C505   O571    1.297   .     A
C505   O565    1.298   .     A
C506   H561    1.076   .     S
C506   C510    1.409   .     A
C506   C533    1.417   .     A
C507   O575    1.290   .     A
C507   O572    1.290   .     A
C507   C511    1.407   .     S
C508   C512    1.407   .     S
C508   O574    1.290   .     A
C508   O573    1.290   .     A
C509   C536    1.410   .     A
C509   C534    1.411   .     A
C510   C535    1.409   .     A
C510   C365    1.527   1_565 S
C512   C799    1.190   .     S
C513   C518    1.390   .     A
C513   C524    1.403   .     A
C513   H539    1.083   .     S
C514   H550    1.083   .     S
C514   C519    1.390   .     A
C514   C525    1.404   .     A
C515   C520    1.390   .     A
C515   C525    1.404   .     A
C515   H556    1.083   .     S
C516   C523    1.457   .     S
C516   O569    1.296   .     A
C516   O570    1.296   .     A
C517   H557    1.083   .     S
C517   C524    1.404   .     A
C517   C521    1.390   .     A
C518   C522    1.402   .     A
C518   H552    1.081   .     S
C519   H553    1.083   .     S
C519   C523    1.401   .     A
C520   C523    1.401   .     A
C520   H554    1.083   .     S
C521   C522    1.403   .     A
C521   H555    1.083   .     S
C525   C452    1.471   1_655 S
C526   H562    1.109   .     S
C526   H540    1.115   .     S
C526   O576    1.413   .     S
C526   H541    1.110   .     S
C527   C534    1.420   .     A
C527   N563    1.368   .     A
C527   O576    1.388   .     S
C528   H542    1.114   .     S
C528   H543    1.109   .     S
C528   O566    1.412   .     S
C528   H544    1.110   .     S
C529   H546    1.110   .     S
C529   H547    1.111   .     S
C529   O567    1.412   .     S
C529   H545    1.115   .     S
C530   O568    1.413   .     S
C530   H548    1.109   .     S
C530   H551    1.110   .     S
C530   H549    1.115   .     S
C531   O566    1.389   .     S
C531   C535    1.421   .     A
C531   N564    1.370   .     A
C532   O567    1.383   .     S
C532   C536    1.415   .     A
C532   N563    1.368   .     A
C533   N564    1.369   .     A
C533   O568    1.387   .     S
C534   H558    1.076   .     S
C535   H559    1.078   .     S
C536   H560    1.079   .     S
Cu537  O574    1.931   .     S
Cu537  O570    1.956   .     S
Cu537  Cu538   2.686   .     S
Cu537  N564    2.018   .     S
Cu537  O565    1.957   .     S
Cu537  O572    1.931   .     S
Cu538  O573    1.931   .     S
Cu538  O571    1.956   .     S
Cu538  N563    2.018   .     S
Cu538  O569    1.957   .     S
Cu538  O575    1.931   .     S
C577   C594    1.463   .     S
C577   O643    1.297   .     A
C577   O637    1.298   .     A
C578   H633    1.076   .     S
C578   C582    1.409   .     A
C578   C605    1.417   .     A
C579   O647    1.290   .     A
C579   O644    1.290   .     A
C579   C583    1.407   .     S
C580   C584    1.407   .     S
C580   O646    1.290   .     A
C580   O645    1.290   .     A
C581   C608    1.410   .     A
C581   C606    1.411   .     A
C581   C726    1.527   1_545 S
C582   C607    1.409   .     A
C582   C725    1.527   .     S
C584   C7      1.190   1_556 S
C585   C590    1.390   .     A
C585   C596    1.403   .     A
C585   H611    1.083   .     S
C586   H622    1.083   .     S
C586   C591    1.390   .     A
C586   C597    1.404   .     A
C587   C592    1.390   .     A
C587   C597    1.404   .     A
C587   H628    1.083   .     S
C588   C595    1.457   .     S
C588   O641    1.296   .     A
C588   O642    1.296   .     A
C589   H629    1.083   .     S
C589   C596    1.404   .     A
C589   C593    1.390   .     A
C590   C594    1.402   .     A
C590   H624    1.081   .     S
C591   H625    1.083   .     S
C591   C595    1.401   .     A
C592   C595    1.401   .     A
C592   H626    1.083   .     S
C593   C594    1.403   .     A
C593   H627    1.083   .     S
C596   C669    1.471   1_455 S
C597   C668    1.471   .     S
C598   H634    1.109   .     S
C598   H612    1.115   .     S
C598   O648    1.413   .     S
C598   H613    1.110   .     S
C599   C606    1.420   .     A
C599   N635    1.368   .     A
C599   O648    1.388   .     S
C600   H614    1.114   .     S
C600   H615    1.109   .     S
C600   O638    1.412   .     S
C600   H616    1.110   .     S
C601   H618    1.110   .     S
C601   H619    1.111   .     S
C601   O639    1.412   .     S
C601   H617    1.115   .     S
C602   O640    1.413   .     S
C602   H620    1.109   .     S
C602   H623    1.110   .     S
C602   H621    1.115   .     S
C603   O638    1.389   .     S
C603   C607    1.421   .     A
C603   N636    1.370   .     A
C604   O639    1.383   .     S
C604   C608    1.415   .     A
C604   N635    1.368   .     A
C605   N636    1.369   .     A
C605   O640    1.387   .     S
C606   H630    1.076   .     S
C607   H631    1.078   .     S
C608   H632    1.079   .     S
Cu609  O646    1.931   .     S
Cu609  O642    1.956   .     S
Cu609  Cu610   2.686   .     S
Cu609  N636    2.018   .     S
Cu609  O637    1.957   .     S
Cu609  O644    1.931   .     S
Cu610  O645    1.931   .     S
Cu610  O643    1.956   .     S
Cu610  N635    2.018   .     S
Cu610  O641    1.957   .     S
Cu610  O647    1.931   .     S
C649   C666    1.463   .     S
C649   O715    1.297   .     A
C649   O709    1.298   .     A
C650   H705    1.076   .     S
C650   C654    1.409   .     A
C650   C677    1.417   .     A
C651   O719    1.290   .     A
C651   O716    1.290   .     A
C651   C655    1.407   .     S
C652   C656    1.407   .     S
C652   O718    1.290   .     A
C652   O717    1.290   .     A
C653   C680    1.410   .     A
C653   C678    1.411   .     A
C653   C798    1.527   1_545 S
C654   C679    1.409   .     A
C654   C797    1.527   .     S
C656   C79     1.190   1_556 S
C657   C662    1.390   .     A
C657   C668    1.403   .     A
C657   H683    1.083   .     S
C658   H694    1.083   .     S
C658   C663    1.390   .     A
C658   C669    1.404   .     A
C659   C664    1.390   .     A
C659   C669    1.404   .     A
C659   H700    1.083   .     S
C660   C667    1.457   .     S
C660   O713    1.296   .     A
C660   O714    1.296   .     A
C661   H701    1.083   .     S
C661   C668    1.404   .     A
C661   C665    1.390   .     A
C662   C666    1.402   .     A
C662   H696    1.081   .     S
C663   H697    1.083   .     S
C663   C667    1.401   .     A
C664   C667    1.401   .     A
C664   H698    1.083   .     S
C665   C666    1.403   .     A
C665   H699    1.083   .     S
C669   C596    1.471   1_655 S
C670   H706    1.109   .     S
C670   H684    1.115   .     S
C670   O720    1.413   .     S
C670   H685    1.110   .     S
C671   C678    1.420   .     A
C671   N707    1.368   .     A
C671   O720    1.388   .     S
C672   H686    1.114   .     S
C672   H687    1.109   .     S
C672   O710    1.412   .     S
C672   H688    1.110   .     S
C673   H690    1.110   .     S
C673   H691    1.111   .     S
C673   O711    1.412   .     S
C673   H689    1.115   .     S
C674   O712    1.413   .     S
C674   H692    1.109   .     S
C674   H695    1.110   .     S
C674   H693    1.115   .     S
C675   O710    1.389   .     S
C675   C679    1.421   .     A
C675   N708    1.370   .     A
C676   O711    1.383   .     S
C676   C680    1.415   .     A
C676   N707    1.368   .     A
C677   N708    1.369   .     A
C677   O712    1.387   .     S
C678   H702    1.076   .     S
C679   H703    1.078   .     S
C680   H704    1.079   .     S
Cu681  O718    1.931   .     S
Cu681  O714    1.956   .     S
Cu681  Cu682   2.686   .     S
Cu681  N708    2.018   .     S
Cu681  O709    1.957   .     S
Cu681  O716    1.931   .     S
Cu682  O717    1.931   .     S
Cu682  O715    1.956   .     S
Cu682  N707    2.018   .     S
Cu682  O713    1.957   .     S
Cu682  O719    1.931   .     S
C721   C738    1.463   .     S
C721   O787    1.297   .     A
C721   O781    1.298   .     A
C722   H777    1.076   .     S
C722   C726    1.409   .     A
C722   C749    1.417   .     A
C723   O791    1.290   .     A
C723   O788    1.290   .     A
C723   C727    1.407   .     S
C724   C728    1.407   .     S
C724   O790    1.290   .     A
C724   O789    1.290   .     A
C725   C752    1.410   .     A
C725   C750    1.411   .     A
C726   C751    1.409   .     A
C726   C581    1.527   1_565 S
C728   C151    1.190   1_556 S
C729   C734    1.390   .     A
C729   C740    1.403   .     A
C729   H755    1.083   .     S
C730   H766    1.083   .     S
C730   C735    1.390   .     A
C730   C741    1.404   .     A
C731   C736    1.390   .     A
C731   C741    1.404   .     A
C731   H772    1.083   .     S
C732   C739    1.457   .     S
C732   O785    1.296   .     A
C732   O786    1.296   .     A
C733   H773    1.083   .     S
C733   C740    1.404   .     A
C733   C737    1.390   .     A
C734   C738    1.402   .     A
C734   H768    1.081   .     S
C735   H769    1.083   .     S
C735   C739    1.401   .     A
C736   C739    1.401   .     A
C736   H770    1.083   .     S
C737   C738    1.403   .     A
C737   H771    1.083   .     S
C740   C813    1.471   1_455 S
C741   C812    1.471   .     S
C742   H778    1.109   .     S
C742   H756    1.115   .     S
C742   O792    1.413   .     S
C742   H757    1.110   .     S
C743   C750    1.420   .     A
C743   N779    1.368   .     A
C743   O792    1.388   .     S
C744   H758    1.114   .     S
C744   H759    1.109   .     S
C744   O782    1.412   .     S
C744   H760    1.110   .     S
C745   H762    1.110   .     S
C745   H763    1.111   .     S
C745   O783    1.412   .     S
C745   H761    1.115   .     S
C746   O784    1.413   .     S
C746   H764    1.109   .     S
C746   H767    1.110   .     S
C746   H765    1.115   .     S
C747   O782    1.389   .     S
C747   C751    1.421   .     A
C747   N780    1.370   .     A
C748   O783    1.383   .     S
C748   C752    1.415   .     A
C748   N779    1.368   .     A
C749   N780    1.369   .     A
C749   O784    1.387   .     S
C750   H774    1.076   .     S
C751   H775    1.078   .     S
C752   H776    1.079   .     S
Cu753  O790    1.931   .     S
Cu753  O786    1.956   .     S
Cu753  Cu754   2.686   .     S
Cu753  N780    2.018   .     S
Cu753  O781    1.957   .     S
Cu753  O788    1.931   .     S
Cu754  O789    1.931   .     S
Cu754  O787    1.956   .     S
Cu754  N779    2.018   .     S
Cu754  O785    1.957   .     S
Cu754  O791    1.931   .     S
C793   C810    1.463   .     S
C793   O859    1.297   .     A
C793   O853    1.298   .     A
C794   H849    1.076   .     S
C794   C798    1.409   .     A
C794   C821    1.417   .     A
C795   O863    1.290   .     A
C795   O860    1.290   .     A
C795   C799    1.407   .     S
C796   C800    1.407   .     S
C796   O862    1.290   .     A
C796   O861    1.290   .     A
C797   C824    1.410   .     A
C797   C822    1.411   .     A
C798   C823    1.409   .     A
C798   C653    1.527   1_565 S
C800   C223    1.190   1_556 S
C801   C806    1.390   .     A
C801   C812    1.403   .     A
C801   H827    1.083   .     S
C802   H838    1.083   .     S
C802   C807    1.390   .     A
C802   C813    1.404   .     A
C803   C808    1.390   .     A
C803   C813    1.404   .     A
C803   H844    1.083   .     S
C804   C811    1.457   .     S
C804   O857    1.296   .     A
C804   O858    1.296   .     A
C805   H845    1.083   .     S
C805   C812    1.404   .     A
C805   C809    1.390   .     A
C806   C810    1.402   .     A
C806   H840    1.081   .     S
C807   H841    1.083   .     S
C807   C811    1.401   .     A
C808   C811    1.401   .     A
C808   H842    1.083   .     S
C809   C810    1.403   .     A
C809   H843    1.083   .     S
C813   C740    1.471   1_655 S
C814   H850    1.109   .     S
C814   H828    1.115   .     S
C814   O864    1.413   .     S
C814   H829    1.110   .     S
C815   C822    1.420   .     A
C815   N851    1.368   .     A
C815   O864    1.388   .     S
C816   H830    1.114   .     S
C816   H831    1.109   .     S
C816   O854    1.412   .     S
C816   H832    1.110   .     S
C817   H834    1.110   .     S
C817   H835    1.111   .     S
C817   O855    1.412   .     S
C817   H833    1.115   .     S
C818   O856    1.413   .     S
C818   H836    1.109   .     S
C818   H839    1.110   .     S
C818   H837    1.115   .     S
C819   O854    1.389   .     S
C819   C823    1.421   .     A
C819   N852    1.370   .     A
C820   O855    1.383   .     S
C820   C824    1.415   .     A
C820   N851    1.368   .     A
C821   N852    1.369   .     A
C821   O856    1.387   .     S
C822   H846    1.076   .     S
C823   H847    1.078   .     S
C824   H848    1.079   .     S
Cu825  O862    1.931   .     S
Cu825  O858    1.956   .     S
Cu825  Cu826   2.686   .     S
Cu825  N852    2.018   .     S
Cu825  O853    1.957   .     S
Cu825  O860    1.931   .     S
Cu826  O861    1.931   .     S
Cu826  O859    1.956   .     S
Cu826  N851    2.018   .     S
Cu826  O857    1.957   .     S
Cu826  O863    1.931   .     S
