data_str_m2_o1_o18_pcu_sym.207
_audit_creation_date              2020-01-03
_audit_creation_method            'Materials Studio'
_symmetry_space_group_name_H-M    'P1'
_symmetry_Int_Tables_number       1
_symmetry_cell_setting            triclinic
loop_
_symmetry_equiv_pos_as_xyz
  x,y,z
_cell_length_a                    28.5204
_cell_length_b                    32.3993
_cell_length_c                    30.8330
_cell_angle_alpha                 89.7790
_cell_angle_beta                  74.1338
_cell_angle_gamma                 89.9215
loop_
_atom_site_label
_atom_site_type_symbol
_atom_site_fract_x
_atom_site_fract_y
_atom_site_fract_z
_atom_site_U_iso_or_equiv
_atom_site_adp_type
_atom_site_occupancy
O1     O     0.03958   0.10655   0.25000   0.00000  Uiso   1.00
O2     O     0.29375   0.22678   0.25000   0.00000  Uiso   1.00
O3     O     0.29372   0.10654   0.25000   0.00000  Uiso   1.00
O4     O     0.03961   0.22679   0.25000   0.00000  Uiso   1.00
C5     C     0.00042   0.08743   0.24866   0.00000  Uiso   1.00
C6     C     0.33294   0.24591   0.25126   0.00000  Uiso   1.00
O7     O     0.01852   0.16668   0.31492   0.00000  Uiso   1.00
O8     O     0.31481   0.16666   0.18509   0.00000  Uiso   1.00
O9     O     0.27267   0.16667   0.31492   0.00000  Uiso   1.00
O10    O     0.06067   0.16667   0.18508   0.00000  Uiso   1.00
C11    C     0.30568   0.16869   0.33641   0.00000  Uiso   1.00
C12    C     0.02735   0.16743   0.16386   0.00000  Uiso   1.00
Cu13   Cu    0.04689   0.16667   0.25000   0.00000  Uiso   1.00
Cu14   Cu    0.28645   0.16666   0.25000   0.00000  Uiso   1.00
C15    C     0.29018   0.17304   0.38630   0.00000  Uiso   1.00
C16    C     0.04242   0.17633   0.11544   0.00000  Uiso   1.00
C17    C     0.31048   0.16330   0.45712   0.00000  Uiso   1.00
C18    C     0.03507   0.22325   0.05661   0.00000  Uiso   1.00
C19    C     0.32444   0.16532   0.41032   0.00000  Uiso   1.00
C20    C     0.01553   0.20518   0.09849   0.00000  Uiso   1.00
C21    C     0.24169   0.18394   0.41044   0.00000  Uiso   1.00
C22    C     0.08804   0.16300   0.08845   0.00000  Uiso   1.00
C23    C     0.22819   0.18468   0.45855   0.00000  Uiso   1.00
C24    C     0.11201   0.18724   0.05028   0.00000  Uiso   1.00
C25    C     0.26162   0.16950   0.48172   0.00000  Uiso   1.00
C26    C     0.08416   0.21643   0.03289   0.00000  Uiso   1.00
C27    C     0.18125   0.19792   0.48443   0.00000  Uiso   1.00
C28    C     0.16267   0.18321   0.02867   0.00000  Uiso   1.00
C29    C     0.19595   0.16837   0.05132   0.00000  Uiso   1.00
C30    C     0.15422   0.22815   0.46888   0.00000  Uiso   1.00
C31    C     0.24509   0.16182   0.02887   0.00000  Uiso   1.00
C32    C     0.10637   0.23813   0.49258   0.00000  Uiso   1.00
H33    H     0.31302   0.21479   0.11833   0.00000  Uiso   1.00
H34    H     0.02877   0.15877   0.39279   0.00000  Uiso   1.00
H35    H     0.00533   0.15659   0.47337   0.00000  Uiso   1.00
H36    H     0.01176   0.24397   0.04452   0.00000  Uiso   1.00
H37    H     0.18396   0.16258   0.08730   0.00000  Uiso   1.00
H38    H     0.17167   0.24647   0.43957   0.00000  Uiso   1.00
C39    C     0.30751   0.02062   0.22311   0.00000  Uiso   1.00
C40    C     0.02589   0.31271   0.27671   0.00000  Uiso   1.00
C41    C     0.30636   0.31115   0.22636   0.00000  Uiso   1.00
C42    C     0.02709   0.02217   0.27343   0.00000  Uiso   1.00
H43    H     0.28678   0.29372   0.20694   0.00000  Uiso   1.00
H44    H     0.04670   0.03959   0.29283   0.00000  Uiso   1.00
C45    C     0.33239   0.29052   0.25232   0.00000  Uiso   1.00
C46    C     0.00101   0.04281   0.24751   0.00000  Uiso   1.00
C47    C     0.18261   0.14292   0.28004   0.00000  Uiso   1.00
C48    C     0.15074   0.19039   0.21993   0.00000  Uiso   1.00
H49    H     0.19422   0.12385   0.30405   0.00000  Uiso   1.00
H50    H     0.13912   0.20945   0.19590   0.00000  Uiso   1.00
C51    C     0.13297   0.14297   0.28006   0.00000  Uiso   1.00
C52    C     0.20037   0.19036   0.21993   0.00000  Uiso   1.00
H53    H     0.10713   0.12396   0.30409   0.00000  Uiso   1.00
H54    H     0.22622   0.20936   0.19589   0.00000  Uiso   1.00
N55    N     0.11736   0.16668   0.24999   0.00000  Uiso   1.00
N56    N     0.21597   0.16666   0.25001   0.00000  Uiso   1.00
C57    C     0.27570   0.14407   0.05637   0.00000  Uiso   1.00
H58    H     0.26683   0.15087   0.09215   0.00000  Uiso   1.00
O59    O     0.30860   0.11974   0.04068   0.00000  Uiso   1.00
C60    C     0.08125   0.27169   0.47446   0.00000  Uiso   1.00
H61    H     0.05062   0.28816   0.49592   0.00000  Uiso   1.00
O62    O     0.09520   0.28195   0.43484   0.00000  Uiso   1.00
C63    C     0.10586   0.12059   0.09520   0.00000  Uiso   1.00
H64    H     0.13573   0.10692   0.06972   0.00000  Uiso   1.00
O65    O     0.08600   0.09939   0.12786   0.00000  Uiso   1.00
C66    C     0.20348   0.18937   0.38636   0.00000  Uiso   1.00
H67    H     0.17133   0.16986   0.39497   0.00000  Uiso   1.00
O68    O     0.20628   0.21730   0.35902   0.00000  Uiso   1.00
N69    N     0.28335   0.04069   0.19349   0.00000  Uiso   1.00
O70    O     0.30504   0.07022   0.16676   0.00000  Uiso   1.00
O71    O     0.24309   0.02547   0.18819   0.00000  Uiso   1.00
N72    N     0.04990   0.29264   0.30646   0.00000  Uiso   1.00
O73    O     0.02798   0.26331   0.33336   0.00000  Uiso   1.00
O74    O     0.09023   0.30775   0.31173   0.00000  Uiso   1.00
O75    O     0.37291   0.10655   0.25000   0.00000  Uiso   1.00
O76    O     0.62709   0.22678   0.25000   0.00000  Uiso   1.00
O77    O     0.62706   0.10654   0.25000   0.00000  Uiso   1.00
O78    O     0.37294   0.22679   0.25000   0.00000  Uiso   1.00
C79    C     0.33375   0.08743   0.24866   0.00000  Uiso   1.00
C80    C     0.66627   0.24591   0.25126   0.00000  Uiso   1.00
O81    O     0.35186   0.16668   0.31492   0.00000  Uiso   1.00
O82    O     0.64814   0.16666   0.18509   0.00000  Uiso   1.00
O83    O     0.60600   0.16667   0.31492   0.00000  Uiso   1.00
O84    O     0.39400   0.16667   0.18508   0.00000  Uiso   1.00
C85    C     0.63902   0.16869   0.33641   0.00000  Uiso   1.00
C86    C     0.36068   0.16743   0.16386   0.00000  Uiso   1.00
Cu87   Cu    0.38022   0.16667   0.25000   0.00000  Uiso   1.00
Cu88   Cu    0.61978   0.16666   0.25000   0.00000  Uiso   1.00
C89    C     0.62351   0.17304   0.38630   0.00000  Uiso   1.00
C90    C     0.37576   0.17633   0.11544   0.00000  Uiso   1.00
C91    C     0.64381   0.16330   0.45712   0.00000  Uiso   1.00
C92    C     0.36841   0.22325   0.05661   0.00000  Uiso   1.00
C93    C     0.65777   0.16532   0.41032   0.00000  Uiso   1.00
C94    C     0.34886   0.20518   0.09849   0.00000  Uiso   1.00
C95    C     0.57503   0.18394   0.41044   0.00000  Uiso   1.00
C96    C     0.42138   0.16300   0.08845   0.00000  Uiso   1.00
C97    C     0.56153   0.18468   0.45855   0.00000  Uiso   1.00
C98    C     0.44534   0.18724   0.05028   0.00000  Uiso   1.00
C99    C     0.59495   0.16950   0.48172   0.00000  Uiso   1.00
C100   C     0.41749   0.21643   0.03289   0.00000  Uiso   1.00
C101   C     0.51459   0.19792   0.48443   0.00000  Uiso   1.00
C102   C     0.49601   0.18321   0.02867   0.00000  Uiso   1.00
C103   C     0.52929   0.16837   0.05132   0.00000  Uiso   1.00
C104   C     0.48756   0.22815   0.46888   0.00000  Uiso   1.00
C105   C     0.57842   0.16182   0.02887   0.00000  Uiso   1.00
C106   C     0.43970   0.23813   0.49258   0.00000  Uiso   1.00
H107   H     0.64635   0.21479   0.11833   0.00000  Uiso   1.00
H108   H     0.36210   0.15877   0.39279   0.00000  Uiso   1.00
H109   H     0.33867   0.15659   0.47337   0.00000  Uiso   1.00
H110   H     0.34509   0.24397   0.04452   0.00000  Uiso   1.00
H111   H     0.51729   0.16258   0.08730   0.00000  Uiso   1.00
H112   H     0.50500   0.24647   0.43957   0.00000  Uiso   1.00
C113   C     0.64084   0.02062   0.22311   0.00000  Uiso   1.00
C114   C     0.35923   0.31271   0.27671   0.00000  Uiso   1.00
C115   C     0.63970   0.31115   0.22636   0.00000  Uiso   1.00
C116   C     0.36042   0.02217   0.27343   0.00000  Uiso   1.00
H117   H     0.62011   0.29372   0.20694   0.00000  Uiso   1.00
H118   H     0.38003   0.03959   0.29283   0.00000  Uiso   1.00
C119   C     0.66573   0.29052   0.25232   0.00000  Uiso   1.00
C120   C     0.33434   0.04281   0.24751   0.00000  Uiso   1.00
C121   C     0.51594   0.14292   0.28004   0.00000  Uiso   1.00
C122   C     0.48407   0.19039   0.21993   0.00000  Uiso   1.00
H123   H     0.52756   0.12385   0.30405   0.00000  Uiso   1.00
H124   H     0.47246   0.20945   0.19590   0.00000  Uiso   1.00
C125   C     0.46630   0.14297   0.28006   0.00000  Uiso   1.00
C126   C     0.53371   0.19036   0.21993   0.00000  Uiso   1.00
H127   H     0.44047   0.12396   0.30409   0.00000  Uiso   1.00
H128   H     0.55955   0.20936   0.19589   0.00000  Uiso   1.00
N129   N     0.45069   0.16668   0.24999   0.00000  Uiso   1.00
N130   N     0.54931   0.16666   0.25001   0.00000  Uiso   1.00
C131   C     0.60904   0.14407   0.05637   0.00000  Uiso   1.00
H132   H     0.60016   0.15087   0.09215   0.00000  Uiso   1.00
O133   O     0.64193   0.11974   0.04068   0.00000  Uiso   1.00
C134   C     0.41458   0.27169   0.47446   0.00000  Uiso   1.00
H135   H     0.38395   0.28816   0.49592   0.00000  Uiso   1.00
O136   O     0.42853   0.28195   0.43484   0.00000  Uiso   1.00
C137   C     0.43920   0.12059   0.09520   0.00000  Uiso   1.00
H138   H     0.46906   0.10692   0.06972   0.00000  Uiso   1.00
O139   O     0.41933   0.09939   0.12786   0.00000  Uiso   1.00
C140   C     0.53681   0.18937   0.38636   0.00000  Uiso   1.00
H141   H     0.50467   0.16986   0.39497   0.00000  Uiso   1.00
O142   O     0.53962   0.21730   0.35902   0.00000  Uiso   1.00
N143   N     0.61669   0.04069   0.19349   0.00000  Uiso   1.00
O144   O     0.63837   0.07022   0.16676   0.00000  Uiso   1.00
O145   O     0.57642   0.02547   0.18819   0.00000  Uiso   1.00
N146   N     0.38323   0.29264   0.30646   0.00000  Uiso   1.00
O147   O     0.36131   0.26331   0.33336   0.00000  Uiso   1.00
O148   O     0.42356   0.30775   0.31173   0.00000  Uiso   1.00
O149   O     0.70625   0.10655   0.25000   0.00000  Uiso   1.00
O150   O     0.96042   0.22678   0.25000   0.00000  Uiso   1.00
O151   O     0.96039   0.10654   0.25000   0.00000  Uiso   1.00
O152   O     0.70628   0.22679   0.25000   0.00000  Uiso   1.00
C153   C     0.66709   0.08743   0.24866   0.00000  Uiso   1.00
C154   C     0.99961   0.24591   0.25126   0.00000  Uiso   1.00
O155   O     0.68519   0.16668   0.31492   0.00000  Uiso   1.00
O156   O     0.98148   0.16666   0.18509   0.00000  Uiso   1.00
O157   O     0.93933   0.16667   0.31492   0.00000  Uiso   1.00
O158   O     0.72733   0.16667   0.18508   0.00000  Uiso   1.00
C159   C     0.97235   0.16869   0.33641   0.00000  Uiso   1.00
C160   C     0.69401   0.16743   0.16386   0.00000  Uiso   1.00
Cu161  Cu    0.71355   0.16667   0.25000   0.00000  Uiso   1.00
Cu162  Cu    0.95311   0.16666   0.25000   0.00000  Uiso   1.00
C163   C     0.95685   0.17304   0.38630   0.00000  Uiso   1.00
C164   C     0.70909   0.17633   0.11544   0.00000  Uiso   1.00
C165   C     0.97714   0.16330   0.45712   0.00000  Uiso   1.00
C166   C     0.70174   0.22325   0.05661   0.00000  Uiso   1.00
C167   C     0.99110   0.16532   0.41032   0.00000  Uiso   1.00
C168   C     0.68219   0.20518   0.09849   0.00000  Uiso   1.00
C169   C     0.90836   0.18394   0.41044   0.00000  Uiso   1.00
C170   C     0.75471   0.16300   0.08845   0.00000  Uiso   1.00
C171   C     0.89486   0.18468   0.45855   0.00000  Uiso   1.00
C172   C     0.77868   0.18724   0.05028   0.00000  Uiso   1.00
C173   C     0.92828   0.16950   0.48172   0.00000  Uiso   1.00
C174   C     0.75082   0.21643   0.03289   0.00000  Uiso   1.00
C175   C     0.84792   0.19792   0.48443   0.00000  Uiso   1.00
C176   C     0.82934   0.18321   0.02867   0.00000  Uiso   1.00
C177   C     0.86262   0.16837   0.05132   0.00000  Uiso   1.00
C178   C     0.82089   0.22815   0.46888   0.00000  Uiso   1.00
C179   C     0.91175   0.16182   0.02887   0.00000  Uiso   1.00
C180   C     0.77304   0.23813   0.49258   0.00000  Uiso   1.00
H181   H     0.97968   0.21479   0.11833   0.00000  Uiso   1.00
H182   H     0.69543   0.15877   0.39279   0.00000  Uiso   1.00
H183   H     0.67200   0.15659   0.47337   0.00000  Uiso   1.00
H184   H     0.67843   0.24397   0.04452   0.00000  Uiso   1.00
H185   H     0.85062   0.16258   0.08730   0.00000  Uiso   1.00
H186   H     0.83834   0.24647   0.43957   0.00000  Uiso   1.00
C187   C     0.97417   0.02062   0.22311   0.00000  Uiso   1.00
C188   C     0.69256   0.31271   0.27671   0.00000  Uiso   1.00
C189   C     0.97303   0.31115   0.22636   0.00000  Uiso   1.00
C190   C     0.69375   0.02217   0.27343   0.00000  Uiso   1.00
H191   H     0.95344   0.29372   0.20694   0.00000  Uiso   1.00
H192   H     0.71336   0.03959   0.29283   0.00000  Uiso   1.00
C193   C     0.99906   0.29052   0.25232   0.00000  Uiso   1.00
C194   C     0.66768   0.04281   0.24751   0.00000  Uiso   1.00
C195   C     0.84927   0.14292   0.28004   0.00000  Uiso   1.00
C196   C     0.81740   0.19039   0.21993   0.00000  Uiso   1.00
H197   H     0.86089   0.12385   0.30405   0.00000  Uiso   1.00
H198   H     0.80579   0.20945   0.19590   0.00000  Uiso   1.00
C199   C     0.79963   0.14297   0.28006   0.00000  Uiso   1.00
C200   C     0.86704   0.19036   0.21993   0.00000  Uiso   1.00
H201   H     0.77380   0.12396   0.30409   0.00000  Uiso   1.00
H202   H     0.89288   0.20936   0.19589   0.00000  Uiso   1.00
N203   N     0.78403   0.16668   0.24999   0.00000  Uiso   1.00
N204   N     0.88264   0.16666   0.25001   0.00000  Uiso   1.00
C205   C     0.94237   0.14407   0.05637   0.00000  Uiso   1.00
H206   H     0.93350   0.15087   0.09215   0.00000  Uiso   1.00
O207   O     0.97527   0.11974   0.04068   0.00000  Uiso   1.00
C208   C     0.74792   0.27169   0.47446   0.00000  Uiso   1.00
H209   H     0.71728   0.28816   0.49592   0.00000  Uiso   1.00
O210   O     0.76187   0.28195   0.43484   0.00000  Uiso   1.00
C211   C     0.77253   0.12059   0.09520   0.00000  Uiso   1.00
H212   H     0.80240   0.10692   0.06972   0.00000  Uiso   1.00
O213   O     0.75266   0.09939   0.12786   0.00000  Uiso   1.00
C214   C     0.87014   0.18937   0.38636   0.00000  Uiso   1.00
H215   H     0.83800   0.16986   0.39497   0.00000  Uiso   1.00
O216   O     0.87295   0.21730   0.35902   0.00000  Uiso   1.00
N217   N     0.95002   0.04069   0.19349   0.00000  Uiso   1.00
O218   O     0.97170   0.07022   0.16676   0.00000  Uiso   1.00
O219   O     0.90975   0.02547   0.18819   0.00000  Uiso   1.00
N220   N     0.71657   0.29264   0.30646   0.00000  Uiso   1.00
O221   O     0.69464   0.26331   0.33336   0.00000  Uiso   1.00
O222   O     0.75690   0.30775   0.31173   0.00000  Uiso   1.00
O223   O     0.03958   0.43989   0.25000   0.00000  Uiso   1.00
O224   O     0.29375   0.56011   0.25000   0.00000  Uiso   1.00
O225   O     0.29372   0.43988   0.25000   0.00000  Uiso   1.00
O226   O     0.03961   0.56012   0.25000   0.00000  Uiso   1.00
C227   C     0.00042   0.42076   0.24866   0.00000  Uiso   1.00
C228   C     0.33294   0.57924   0.25126   0.00000  Uiso   1.00
O229   O     0.01852   0.50001   0.31492   0.00000  Uiso   1.00
O230   O     0.31481   0.49999   0.18509   0.00000  Uiso   1.00
O231   O     0.27267   0.50000   0.31492   0.00000  Uiso   1.00
O232   O     0.06067   0.50000   0.18508   0.00000  Uiso   1.00
C233   C     0.30568   0.50202   0.33641   0.00000  Uiso   1.00
C234   C     0.02735   0.50076   0.16386   0.00000  Uiso   1.00
Cu235  Cu    0.04689   0.50001   0.25000   0.00000  Uiso   1.00
Cu236  Cu    0.28645   0.49999   0.25000   0.00000  Uiso   1.00
C237   C     0.29018   0.50637   0.38630   0.00000  Uiso   1.00
C238   C     0.04242   0.50966   0.11544   0.00000  Uiso   1.00
C239   C     0.31048   0.49663   0.45712   0.00000  Uiso   1.00
C240   C     0.03507   0.55659   0.05661   0.00000  Uiso   1.00
C241   C     0.32444   0.49866   0.41032   0.00000  Uiso   1.00
C242   C     0.01553   0.53851   0.09849   0.00000  Uiso   1.00
C243   C     0.24169   0.51727   0.41044   0.00000  Uiso   1.00
C244   C     0.08804   0.49633   0.08845   0.00000  Uiso   1.00
C245   C     0.22819   0.51801   0.45855   0.00000  Uiso   1.00
C246   C     0.11201   0.52058   0.05028   0.00000  Uiso   1.00
C247   C     0.26162   0.50283   0.48172   0.00000  Uiso   1.00
C248   C     0.08416   0.54976   0.03289   0.00000  Uiso   1.00
C249   C     0.18125   0.53125   0.48443   0.00000  Uiso   1.00
C250   C     0.16267   0.51655   0.02867   0.00000  Uiso   1.00
C251   C     0.19595   0.50170   0.05132   0.00000  Uiso   1.00
C252   C     0.15422   0.56149   0.46888   0.00000  Uiso   1.00
C253   C     0.24509   0.49515   0.02887   0.00000  Uiso   1.00
C254   C     0.10637   0.57146   0.49258   0.00000  Uiso   1.00
H255   H     0.31302   0.54812   0.11833   0.00000  Uiso   1.00
H256   H     0.02877   0.49210   0.39279   0.00000  Uiso   1.00
H257   H     0.00533   0.48992   0.47337   0.00000  Uiso   1.00
H258   H     0.01176   0.57730   0.04452   0.00000  Uiso   1.00
H259   H     0.18396   0.49592   0.08730   0.00000  Uiso   1.00
H260   H     0.17167   0.57981   0.43957   0.00000  Uiso   1.00
C261   C     0.30751   0.35396   0.22311   0.00000  Uiso   1.00
C262   C     0.02589   0.64604   0.27671   0.00000  Uiso   1.00
C263   C     0.30636   0.64448   0.22636   0.00000  Uiso   1.00
C264   C     0.02709   0.35550   0.27343   0.00000  Uiso   1.00
H265   H     0.28678   0.62705   0.20694   0.00000  Uiso   1.00
H266   H     0.04670   0.37292   0.29283   0.00000  Uiso   1.00
C267   C     0.33239   0.62386   0.25232   0.00000  Uiso   1.00
C268   C     0.00101   0.37614   0.24751   0.00000  Uiso   1.00
C269   C     0.18261   0.47626   0.28004   0.00000  Uiso   1.00
C270   C     0.15074   0.52372   0.21993   0.00000  Uiso   1.00
H271   H     0.19422   0.45718   0.30405   0.00000  Uiso   1.00
H272   H     0.13912   0.54278   0.19590   0.00000  Uiso   1.00
C273   C     0.13297   0.47630   0.28006   0.00000  Uiso   1.00
C274   C     0.20037   0.52369   0.21993   0.00000  Uiso   1.00
H275   H     0.10713   0.45729   0.30409   0.00000  Uiso   1.00
H276   H     0.22622   0.54269   0.19589   0.00000  Uiso   1.00
N277   N     0.11736   0.50001   0.24999   0.00000  Uiso   1.00
N278   N     0.21597   0.49999   0.25001   0.00000  Uiso   1.00
C279   C     0.27570   0.47741   0.05637   0.00000  Uiso   1.00
H280   H     0.26683   0.48420   0.09215   0.00000  Uiso   1.00
O281   O     0.30860   0.45307   0.04068   0.00000  Uiso   1.00
C282   C     0.08125   0.60503   0.47446   0.00000  Uiso   1.00
H283   H     0.05062   0.62149   0.49592   0.00000  Uiso   1.00
O284   O     0.09520   0.61528   0.43484   0.00000  Uiso   1.00
C285   C     0.10586   0.45393   0.09520   0.00000  Uiso   1.00
H286   H     0.13573   0.44025   0.06972   0.00000  Uiso   1.00
O287   O     0.08600   0.43272   0.12786   0.00000  Uiso   1.00
C288   C     0.20348   0.52271   0.38636   0.00000  Uiso   1.00
H289   H     0.17133   0.50319   0.39497   0.00000  Uiso   1.00
O290   O     0.20628   0.55063   0.35902   0.00000  Uiso   1.00
N291   N     0.28335   0.37403   0.19349   0.00000  Uiso   1.00
O292   O     0.30504   0.40356   0.16676   0.00000  Uiso   1.00
O293   O     0.24309   0.35880   0.18819   0.00000  Uiso   1.00
N294   N     0.04990   0.62597   0.30646   0.00000  Uiso   1.00
O295   O     0.02798   0.59664   0.33336   0.00000  Uiso   1.00
O296   O     0.09023   0.64108   0.31173   0.00000  Uiso   1.00
O297   O     0.37291   0.43989   0.25000   0.00000  Uiso   1.00
O298   O     0.62709   0.56011   0.25000   0.00000  Uiso   1.00
O299   O     0.62706   0.43988   0.25000   0.00000  Uiso   1.00
O300   O     0.37294   0.56012   0.25000   0.00000  Uiso   1.00
C301   C     0.33375   0.42076   0.24866   0.00000  Uiso   1.00
C302   C     0.66627   0.57924   0.25126   0.00000  Uiso   1.00
O303   O     0.35186   0.50001   0.31492   0.00000  Uiso   1.00
O304   O     0.64814   0.49999   0.18509   0.00000  Uiso   1.00
O305   O     0.60600   0.50000   0.31492   0.00000  Uiso   1.00
O306   O     0.39400   0.50000   0.18508   0.00000  Uiso   1.00
C307   C     0.63902   0.50202   0.33641   0.00000  Uiso   1.00
C308   C     0.36068   0.50076   0.16386   0.00000  Uiso   1.00
Cu309  Cu    0.38022   0.50001   0.25000   0.00000  Uiso   1.00
Cu310  Cu    0.61978   0.49999   0.25000   0.00000  Uiso   1.00
C311   C     0.62351   0.50637   0.38630   0.00000  Uiso   1.00
C312   C     0.37576   0.50966   0.11544   0.00000  Uiso   1.00
C313   C     0.64381   0.49663   0.45712   0.00000  Uiso   1.00
C314   C     0.36841   0.55659   0.05661   0.00000  Uiso   1.00
C315   C     0.65777   0.49866   0.41032   0.00000  Uiso   1.00
C316   C     0.34886   0.53851   0.09849   0.00000  Uiso   1.00
C317   C     0.57503   0.51727   0.41044   0.00000  Uiso   1.00
C318   C     0.42138   0.49633   0.08845   0.00000  Uiso   1.00
C319   C     0.56153   0.51801   0.45855   0.00000  Uiso   1.00
C320   C     0.44534   0.52058   0.05028   0.00000  Uiso   1.00
C321   C     0.59495   0.50283   0.48172   0.00000  Uiso   1.00
C322   C     0.41749   0.54976   0.03289   0.00000  Uiso   1.00
C323   C     0.51459   0.53125   0.48443   0.00000  Uiso   1.00
C324   C     0.49601   0.51655   0.02867   0.00000  Uiso   1.00
C325   C     0.52929   0.50170   0.05132   0.00000  Uiso   1.00
C326   C     0.48756   0.56149   0.46888   0.00000  Uiso   1.00
C327   C     0.57842   0.49515   0.02887   0.00000  Uiso   1.00
C328   C     0.43970   0.57146   0.49258   0.00000  Uiso   1.00
H329   H     0.64635   0.54812   0.11833   0.00000  Uiso   1.00
H330   H     0.36210   0.49210   0.39279   0.00000  Uiso   1.00
H331   H     0.33867   0.48992   0.47337   0.00000  Uiso   1.00
H332   H     0.34509   0.57730   0.04452   0.00000  Uiso   1.00
H333   H     0.51729   0.49592   0.08730   0.00000  Uiso   1.00
H334   H     0.50500   0.57981   0.43957   0.00000  Uiso   1.00
C335   C     0.64084   0.35396   0.22311   0.00000  Uiso   1.00
C336   C     0.35923   0.64604   0.27671   0.00000  Uiso   1.00
C337   C     0.63970   0.64448   0.22636   0.00000  Uiso   1.00
C338   C     0.36042   0.35550   0.27343   0.00000  Uiso   1.00
H339   H     0.62011   0.62705   0.20694   0.00000  Uiso   1.00
H340   H     0.38003   0.37292   0.29283   0.00000  Uiso   1.00
C341   C     0.66573   0.62386   0.25232   0.00000  Uiso   1.00
C342   C     0.33434   0.37614   0.24751   0.00000  Uiso   1.00
C343   C     0.51594   0.47626   0.28004   0.00000  Uiso   1.00
C344   C     0.48407   0.52372   0.21993   0.00000  Uiso   1.00
H345   H     0.52756   0.45718   0.30405   0.00000  Uiso   1.00
H346   H     0.47246   0.54278   0.19590   0.00000  Uiso   1.00
C347   C     0.46630   0.47630   0.28006   0.00000  Uiso   1.00
C348   C     0.53371   0.52369   0.21993   0.00000  Uiso   1.00
H349   H     0.44047   0.45729   0.30409   0.00000  Uiso   1.00
H350   H     0.55955   0.54269   0.19589   0.00000  Uiso   1.00
N351   N     0.45069   0.50001   0.24999   0.00000  Uiso   1.00
N352   N     0.54931   0.49999   0.25001   0.00000  Uiso   1.00
C353   C     0.60904   0.47741   0.05637   0.00000  Uiso   1.00
H354   H     0.60016   0.48420   0.09215   0.00000  Uiso   1.00
O355   O     0.64193   0.45307   0.04068   0.00000  Uiso   1.00
C356   C     0.41458   0.60503   0.47446   0.00000  Uiso   1.00
H357   H     0.38395   0.62149   0.49592   0.00000  Uiso   1.00
O358   O     0.42853   0.61528   0.43484   0.00000  Uiso   1.00
C359   C     0.43920   0.45393   0.09520   0.00000  Uiso   1.00
H360   H     0.46906   0.44025   0.06972   0.00000  Uiso   1.00
O361   O     0.41933   0.43272   0.12786   0.00000  Uiso   1.00
C362   C     0.53681   0.52271   0.38636   0.00000  Uiso   1.00
H363   H     0.50467   0.50319   0.39497   0.00000  Uiso   1.00
O364   O     0.53962   0.55063   0.35902   0.00000  Uiso   1.00
N365   N     0.61669   0.37403   0.19349   0.00000  Uiso   1.00
O366   O     0.63837   0.40356   0.16676   0.00000  Uiso   1.00
O367   O     0.57642   0.35880   0.18819   0.00000  Uiso   1.00
N368   N     0.38323   0.62597   0.30646   0.00000  Uiso   1.00
O369   O     0.36131   0.59664   0.33336   0.00000  Uiso   1.00
O370   O     0.42356   0.64108   0.31173   0.00000  Uiso   1.00
O371   O     0.70625   0.43989   0.25000   0.00000  Uiso   1.00
O372   O     0.96042   0.56011   0.25000   0.00000  Uiso   1.00
O373   O     0.96039   0.43988   0.25000   0.00000  Uiso   1.00
O374   O     0.70628   0.56012   0.25000   0.00000  Uiso   1.00
C375   C     0.66709   0.42076   0.24866   0.00000  Uiso   1.00
C376   C     0.99961   0.57924   0.25126   0.00000  Uiso   1.00
O377   O     0.68519   0.50001   0.31492   0.00000  Uiso   1.00
O378   O     0.98148   0.49999   0.18509   0.00000  Uiso   1.00
O379   O     0.93933   0.50000   0.31492   0.00000  Uiso   1.00
O380   O     0.72733   0.50000   0.18508   0.00000  Uiso   1.00
C381   C     0.97235   0.50202   0.33641   0.00000  Uiso   1.00
C382   C     0.69401   0.50076   0.16386   0.00000  Uiso   1.00
Cu383  Cu    0.71355   0.50001   0.25000   0.00000  Uiso   1.00
Cu384  Cu    0.95311   0.49999   0.25000   0.00000  Uiso   1.00
C385   C     0.95685   0.50637   0.38630   0.00000  Uiso   1.00
C386   C     0.70909   0.50966   0.11544   0.00000  Uiso   1.00
C387   C     0.97714   0.49663   0.45712   0.00000  Uiso   1.00
C388   C     0.70174   0.55659   0.05661   0.00000  Uiso   1.00
C389   C     0.99110   0.49866   0.41032   0.00000  Uiso   1.00
C390   C     0.68219   0.53851   0.09849   0.00000  Uiso   1.00
C391   C     0.90836   0.51727   0.41044   0.00000  Uiso   1.00
C392   C     0.75471   0.49633   0.08845   0.00000  Uiso   1.00
C393   C     0.89486   0.51801   0.45855   0.00000  Uiso   1.00
C394   C     0.77868   0.52058   0.05028   0.00000  Uiso   1.00
C395   C     0.92828   0.50283   0.48172   0.00000  Uiso   1.00
C396   C     0.75082   0.54976   0.03289   0.00000  Uiso   1.00
C397   C     0.84792   0.53125   0.48443   0.00000  Uiso   1.00
C398   C     0.82934   0.51655   0.02867   0.00000  Uiso   1.00
C399   C     0.86262   0.50170   0.05132   0.00000  Uiso   1.00
C400   C     0.82089   0.56149   0.46888   0.00000  Uiso   1.00
C401   C     0.91175   0.49515   0.02887   0.00000  Uiso   1.00
C402   C     0.77304   0.57146   0.49258   0.00000  Uiso   1.00
H403   H     0.97968   0.54812   0.11833   0.00000  Uiso   1.00
H404   H     0.69543   0.49210   0.39279   0.00000  Uiso   1.00
H405   H     0.67200   0.48992   0.47337   0.00000  Uiso   1.00
H406   H     0.67843   0.57730   0.04452   0.00000  Uiso   1.00
H407   H     0.85062   0.49592   0.08730   0.00000  Uiso   1.00
H408   H     0.83834   0.57981   0.43957   0.00000  Uiso   1.00
C409   C     0.97417   0.35396   0.22311   0.00000  Uiso   1.00
C410   C     0.69256   0.64604   0.27671   0.00000  Uiso   1.00
C411   C     0.97303   0.64448   0.22636   0.00000  Uiso   1.00
C412   C     0.69375   0.35550   0.27343   0.00000  Uiso   1.00
H413   H     0.95344   0.62705   0.20694   0.00000  Uiso   1.00
H414   H     0.71336   0.37292   0.29283   0.00000  Uiso   1.00
C415   C     0.99906   0.62386   0.25232   0.00000  Uiso   1.00
C416   C     0.66768   0.37614   0.24751   0.00000  Uiso   1.00
C417   C     0.84927   0.47626   0.28004   0.00000  Uiso   1.00
C418   C     0.81740   0.52372   0.21993   0.00000  Uiso   1.00
H419   H     0.86089   0.45718   0.30405   0.00000  Uiso   1.00
H420   H     0.80579   0.54278   0.19590   0.00000  Uiso   1.00
C421   C     0.79963   0.47630   0.28006   0.00000  Uiso   1.00
C422   C     0.86704   0.52369   0.21993   0.00000  Uiso   1.00
H423   H     0.77380   0.45729   0.30409   0.00000  Uiso   1.00
H424   H     0.89288   0.54269   0.19589   0.00000  Uiso   1.00
N425   N     0.78403   0.50001   0.24999   0.00000  Uiso   1.00
N426   N     0.88264   0.49999   0.25001   0.00000  Uiso   1.00
C427   C     0.94237   0.47741   0.05637   0.00000  Uiso   1.00
H428   H     0.93350   0.48420   0.09215   0.00000  Uiso   1.00
O429   O     0.97527   0.45307   0.04068   0.00000  Uiso   1.00
C430   C     0.74792   0.60503   0.47446   0.00000  Uiso   1.00
H431   H     0.71728   0.62149   0.49592   0.00000  Uiso   1.00
O432   O     0.76187   0.61528   0.43484   0.00000  Uiso   1.00
C433   C     0.77253   0.45393   0.09520   0.00000  Uiso   1.00
H434   H     0.80240   0.44025   0.06972   0.00000  Uiso   1.00
O435   O     0.75266   0.43272   0.12786   0.00000  Uiso   1.00
C436   C     0.87014   0.52271   0.38636   0.00000  Uiso   1.00
H437   H     0.83800   0.50319   0.39497   0.00000  Uiso   1.00
O438   O     0.87295   0.55063   0.35902   0.00000  Uiso   1.00
N439   N     0.95002   0.37403   0.19349   0.00000  Uiso   1.00
O440   O     0.97170   0.40356   0.16676   0.00000  Uiso   1.00
O441   O     0.90975   0.35880   0.18819   0.00000  Uiso   1.00
N442   N     0.71657   0.62597   0.30646   0.00000  Uiso   1.00
O443   O     0.69464   0.59664   0.33336   0.00000  Uiso   1.00
O444   O     0.75690   0.64108   0.31173   0.00000  Uiso   1.00
O445   O     0.03958   0.77322   0.25000   0.00000  Uiso   1.00
O446   O     0.29375   0.89345   0.25000   0.00000  Uiso   1.00
O447   O     0.29372   0.77321   0.25000   0.00000  Uiso   1.00
O448   O     0.03961   0.89346   0.25000   0.00000  Uiso   1.00
C449   C     0.00042   0.75409   0.24866   0.00000  Uiso   1.00
C450   C     0.33294   0.91258   0.25126   0.00000  Uiso   1.00
O451   O     0.01852   0.83334   0.31492   0.00000  Uiso   1.00
O452   O     0.31481   0.83332   0.18509   0.00000  Uiso   1.00
O453   O     0.27267   0.83333   0.31492   0.00000  Uiso   1.00
O454   O     0.06067   0.83333   0.18508   0.00000  Uiso   1.00
C455   C     0.30568   0.83536   0.33641   0.00000  Uiso   1.00
C456   C     0.02735   0.83409   0.16386   0.00000  Uiso   1.00
Cu457  Cu    0.04689   0.83334   0.25000   0.00000  Uiso   1.00
Cu458  Cu    0.28645   0.83333   0.25000   0.00000  Uiso   1.00
C459   C     0.29018   0.83971   0.38630   0.00000  Uiso   1.00
C460   C     0.04242   0.84300   0.11544   0.00000  Uiso   1.00
C461   C     0.31048   0.82997   0.45712   0.00000  Uiso   1.00
C462   C     0.03507   0.88992   0.05661   0.00000  Uiso   1.00
C463   C     0.32444   0.83199   0.41032   0.00000  Uiso   1.00
C464   C     0.01553   0.87185   0.09849   0.00000  Uiso   1.00
C465   C     0.24169   0.85060   0.41044   0.00000  Uiso   1.00
C466   C     0.08804   0.82967   0.08845   0.00000  Uiso   1.00
C467   C     0.22819   0.85134   0.45855   0.00000  Uiso   1.00
C468   C     0.11201   0.85391   0.05028   0.00000  Uiso   1.00
C469   C     0.26162   0.83616   0.48172   0.00000  Uiso   1.00
C470   C     0.08416   0.88309   0.03289   0.00000  Uiso   1.00
C471   C     0.18125   0.86458   0.48443   0.00000  Uiso   1.00
C472   C     0.16267   0.84988   0.02867   0.00000  Uiso   1.00
C473   C     0.19595   0.83504   0.05132   0.00000  Uiso   1.00
C474   C     0.15422   0.89482   0.46888   0.00000  Uiso   1.00
C475   C     0.24509   0.82849   0.02887   0.00000  Uiso   1.00
C476   C     0.10637   0.90479   0.49258   0.00000  Uiso   1.00
H477   H     0.31302   0.88146   0.11833   0.00000  Uiso   1.00
H478   H     0.02877   0.82543   0.39279   0.00000  Uiso   1.00
H479   H     0.00533   0.82326   0.47337   0.00000  Uiso   1.00
H480   H     0.01176   0.91063   0.04452   0.00000  Uiso   1.00
H481   H     0.18396   0.82925   0.08730   0.00000  Uiso   1.00
H482   H     0.17167   0.91314   0.43957   0.00000  Uiso   1.00
C483   C     0.30751   0.68729   0.22311   0.00000  Uiso   1.00
C484   C     0.02589   0.97937   0.27671   0.00000  Uiso   1.00
C485   C     0.30636   0.97782   0.22636   0.00000  Uiso   1.00
C486   C     0.02709   0.68884   0.27343   0.00000  Uiso   1.00
H487   H     0.28678   0.96038   0.20694   0.00000  Uiso   1.00
H488   H     0.04670   0.70626   0.29283   0.00000  Uiso   1.00
C489   C     0.33239   0.95719   0.25232   0.00000  Uiso   1.00
C490   C     0.00101   0.70947   0.24751   0.00000  Uiso   1.00
C491   C     0.18261   0.80959   0.28004   0.00000  Uiso   1.00
C492   C     0.15074   0.85705   0.21993   0.00000  Uiso   1.00
H493   H     0.19422   0.79051   0.30405   0.00000  Uiso   1.00
H494   H     0.13912   0.87612   0.19590   0.00000  Uiso   1.00
C495   C     0.13297   0.80964   0.28006   0.00000  Uiso   1.00
C496   C     0.20037   0.85702   0.21993   0.00000  Uiso   1.00
H497   H     0.10713   0.79063   0.30409   0.00000  Uiso   1.00
H498   H     0.22622   0.87602   0.19589   0.00000  Uiso   1.00
N499   N     0.11736   0.83334   0.24999   0.00000  Uiso   1.00
N500   N     0.21597   0.83332   0.25001   0.00000  Uiso   1.00
C501   C     0.27570   0.81074   0.05637   0.00000  Uiso   1.00
H502   H     0.26683   0.81754   0.09215   0.00000  Uiso   1.00
O503   O     0.30860   0.78640   0.04068   0.00000  Uiso   1.00
C504   C     0.08125   0.93836   0.47446   0.00000  Uiso   1.00
H505   H     0.05062   0.95482   0.49592   0.00000  Uiso   1.00
O506   O     0.09520   0.94862   0.43484   0.00000  Uiso   1.00
C507   C     0.10586   0.78726   0.09520   0.00000  Uiso   1.00
H508   H     0.13573   0.77359   0.06972   0.00000  Uiso   1.00
O509   O     0.08600   0.76606   0.12786   0.00000  Uiso   1.00
C510   C     0.20348   0.85604   0.38636   0.00000  Uiso   1.00
H511   H     0.17133   0.83652   0.39497   0.00000  Uiso   1.00
O512   O     0.20628   0.88397   0.35902   0.00000  Uiso   1.00
N513   N     0.28335   0.70736   0.19349   0.00000  Uiso   1.00
O514   O     0.30504   0.73689   0.16676   0.00000  Uiso   1.00
O515   O     0.24309   0.69213   0.18819   0.00000  Uiso   1.00
N516   N     0.04990   0.95930   0.30646   0.00000  Uiso   1.00
O517   O     0.02798   0.92998   0.33336   0.00000  Uiso   1.00
O518   O     0.09023   0.97442   0.31173   0.00000  Uiso   1.00
O519   O     0.37291   0.77322   0.25000   0.00000  Uiso   1.00
O520   O     0.62709   0.89345   0.25000   0.00000  Uiso   1.00
O521   O     0.62706   0.77321   0.25000   0.00000  Uiso   1.00
O522   O     0.37294   0.89346   0.25000   0.00000  Uiso   1.00
C523   C     0.33375   0.75409   0.24866   0.00000  Uiso   1.00
C524   C     0.66627   0.91258   0.25126   0.00000  Uiso   1.00
O525   O     0.35186   0.83334   0.31492   0.00000  Uiso   1.00
O526   O     0.64814   0.83332   0.18509   0.00000  Uiso   1.00
O527   O     0.60600   0.83333   0.31492   0.00000  Uiso   1.00
O528   O     0.39400   0.83333   0.18508   0.00000  Uiso   1.00
C529   C     0.63902   0.83536   0.33641   0.00000  Uiso   1.00
C530   C     0.36068   0.83409   0.16386   0.00000  Uiso   1.00
Cu531  Cu    0.38022   0.83334   0.25000   0.00000  Uiso   1.00
Cu532  Cu    0.61978   0.83333   0.25000   0.00000  Uiso   1.00
C533   C     0.62351   0.83971   0.38630   0.00000  Uiso   1.00
C534   C     0.37576   0.84300   0.11544   0.00000  Uiso   1.00
C535   C     0.64381   0.82997   0.45712   0.00000  Uiso   1.00
C536   C     0.36841   0.88992   0.05661   0.00000  Uiso   1.00
C537   C     0.65777   0.83199   0.41032   0.00000  Uiso   1.00
C538   C     0.34886   0.87185   0.09849   0.00000  Uiso   1.00
C539   C     0.57503   0.85060   0.41044   0.00000  Uiso   1.00
C540   C     0.42138   0.82967   0.08845   0.00000  Uiso   1.00
C541   C     0.56153   0.85134   0.45855   0.00000  Uiso   1.00
C542   C     0.44534   0.85391   0.05028   0.00000  Uiso   1.00
C543   C     0.59495   0.83616   0.48172   0.00000  Uiso   1.00
C544   C     0.41749   0.88309   0.03289   0.00000  Uiso   1.00
C545   C     0.51459   0.86458   0.48443   0.00000  Uiso   1.00
C546   C     0.49601   0.84988   0.02867   0.00000  Uiso   1.00
C547   C     0.52929   0.83504   0.05132   0.00000  Uiso   1.00
C548   C     0.48756   0.89482   0.46888   0.00000  Uiso   1.00
C549   C     0.57842   0.82849   0.02887   0.00000  Uiso   1.00
C550   C     0.43970   0.90479   0.49258   0.00000  Uiso   1.00
H551   H     0.64635   0.88146   0.11833   0.00000  Uiso   1.00
H552   H     0.36210   0.82543   0.39279   0.00000  Uiso   1.00
H553   H     0.33867   0.82326   0.47337   0.00000  Uiso   1.00
H554   H     0.34509   0.91063   0.04452   0.00000  Uiso   1.00
H555   H     0.51729   0.82925   0.08730   0.00000  Uiso   1.00
H556   H     0.50500   0.91314   0.43957   0.00000  Uiso   1.00
C557   C     0.64084   0.68729   0.22311   0.00000  Uiso   1.00
C558   C     0.35923   0.97937   0.27671   0.00000  Uiso   1.00
C559   C     0.63970   0.97782   0.22636   0.00000  Uiso   1.00
C560   C     0.36042   0.68884   0.27343   0.00000  Uiso   1.00
H561   H     0.62011   0.96038   0.20694   0.00000  Uiso   1.00
H562   H     0.38003   0.70626   0.29283   0.00000  Uiso   1.00
C563   C     0.66573   0.95719   0.25232   0.00000  Uiso   1.00
C564   C     0.33434   0.70947   0.24751   0.00000  Uiso   1.00
C565   C     0.51594   0.80959   0.28004   0.00000  Uiso   1.00
C566   C     0.48407   0.85705   0.21993   0.00000  Uiso   1.00
H567   H     0.52756   0.79051   0.30405   0.00000  Uiso   1.00
H568   H     0.47246   0.87612   0.19590   0.00000  Uiso   1.00
C569   C     0.46630   0.80964   0.28006   0.00000  Uiso   1.00
C570   C     0.53371   0.85702   0.21993   0.00000  Uiso   1.00
H571   H     0.44047   0.79063   0.30409   0.00000  Uiso   1.00
H572   H     0.55955   0.87602   0.19589   0.00000  Uiso   1.00
N573   N     0.45069   0.83334   0.24999   0.00000  Uiso   1.00
N574   N     0.54931   0.83332   0.25001   0.00000  Uiso   1.00
C575   C     0.60904   0.81074   0.05637   0.00000  Uiso   1.00
H576   H     0.60016   0.81754   0.09215   0.00000  Uiso   1.00
O577   O     0.64193   0.78640   0.04068   0.00000  Uiso   1.00
C578   C     0.41458   0.93836   0.47446   0.00000  Uiso   1.00
H579   H     0.38395   0.95482   0.49592   0.00000  Uiso   1.00
O580   O     0.42853   0.94862   0.43484   0.00000  Uiso   1.00
C581   C     0.43920   0.78726   0.09520   0.00000  Uiso   1.00
H582   H     0.46906   0.77359   0.06972   0.00000  Uiso   1.00
O583   O     0.41933   0.76606   0.12786   0.00000  Uiso   1.00
C584   C     0.53681   0.85604   0.38636   0.00000  Uiso   1.00
H585   H     0.50467   0.83652   0.39497   0.00000  Uiso   1.00
O586   O     0.53962   0.88397   0.35902   0.00000  Uiso   1.00
N587   N     0.61669   0.70736   0.19349   0.00000  Uiso   1.00
O588   O     0.63837   0.73689   0.16676   0.00000  Uiso   1.00
O589   O     0.57642   0.69213   0.18819   0.00000  Uiso   1.00
N590   N     0.38323   0.95930   0.30646   0.00000  Uiso   1.00
O591   O     0.36131   0.92998   0.33336   0.00000  Uiso   1.00
O592   O     0.42356   0.97442   0.31173   0.00000  Uiso   1.00
O593   O     0.70625   0.77322   0.25000   0.00000  Uiso   1.00
O594   O     0.96042   0.89345   0.25000   0.00000  Uiso   1.00
O595   O     0.96039   0.77321   0.25000   0.00000  Uiso   1.00
O596   O     0.70628   0.89346   0.25000   0.00000  Uiso   1.00
C597   C     0.66709   0.75409   0.24866   0.00000  Uiso   1.00
C598   C     0.99961   0.91258   0.25126   0.00000  Uiso   1.00
O599   O     0.68519   0.83334   0.31492   0.00000  Uiso   1.00
O600   O     0.98148   0.83332   0.18509   0.00000  Uiso   1.00
O601   O     0.93933   0.83333   0.31492   0.00000  Uiso   1.00
O602   O     0.72733   0.83333   0.18508   0.00000  Uiso   1.00
C603   C     0.97235   0.83536   0.33641   0.00000  Uiso   1.00
C604   C     0.69401   0.83409   0.16386   0.00000  Uiso   1.00
Cu605  Cu    0.71355   0.83334   0.25000   0.00000  Uiso   1.00
Cu606  Cu    0.95311   0.83333   0.25000   0.00000  Uiso   1.00
C607   C     0.95685   0.83971   0.38630   0.00000  Uiso   1.00
C608   C     0.70909   0.84300   0.11544   0.00000  Uiso   1.00
C609   C     0.97714   0.82997   0.45712   0.00000  Uiso   1.00
C610   C     0.70174   0.88992   0.05661   0.00000  Uiso   1.00
C611   C     0.99110   0.83199   0.41032   0.00000  Uiso   1.00
C612   C     0.68219   0.87185   0.09849   0.00000  Uiso   1.00
C613   C     0.90836   0.85060   0.41044   0.00000  Uiso   1.00
C614   C     0.75471   0.82967   0.08845   0.00000  Uiso   1.00
C615   C     0.89486   0.85134   0.45855   0.00000  Uiso   1.00
C616   C     0.77868   0.85391   0.05028   0.00000  Uiso   1.00
C617   C     0.92828   0.83616   0.48172   0.00000  Uiso   1.00
C618   C     0.75082   0.88309   0.03289   0.00000  Uiso   1.00
C619   C     0.84792   0.86458   0.48443   0.00000  Uiso   1.00
C620   C     0.82934   0.84988   0.02867   0.00000  Uiso   1.00
C621   C     0.86262   0.83504   0.05132   0.00000  Uiso   1.00
C622   C     0.82089   0.89482   0.46888   0.00000  Uiso   1.00
C623   C     0.91175   0.82849   0.02887   0.00000  Uiso   1.00
C624   C     0.77304   0.90479   0.49258   0.00000  Uiso   1.00
H625   H     0.97968   0.88146   0.11833   0.00000  Uiso   1.00
H626   H     0.69543   0.82543   0.39279   0.00000  Uiso   1.00
H627   H     0.67200   0.82326   0.47337   0.00000  Uiso   1.00
H628   H     0.67843   0.91063   0.04452   0.00000  Uiso   1.00
H629   H     0.85062   0.82925   0.08730   0.00000  Uiso   1.00
H630   H     0.83834   0.91314   0.43957   0.00000  Uiso   1.00
C631   C     0.97417   0.68729   0.22311   0.00000  Uiso   1.00
C632   C     0.69256   0.97937   0.27671   0.00000  Uiso   1.00
C633   C     0.97303   0.97782   0.22636   0.00000  Uiso   1.00
C634   C     0.69375   0.68884   0.27343   0.00000  Uiso   1.00
H635   H     0.95344   0.96038   0.20694   0.00000  Uiso   1.00
H636   H     0.71336   0.70626   0.29283   0.00000  Uiso   1.00
C637   C     0.99906   0.95719   0.25232   0.00000  Uiso   1.00
C638   C     0.66768   0.70947   0.24751   0.00000  Uiso   1.00
C639   C     0.84927   0.80959   0.28004   0.00000  Uiso   1.00
C640   C     0.81740   0.85705   0.21993   0.00000  Uiso   1.00
H641   H     0.86089   0.79051   0.30405   0.00000  Uiso   1.00
H642   H     0.80579   0.87612   0.19590   0.00000  Uiso   1.00
C643   C     0.79963   0.80964   0.28006   0.00000  Uiso   1.00
C644   C     0.86704   0.85702   0.21993   0.00000  Uiso   1.00
H645   H     0.77380   0.79063   0.30409   0.00000  Uiso   1.00
H646   H     0.89288   0.87602   0.19589   0.00000  Uiso   1.00
N647   N     0.78403   0.83334   0.24999   0.00000  Uiso   1.00
N648   N     0.88264   0.83332   0.25001   0.00000  Uiso   1.00
C649   C     0.94237   0.81074   0.05637   0.00000  Uiso   1.00
H650   H     0.93350   0.81754   0.09215   0.00000  Uiso   1.00
O651   O     0.97527   0.78640   0.04068   0.00000  Uiso   1.00
C652   C     0.74792   0.93836   0.47446   0.00000  Uiso   1.00
H653   H     0.71728   0.95482   0.49592   0.00000  Uiso   1.00
O654   O     0.76187   0.94862   0.43484   0.00000  Uiso   1.00
C655   C     0.77253   0.78726   0.09520   0.00000  Uiso   1.00
H656   H     0.80240   0.77359   0.06972   0.00000  Uiso   1.00
O657   O     0.75266   0.76606   0.12786   0.00000  Uiso   1.00
C658   C     0.87014   0.85604   0.38636   0.00000  Uiso   1.00
H659   H     0.83800   0.83652   0.39497   0.00000  Uiso   1.00
O660   O     0.87295   0.88397   0.35902   0.00000  Uiso   1.00
N661   N     0.95002   0.70736   0.19349   0.00000  Uiso   1.00
O662   O     0.97170   0.73689   0.16676   0.00000  Uiso   1.00
O663   O     0.90975   0.69213   0.18819   0.00000  Uiso   1.00
N664   N     0.71657   0.95930   0.30646   0.00000  Uiso   1.00
O665   O     0.69464   0.92998   0.33336   0.00000  Uiso   1.00
O666   O     0.75690   0.97442   0.31173   0.00000  Uiso   1.00
O667   O     0.03958   0.10655   0.75000   0.00000  Uiso   1.00
O668   O     0.29375   0.22678   0.75000   0.00000  Uiso   1.00
O669   O     0.29372   0.10654   0.75000   0.00000  Uiso   1.00
O670   O     0.03961   0.22679   0.75000   0.00000  Uiso   1.00
C671   C     0.00042   0.08743   0.74866   0.00000  Uiso   1.00
C672   C     0.33294   0.24591   0.75126   0.00000  Uiso   1.00
O673   O     0.01852   0.16668   0.81492   0.00000  Uiso   1.00
O674   O     0.31481   0.16666   0.68509   0.00000  Uiso   1.00
O675   O     0.27267   0.16667   0.81492   0.00000  Uiso   1.00
O676   O     0.06067   0.16667   0.68508   0.00000  Uiso   1.00
C677   C     0.30568   0.16869   0.83641   0.00000  Uiso   1.00
C678   C     0.02735   0.16743   0.66386   0.00000  Uiso   1.00
Cu679  Cu    0.04689   0.16667   0.75000   0.00000  Uiso   1.00
Cu680  Cu    0.28645   0.16666   0.75000   0.00000  Uiso   1.00
C681   C     0.29018   0.17304   0.88630   0.00000  Uiso   1.00
C682   C     0.04242   0.17633   0.61544   0.00000  Uiso   1.00
C683   C     0.31048   0.16330   0.95712   0.00000  Uiso   1.00
C684   C     0.03507   0.22325   0.55661   0.00000  Uiso   1.00
C685   C     0.32444   0.16532   0.91032   0.00000  Uiso   1.00
C686   C     0.01553   0.20518   0.59849   0.00000  Uiso   1.00
C687   C     0.24169   0.18394   0.91044   0.00000  Uiso   1.00
C688   C     0.08804   0.16300   0.58845   0.00000  Uiso   1.00
C689   C     0.22819   0.18468   0.95855   0.00000  Uiso   1.00
C690   C     0.11201   0.18724   0.55028   0.00000  Uiso   1.00
C691   C     0.26162   0.16950   0.98172   0.00000  Uiso   1.00
C692   C     0.08416   0.21643   0.53289   0.00000  Uiso   1.00
C693   C     0.18125   0.19792   0.98443   0.00000  Uiso   1.00
C694   C     0.16267   0.18321   0.52867   0.00000  Uiso   1.00
C695   C     0.19595   0.16837   0.55132   0.00000  Uiso   1.00
C696   C     0.15422   0.22815   0.96888   0.00000  Uiso   1.00
C697   C     0.24509   0.16182   0.52887   0.00000  Uiso   1.00
C698   C     0.10637   0.23813   0.99258   0.00000  Uiso   1.00
H699   H     0.31302   0.21479   0.61833   0.00000  Uiso   1.00
H700   H     0.02877   0.15877   0.89279   0.00000  Uiso   1.00
H701   H     0.00533   0.15659   0.97337   0.00000  Uiso   1.00
H702   H     0.01176   0.24397   0.54452   0.00000  Uiso   1.00
H703   H     0.18396   0.16258   0.58730   0.00000  Uiso   1.00
H704   H     0.17167   0.24647   0.93957   0.00000  Uiso   1.00
C705   C     0.30751   0.02062   0.72311   0.00000  Uiso   1.00
C706   C     0.02589   0.31271   0.77671   0.00000  Uiso   1.00
C707   C     0.30636   0.31115   0.72636   0.00000  Uiso   1.00
C708   C     0.02709   0.02217   0.77343   0.00000  Uiso   1.00
H709   H     0.28678   0.29372   0.70694   0.00000  Uiso   1.00
H710   H     0.04670   0.03959   0.79283   0.00000  Uiso   1.00
C711   C     0.33239   0.29052   0.75232   0.00000  Uiso   1.00
C712   C     0.00101   0.04281   0.74751   0.00000  Uiso   1.00
C713   C     0.18261   0.14292   0.78004   0.00000  Uiso   1.00
C714   C     0.15074   0.19039   0.71993   0.00000  Uiso   1.00
H715   H     0.19422   0.12385   0.80405   0.00000  Uiso   1.00
H716   H     0.13912   0.20945   0.69590   0.00000  Uiso   1.00
C717   C     0.13297   0.14297   0.78006   0.00000  Uiso   1.00
C718   C     0.20037   0.19036   0.71993   0.00000  Uiso   1.00
H719   H     0.10713   0.12396   0.80409   0.00000  Uiso   1.00
H720   H     0.22622   0.20936   0.69589   0.00000  Uiso   1.00
N721   N     0.11736   0.16668   0.74999   0.00000  Uiso   1.00
N722   N     0.21597   0.16666   0.75001   0.00000  Uiso   1.00
C723   C     0.27570   0.14407   0.55637   0.00000  Uiso   1.00
H724   H     0.26683   0.15087   0.59215   0.00000  Uiso   1.00
O725   O     0.30860   0.11974   0.54068   0.00000  Uiso   1.00
C726   C     0.08125   0.27169   0.97446   0.00000  Uiso   1.00
H727   H     0.05062   0.28816   0.99592   0.00000  Uiso   1.00
O728   O     0.09520   0.28195   0.93484   0.00000  Uiso   1.00
C729   C     0.10586   0.12059   0.59520   0.00000  Uiso   1.00
H730   H     0.13573   0.10692   0.56972   0.00000  Uiso   1.00
O731   O     0.08600   0.09939   0.62786   0.00000  Uiso   1.00
C732   C     0.20348   0.18937   0.88636   0.00000  Uiso   1.00
H733   H     0.17133   0.16986   0.89497   0.00000  Uiso   1.00
O734   O     0.20628   0.21730   0.85902   0.00000  Uiso   1.00
N735   N     0.28335   0.04069   0.69349   0.00000  Uiso   1.00
O736   O     0.30504   0.07022   0.66676   0.00000  Uiso   1.00
O737   O     0.24309   0.02547   0.68819   0.00000  Uiso   1.00
N738   N     0.04990   0.29264   0.80646   0.00000  Uiso   1.00
O739   O     0.02798   0.26331   0.83336   0.00000  Uiso   1.00
O740   O     0.09023   0.30775   0.81173   0.00000  Uiso   1.00
O741   O     0.37291   0.10655   0.75000   0.00000  Uiso   1.00
O742   O     0.62709   0.22678   0.75000   0.00000  Uiso   1.00
O743   O     0.62706   0.10654   0.75000   0.00000  Uiso   1.00
O744   O     0.37294   0.22679   0.75000   0.00000  Uiso   1.00
C745   C     0.33375   0.08743   0.74866   0.00000  Uiso   1.00
C746   C     0.66627   0.24591   0.75126   0.00000  Uiso   1.00
O747   O     0.35186   0.16668   0.81492   0.00000  Uiso   1.00
O748   O     0.64814   0.16666   0.68509   0.00000  Uiso   1.00
O749   O     0.60600   0.16667   0.81492   0.00000  Uiso   1.00
O750   O     0.39400   0.16667   0.68508   0.00000  Uiso   1.00
C751   C     0.63902   0.16869   0.83641   0.00000  Uiso   1.00
C752   C     0.36068   0.16743   0.66386   0.00000  Uiso   1.00
Cu753  Cu    0.38022   0.16667   0.75000   0.00000  Uiso   1.00
Cu754  Cu    0.61978   0.16666   0.75000   0.00000  Uiso   1.00
C755   C     0.62351   0.17304   0.88630   0.00000  Uiso   1.00
C756   C     0.37576   0.17633   0.61544   0.00000  Uiso   1.00
C757   C     0.64381   0.16330   0.95712   0.00000  Uiso   1.00
C758   C     0.36841   0.22325   0.55661   0.00000  Uiso   1.00
C759   C     0.65777   0.16532   0.91032   0.00000  Uiso   1.00
C760   C     0.34886   0.20518   0.59849   0.00000  Uiso   1.00
C761   C     0.57503   0.18394   0.91044   0.00000  Uiso   1.00
C762   C     0.42138   0.16300   0.58845   0.00000  Uiso   1.00
C763   C     0.56153   0.18468   0.95855   0.00000  Uiso   1.00
C764   C     0.44534   0.18724   0.55028   0.00000  Uiso   1.00
C765   C     0.59495   0.16950   0.98172   0.00000  Uiso   1.00
C766   C     0.41749   0.21643   0.53289   0.00000  Uiso   1.00
C767   C     0.51459   0.19792   0.98443   0.00000  Uiso   1.00
C768   C     0.49601   0.18321   0.52867   0.00000  Uiso   1.00
C769   C     0.52929   0.16837   0.55132   0.00000  Uiso   1.00
C770   C     0.48756   0.22815   0.96888   0.00000  Uiso   1.00
C771   C     0.57842   0.16182   0.52887   0.00000  Uiso   1.00
C772   C     0.43970   0.23813   0.99258   0.00000  Uiso   1.00
H773   H     0.64635   0.21479   0.61833   0.00000  Uiso   1.00
H774   H     0.36210   0.15877   0.89279   0.00000  Uiso   1.00
H775   H     0.33867   0.15659   0.97337   0.00000  Uiso   1.00
H776   H     0.34509   0.24397   0.54452   0.00000  Uiso   1.00
H777   H     0.51729   0.16258   0.58730   0.00000  Uiso   1.00
H778   H     0.50500   0.24647   0.93957   0.00000  Uiso   1.00
C779   C     0.64084   0.02062   0.72311   0.00000  Uiso   1.00
C780   C     0.35923   0.31271   0.77671   0.00000  Uiso   1.00
C781   C     0.63970   0.31115   0.72636   0.00000  Uiso   1.00
C782   C     0.36042   0.02217   0.77343   0.00000  Uiso   1.00
H783   H     0.62011   0.29372   0.70694   0.00000  Uiso   1.00
H784   H     0.38003   0.03959   0.79283   0.00000  Uiso   1.00
C785   C     0.66573   0.29052   0.75232   0.00000  Uiso   1.00
C786   C     0.33434   0.04281   0.74751   0.00000  Uiso   1.00
C787   C     0.51594   0.14292   0.78004   0.00000  Uiso   1.00
C788   C     0.48407   0.19039   0.71993   0.00000  Uiso   1.00
H789   H     0.52756   0.12385   0.80405   0.00000  Uiso   1.00
H790   H     0.47246   0.20945   0.69590   0.00000  Uiso   1.00
C791   C     0.46630   0.14297   0.78006   0.00000  Uiso   1.00
C792   C     0.53371   0.19036   0.71993   0.00000  Uiso   1.00
H793   H     0.44047   0.12396   0.80409   0.00000  Uiso   1.00
H794   H     0.55955   0.20936   0.69589   0.00000  Uiso   1.00
N795   N     0.45069   0.16668   0.74999   0.00000  Uiso   1.00
N796   N     0.54931   0.16666   0.75001   0.00000  Uiso   1.00
C797   C     0.60904   0.14407   0.55637   0.00000  Uiso   1.00
H798   H     0.60016   0.15087   0.59215   0.00000  Uiso   1.00
O799   O     0.64193   0.11974   0.54068   0.00000  Uiso   1.00
C800   C     0.41458   0.27169   0.97446   0.00000  Uiso   1.00
H801   H     0.38395   0.28816   0.99592   0.00000  Uiso   1.00
O802   O     0.42853   0.28195   0.93484   0.00000  Uiso   1.00
C803   C     0.43920   0.12059   0.59520   0.00000  Uiso   1.00
H804   H     0.46906   0.10692   0.56972   0.00000  Uiso   1.00
O805   O     0.41933   0.09939   0.62786   0.00000  Uiso   1.00
C806   C     0.53681   0.18937   0.88636   0.00000  Uiso   1.00
H807   H     0.50467   0.16986   0.89497   0.00000  Uiso   1.00
O808   O     0.53962   0.21730   0.85902   0.00000  Uiso   1.00
N809   N     0.61669   0.04069   0.69349   0.00000  Uiso   1.00
O810   O     0.63837   0.07022   0.66676   0.00000  Uiso   1.00
O811   O     0.57642   0.02547   0.68819   0.00000  Uiso   1.00
N812   N     0.38323   0.29264   0.80646   0.00000  Uiso   1.00
O813   O     0.36131   0.26331   0.83336   0.00000  Uiso   1.00
O814   O     0.42356   0.30775   0.81173   0.00000  Uiso   1.00
O815   O     0.70625   0.10655   0.75000   0.00000  Uiso   1.00
O816   O     0.96042   0.22678   0.75000   0.00000  Uiso   1.00
O817   O     0.96039   0.10654   0.75000   0.00000  Uiso   1.00
O818   O     0.70628   0.22679   0.75000   0.00000  Uiso   1.00
C819   C     0.66709   0.08743   0.74866   0.00000  Uiso   1.00
C820   C     0.99961   0.24591   0.75126   0.00000  Uiso   1.00
O821   O     0.68519   0.16668   0.81492   0.00000  Uiso   1.00
O822   O     0.98148   0.16666   0.68509   0.00000  Uiso   1.00
O823   O     0.93933   0.16667   0.81492   0.00000  Uiso   1.00
O824   O     0.72733   0.16667   0.68508   0.00000  Uiso   1.00
C825   C     0.97235   0.16869   0.83641   0.00000  Uiso   1.00
C826   C     0.69401   0.16743   0.66386   0.00000  Uiso   1.00
Cu827  Cu    0.71355   0.16667   0.75000   0.00000  Uiso   1.00
Cu828  Cu    0.95311   0.16666   0.75000   0.00000  Uiso   1.00
C829   C     0.95685   0.17304   0.88630   0.00000  Uiso   1.00
C830   C     0.70909   0.17633   0.61544   0.00000  Uiso   1.00
C831   C     0.97714   0.16330   0.95712   0.00000  Uiso   1.00
C832   C     0.70174   0.22325   0.55661   0.00000  Uiso   1.00
C833   C     0.99110   0.16532   0.91032   0.00000  Uiso   1.00
C834   C     0.68219   0.20518   0.59849   0.00000  Uiso   1.00
C835   C     0.90836   0.18394   0.91044   0.00000  Uiso   1.00
C836   C     0.75471   0.16300   0.58845   0.00000  Uiso   1.00
C837   C     0.89486   0.18468   0.95855   0.00000  Uiso   1.00
C838   C     0.77868   0.18724   0.55028   0.00000  Uiso   1.00
C839   C     0.92828   0.16950   0.98172   0.00000  Uiso   1.00
C840   C     0.75082   0.21643   0.53289   0.00000  Uiso   1.00
C841   C     0.84792   0.19792   0.98443   0.00000  Uiso   1.00
C842   C     0.82934   0.18321   0.52867   0.00000  Uiso   1.00
C843   C     0.86262   0.16837   0.55132   0.00000  Uiso   1.00
C844   C     0.82089   0.22815   0.96888   0.00000  Uiso   1.00
C845   C     0.91175   0.16182   0.52887   0.00000  Uiso   1.00
C846   C     0.77304   0.23813   0.99258   0.00000  Uiso   1.00
H847   H     0.97968   0.21479   0.61833   0.00000  Uiso   1.00
H848   H     0.69543   0.15877   0.89279   0.00000  Uiso   1.00
H849   H     0.67200   0.15659   0.97337   0.00000  Uiso   1.00
H850   H     0.67843   0.24397   0.54452   0.00000  Uiso   1.00
H851   H     0.85062   0.16258   0.58730   0.00000  Uiso   1.00
H852   H     0.83834   0.24647   0.93957   0.00000  Uiso   1.00
C853   C     0.97417   0.02062   0.72311   0.00000  Uiso   1.00
C854   C     0.69256   0.31271   0.77671   0.00000  Uiso   1.00
C855   C     0.97303   0.31115   0.72636   0.00000  Uiso   1.00
C856   C     0.69375   0.02217   0.77343   0.00000  Uiso   1.00
H857   H     0.95344   0.29372   0.70694   0.00000  Uiso   1.00
H858   H     0.71336   0.03959   0.79283   0.00000  Uiso   1.00
C859   C     0.99906   0.29052   0.75232   0.00000  Uiso   1.00
C860   C     0.66768   0.04281   0.74751   0.00000  Uiso   1.00
C861   C     0.84927   0.14292   0.78004   0.00000  Uiso   1.00
C862   C     0.81740   0.19039   0.71993   0.00000  Uiso   1.00
H863   H     0.86089   0.12385   0.80405   0.00000  Uiso   1.00
H864   H     0.80579   0.20945   0.69590   0.00000  Uiso   1.00
C865   C     0.79963   0.14297   0.78006   0.00000  Uiso   1.00
C866   C     0.86704   0.19036   0.71993   0.00000  Uiso   1.00
H867   H     0.77380   0.12396   0.80409   0.00000  Uiso   1.00
H868   H     0.89288   0.20936   0.69589   0.00000  Uiso   1.00
N869   N     0.78403   0.16668   0.74999   0.00000  Uiso   1.00
N870   N     0.88264   0.16666   0.75001   0.00000  Uiso   1.00
C871   C     0.94237   0.14407   0.55637   0.00000  Uiso   1.00
H872   H     0.93350   0.15087   0.59215   0.00000  Uiso   1.00
O873   O     0.97527   0.11974   0.54068   0.00000  Uiso   1.00
C874   C     0.74792   0.27169   0.97446   0.00000  Uiso   1.00
H875   H     0.71728   0.28816   0.99592   0.00000  Uiso   1.00
O876   O     0.76187   0.28195   0.93484   0.00000  Uiso   1.00
C877   C     0.77253   0.12059   0.59520   0.00000  Uiso   1.00
H878   H     0.80240   0.10692   0.56972   0.00000  Uiso   1.00
O879   O     0.75266   0.09939   0.62786   0.00000  Uiso   1.00
C880   C     0.87014   0.18937   0.88636   0.00000  Uiso   1.00
H881   H     0.83800   0.16986   0.89497   0.00000  Uiso   1.00
O882   O     0.87295   0.21730   0.85902   0.00000  Uiso   1.00
N883   N     0.95002   0.04069   0.69349   0.00000  Uiso   1.00
O884   O     0.97170   0.07022   0.66676   0.00000  Uiso   1.00
O885   O     0.90975   0.02547   0.68819   0.00000  Uiso   1.00
N886   N     0.71657   0.29264   0.80646   0.00000  Uiso   1.00
O887   O     0.69464   0.26331   0.83336   0.00000  Uiso   1.00
O888   O     0.75690   0.30775   0.81173   0.00000  Uiso   1.00
O889   O     0.03958   0.43989   0.75000   0.00000  Uiso   1.00
O890   O     0.29375   0.56011   0.75000   0.00000  Uiso   1.00
O891   O     0.29372   0.43988   0.75000   0.00000  Uiso   1.00
O892   O     0.03961   0.56012   0.75000   0.00000  Uiso   1.00
C893   C     0.00042   0.42076   0.74866   0.00000  Uiso   1.00
C894   C     0.33294   0.57924   0.75126   0.00000  Uiso   1.00
O895   O     0.01852   0.50001   0.81492   0.00000  Uiso   1.00
O896   O     0.31481   0.49999   0.68509   0.00000  Uiso   1.00
O897   O     0.27267   0.50000   0.81492   0.00000  Uiso   1.00
O898   O     0.06067   0.50000   0.68508   0.00000  Uiso   1.00
C899   C     0.30568   0.50202   0.83641   0.00000  Uiso   1.00
C900   C     0.02735   0.50076   0.66386   0.00000  Uiso   1.00
Cu901  Cu    0.04689   0.50001   0.75000   0.00000  Uiso   1.00
Cu902  Cu    0.28645   0.49999   0.75000   0.00000  Uiso   1.00
C903   C     0.29018   0.50637   0.88630   0.00000  Uiso   1.00
C904   C     0.04242   0.50966   0.61544   0.00000  Uiso   1.00
C905   C     0.31048   0.49663   0.95712   0.00000  Uiso   1.00
C906   C     0.03507   0.55659   0.55661   0.00000  Uiso   1.00
C907   C     0.32444   0.49866   0.91032   0.00000  Uiso   1.00
C908   C     0.01553   0.53851   0.59849   0.00000  Uiso   1.00
C909   C     0.24169   0.51727   0.91044   0.00000  Uiso   1.00
C910   C     0.08804   0.49633   0.58845   0.00000  Uiso   1.00
C911   C     0.22819   0.51801   0.95855   0.00000  Uiso   1.00
C912   C     0.11201   0.52058   0.55028   0.00000  Uiso   1.00
C913   C     0.26162   0.50283   0.98172   0.00000  Uiso   1.00
C914   C     0.08416   0.54976   0.53289   0.00000  Uiso   1.00
C915   C     0.18125   0.53125   0.98443   0.00000  Uiso   1.00
C916   C     0.16267   0.51655   0.52867   0.00000  Uiso   1.00
C917   C     0.19595   0.50170   0.55132   0.00000  Uiso   1.00
C918   C     0.15422   0.56149   0.96888   0.00000  Uiso   1.00
C919   C     0.24509   0.49515   0.52887   0.00000  Uiso   1.00
C920   C     0.10637   0.57146   0.99258   0.00000  Uiso   1.00
H921   H     0.31302   0.54812   0.61833   0.00000  Uiso   1.00
H922   H     0.02877   0.49210   0.89279   0.00000  Uiso   1.00
H923   H     0.00533   0.48992   0.97337   0.00000  Uiso   1.00
H924   H     0.01176   0.57730   0.54452   0.00000  Uiso   1.00
H925   H     0.18396   0.49592   0.58730   0.00000  Uiso   1.00
H926   H     0.17167   0.57981   0.93957   0.00000  Uiso   1.00
C927   C     0.30751   0.35396   0.72311   0.00000  Uiso   1.00
C928   C     0.02589   0.64604   0.77671   0.00000  Uiso   1.00
C929   C     0.30636   0.64448   0.72636   0.00000  Uiso   1.00
C930   C     0.02709   0.35550   0.77343   0.00000  Uiso   1.00
H931   H     0.28678   0.62705   0.70694   0.00000  Uiso   1.00
H932   H     0.04670   0.37292   0.79283   0.00000  Uiso   1.00
C933   C     0.33239   0.62386   0.75232   0.00000  Uiso   1.00
C934   C     0.00101   0.37614   0.74751   0.00000  Uiso   1.00
C935   C     0.18261   0.47626   0.78004   0.00000  Uiso   1.00
C936   C     0.15074   0.52372   0.71993   0.00000  Uiso   1.00
H937   H     0.19422   0.45718   0.80405   0.00000  Uiso   1.00
H938   H     0.13912   0.54278   0.69590   0.00000  Uiso   1.00
C939   C     0.13297   0.47630   0.78006   0.00000  Uiso   1.00
C940   C     0.20037   0.52369   0.71993   0.00000  Uiso   1.00
H941   H     0.10713   0.45729   0.80409   0.00000  Uiso   1.00
H942   H     0.22622   0.54269   0.69589   0.00000  Uiso   1.00
N943   N     0.11736   0.50001   0.74999   0.00000  Uiso   1.00
N944   N     0.21597   0.49999   0.75001   0.00000  Uiso   1.00
C945   C     0.27570   0.47741   0.55637   0.00000  Uiso   1.00
H946   H     0.26683   0.48420   0.59215   0.00000  Uiso   1.00
O947   O     0.30860   0.45307   0.54068   0.00000  Uiso   1.00
C948   C     0.08125   0.60503   0.97446   0.00000  Uiso   1.00
H949   H     0.05062   0.62149   0.99592   0.00000  Uiso   1.00
O950   O     0.09520   0.61528   0.93484   0.00000  Uiso   1.00
C951   C     0.10586   0.45393   0.59520   0.00000  Uiso   1.00
H952   H     0.13573   0.44025   0.56972   0.00000  Uiso   1.00
O953   O     0.08600   0.43272   0.62786   0.00000  Uiso   1.00
C954   C     0.20348   0.52271   0.88636   0.00000  Uiso   1.00
H955   H     0.17133   0.50319   0.89497   0.00000  Uiso   1.00
O956   O     0.20628   0.55063   0.85902   0.00000  Uiso   1.00
N957   N     0.28335   0.37403   0.69349   0.00000  Uiso   1.00
O958   O     0.30504   0.40356   0.66676   0.00000  Uiso   1.00
O959   O     0.24309   0.35880   0.68819   0.00000  Uiso   1.00
N960   N     0.04990   0.62597   0.80646   0.00000  Uiso   1.00
O961   O     0.02798   0.59664   0.83336   0.00000  Uiso   1.00
O962   O     0.09023   0.64108   0.81173   0.00000  Uiso   1.00
O963   O     0.37291   0.43989   0.75000   0.00000  Uiso   1.00
O964   O     0.62709   0.56011   0.75000   0.00000  Uiso   1.00
O965   O     0.62706   0.43988   0.75000   0.00000  Uiso   1.00
O966   O     0.37294   0.56012   0.75000   0.00000  Uiso   1.00
C967   C     0.33375   0.42076   0.74866   0.00000  Uiso   1.00
C968   C     0.66627   0.57924   0.75126   0.00000  Uiso   1.00
O969   O     0.35186   0.50001   0.81492   0.00000  Uiso   1.00
O970   O     0.64814   0.49999   0.68509   0.00000  Uiso   1.00
O971   O     0.60600   0.50000   0.81492   0.00000  Uiso   1.00
O972   O     0.39400   0.50000   0.68508   0.00000  Uiso   1.00
C973   C     0.63902   0.50202   0.83641   0.00000  Uiso   1.00
C974   C     0.36068   0.50076   0.66386   0.00000  Uiso   1.00
Cu975  Cu    0.38022   0.50001   0.75000   0.00000  Uiso   1.00
Cu976  Cu    0.61978   0.49999   0.75000   0.00000  Uiso   1.00
C977   C     0.62351   0.50637   0.88630   0.00000  Uiso   1.00
C978   C     0.37576   0.50966   0.61544   0.00000  Uiso   1.00
C979   C     0.64381   0.49663   0.95712   0.00000  Uiso   1.00
C980   C     0.36841   0.55659   0.55661   0.00000  Uiso   1.00
C981   C     0.65777   0.49866   0.91032   0.00000  Uiso   1.00
C982   C     0.34886   0.53851   0.59849   0.00000  Uiso   1.00
C983   C     0.57503   0.51727   0.91044   0.00000  Uiso   1.00
C984   C     0.42138   0.49633   0.58845   0.00000  Uiso   1.00
C985   C     0.56153   0.51801   0.95855   0.00000  Uiso   1.00
C986   C     0.44534   0.52058   0.55028   0.00000  Uiso   1.00
C987   C     0.59495   0.50283   0.98172   0.00000  Uiso   1.00
C988   C     0.41749   0.54976   0.53289   0.00000  Uiso   1.00
C989   C     0.51459   0.53125   0.98443   0.00000  Uiso   1.00
C990   C     0.49601   0.51655   0.52867   0.00000  Uiso   1.00
C991   C     0.52929   0.50170   0.55132   0.00000  Uiso   1.00
C992   C     0.48756   0.56149   0.96888   0.00000  Uiso   1.00
C993   C     0.57842   0.49515   0.52887   0.00000  Uiso   1.00
C994   C     0.43970   0.57146   0.99258   0.00000  Uiso   1.00
H995   H     0.64635   0.54812   0.61833   0.00000  Uiso   1.00
H996   H     0.36210   0.49210   0.89279   0.00000  Uiso   1.00
H997   H     0.33867   0.48992   0.97337   0.00000  Uiso   1.00
H998   H     0.34509   0.57730   0.54452   0.00000  Uiso   1.00
H999   H     0.51729   0.49592   0.58730   0.00000  Uiso   1.00
H1000  H     0.50500   0.57981   0.93957   0.00000  Uiso   1.00
C1001  C     0.64084   0.35396   0.72311   0.00000  Uiso   1.00
C1002  C     0.35923   0.64604   0.77671   0.00000  Uiso   1.00
C1003  C     0.63970   0.64448   0.72636   0.00000  Uiso   1.00
C1004  C     0.36042   0.35550   0.77343   0.00000  Uiso   1.00
H1005  H     0.62011   0.62705   0.70694   0.00000  Uiso   1.00
H1006  H     0.38003   0.37292   0.79283   0.00000  Uiso   1.00
C1007  C     0.66573   0.62386   0.75232   0.00000  Uiso   1.00
C1008  C     0.33434   0.37614   0.74751   0.00000  Uiso   1.00
C1009  C     0.51594   0.47626   0.78004   0.00000  Uiso   1.00
C1010  C     0.48407   0.52372   0.71993   0.00000  Uiso   1.00
H1011  H     0.52756   0.45718   0.80405   0.00000  Uiso   1.00
H1012  H     0.47246   0.54278   0.69590   0.00000  Uiso   1.00
C1013  C     0.46630   0.47630   0.78006   0.00000  Uiso   1.00
C1014  C     0.53371   0.52369   0.71993   0.00000  Uiso   1.00
H1015  H     0.44047   0.45729   0.80409   0.00000  Uiso   1.00
H1016  H     0.55955   0.54269   0.69589   0.00000  Uiso   1.00
N1017  N     0.45069   0.50001   0.74999   0.00000  Uiso   1.00
N1018  N     0.54931   0.49999   0.75001   0.00000  Uiso   1.00
C1019  C     0.60904   0.47741   0.55637   0.00000  Uiso   1.00
H1020  H     0.60016   0.48420   0.59215   0.00000  Uiso   1.00
O1021  O     0.64193   0.45307   0.54068   0.00000  Uiso   1.00
C1022  C     0.41458   0.60503   0.97446   0.00000  Uiso   1.00
H1023  H     0.38395   0.62149   0.99592   0.00000  Uiso   1.00
O1024  O     0.42853   0.61528   0.93484   0.00000  Uiso   1.00
C1025  C     0.43920   0.45393   0.59520   0.00000  Uiso   1.00
H1026  H     0.46906   0.44025   0.56972   0.00000  Uiso   1.00
O1027  O     0.41933   0.43272   0.62786   0.00000  Uiso   1.00
C1028  C     0.53681   0.52271   0.88636   0.00000  Uiso   1.00
H1029  H     0.50467   0.50319   0.89497   0.00000  Uiso   1.00
O1030  O     0.53962   0.55063   0.85902   0.00000  Uiso   1.00
N1031  N     0.61669   0.37403   0.69349   0.00000  Uiso   1.00
O1032  O     0.63837   0.40356   0.66676   0.00000  Uiso   1.00
O1033  O     0.57642   0.35880   0.68819   0.00000  Uiso   1.00
N1034  N     0.38323   0.62597   0.80646   0.00000  Uiso   1.00
O1035  O     0.36131   0.59664   0.83336   0.00000  Uiso   1.00
O1036  O     0.42356   0.64108   0.81173   0.00000  Uiso   1.00
O1037  O     0.70625   0.43989   0.75000   0.00000  Uiso   1.00
O1038  O     0.96042   0.56011   0.75000   0.00000  Uiso   1.00
O1039  O     0.96039   0.43988   0.75000   0.00000  Uiso   1.00
O1040  O     0.70628   0.56012   0.75000   0.00000  Uiso   1.00
C1041  C     0.66709   0.42076   0.74866   0.00000  Uiso   1.00
C1042  C     0.99961   0.57924   0.75126   0.00000  Uiso   1.00
O1043  O     0.68519   0.50001   0.81492   0.00000  Uiso   1.00
O1044  O     0.98148   0.49999   0.68509   0.00000  Uiso   1.00
O1045  O     0.93933   0.50000   0.81492   0.00000  Uiso   1.00
O1046  O     0.72733   0.50000   0.68508   0.00000  Uiso   1.00
C1047  C     0.97235   0.50202   0.83641   0.00000  Uiso   1.00
C1048  C     0.69401   0.50076   0.66386   0.00000  Uiso   1.00
Cu1049 Cu    0.71355   0.50001   0.75000   0.00000  Uiso   1.00
Cu1050 Cu    0.95311   0.49999   0.75000   0.00000  Uiso   1.00
C1051  C     0.95685   0.50637   0.88630   0.00000  Uiso   1.00
C1052  C     0.70909   0.50966   0.61544   0.00000  Uiso   1.00
C1053  C     0.97714   0.49663   0.95712   0.00000  Uiso   1.00
C1054  C     0.70174   0.55659   0.55661   0.00000  Uiso   1.00
C1055  C     0.99110   0.49866   0.91032   0.00000  Uiso   1.00
C1056  C     0.68219   0.53851   0.59849   0.00000  Uiso   1.00
C1057  C     0.90836   0.51727   0.91044   0.00000  Uiso   1.00
C1058  C     0.75471   0.49633   0.58845   0.00000  Uiso   1.00
C1059  C     0.89486   0.51801   0.95855   0.00000  Uiso   1.00
C1060  C     0.77868   0.52058   0.55028   0.00000  Uiso   1.00
C1061  C     0.92828   0.50283   0.98172   0.00000  Uiso   1.00
C1062  C     0.75082   0.54976   0.53289   0.00000  Uiso   1.00
C1063  C     0.84792   0.53125   0.98443   0.00000  Uiso   1.00
C1064  C     0.82934   0.51655   0.52867   0.00000  Uiso   1.00
C1065  C     0.86262   0.50170   0.55132   0.00000  Uiso   1.00
C1066  C     0.82089   0.56149   0.96888   0.00000  Uiso   1.00
C1067  C     0.91175   0.49515   0.52887   0.00000  Uiso   1.00
C1068  C     0.77304   0.57146   0.99258   0.00000  Uiso   1.00
H1069  H     0.97968   0.54812   0.61833   0.00000  Uiso   1.00
H1070  H     0.69543   0.49210   0.89279   0.00000  Uiso   1.00
H1071  H     0.67200   0.48992   0.97337   0.00000  Uiso   1.00
H1072  H     0.67843   0.57730   0.54452   0.00000  Uiso   1.00
H1073  H     0.85062   0.49592   0.58730   0.00000  Uiso   1.00
H1074  H     0.83834   0.57981   0.93957   0.00000  Uiso   1.00
C1075  C     0.97417   0.35396   0.72311   0.00000  Uiso   1.00
C1076  C     0.69256   0.64604   0.77671   0.00000  Uiso   1.00
C1077  C     0.97303   0.64448   0.72636   0.00000  Uiso   1.00
C1078  C     0.69375   0.35550   0.77343   0.00000  Uiso   1.00
H1079  H     0.95344   0.62705   0.70694   0.00000  Uiso   1.00
H1080  H     0.71336   0.37292   0.79283   0.00000  Uiso   1.00
C1081  C     0.99906   0.62386   0.75232   0.00000  Uiso   1.00
C1082  C     0.66768   0.37614   0.74751   0.00000  Uiso   1.00
C1083  C     0.84927   0.47626   0.78004   0.00000  Uiso   1.00
C1084  C     0.81740   0.52372   0.71993   0.00000  Uiso   1.00
H1085  H     0.86089   0.45718   0.80405   0.00000  Uiso   1.00
H1086  H     0.80579   0.54278   0.69590   0.00000  Uiso   1.00
C1087  C     0.79963   0.47630   0.78006   0.00000  Uiso   1.00
C1088  C     0.86704   0.52369   0.71993   0.00000  Uiso   1.00
H1089  H     0.77380   0.45729   0.80409   0.00000  Uiso   1.00
H1090  H     0.89288   0.54269   0.69589   0.00000  Uiso   1.00
N1091  N     0.78403   0.50001   0.74999   0.00000  Uiso   1.00
N1092  N     0.88264   0.49999   0.75001   0.00000  Uiso   1.00
C1093  C     0.94237   0.47741   0.55637   0.00000  Uiso   1.00
H1094  H     0.93350   0.48420   0.59215   0.00000  Uiso   1.00
O1095  O     0.97527   0.45307   0.54068   0.00000  Uiso   1.00
C1096  C     0.74792   0.60503   0.97446   0.00000  Uiso   1.00
H1097  H     0.71728   0.62149   0.99592   0.00000  Uiso   1.00
O1098  O     0.76187   0.61528   0.93484   0.00000  Uiso   1.00
C1099  C     0.77253   0.45393   0.59520   0.00000  Uiso   1.00
H1100  H     0.80240   0.44025   0.56972   0.00000  Uiso   1.00
O1101  O     0.75266   0.43272   0.62786   0.00000  Uiso   1.00
C1102  C     0.87014   0.52271   0.88636   0.00000  Uiso   1.00
H1103  H     0.83800   0.50319   0.89497   0.00000  Uiso   1.00
O1104  O     0.87295   0.55063   0.85902   0.00000  Uiso   1.00
N1105  N     0.95002   0.37403   0.69349   0.00000  Uiso   1.00
O1106  O     0.97170   0.40356   0.66676   0.00000  Uiso   1.00
O1107  O     0.90975   0.35880   0.68819   0.00000  Uiso   1.00
N1108  N     0.71657   0.62597   0.80646   0.00000  Uiso   1.00
O1109  O     0.69464   0.59664   0.83336   0.00000  Uiso   1.00
O1110  O     0.75690   0.64108   0.81173   0.00000  Uiso   1.00
O1111  O     0.03958   0.77322   0.75000   0.00000  Uiso   1.00
O1112  O     0.29375   0.89345   0.75000   0.00000  Uiso   1.00
O1113  O     0.29372   0.77321   0.75000   0.00000  Uiso   1.00
O1114  O     0.03961   0.89346   0.75000   0.00000  Uiso   1.00
C1115  C     0.00042   0.75409   0.74866   0.00000  Uiso   1.00
C1116  C     0.33294   0.91258   0.75126   0.00000  Uiso   1.00
O1117  O     0.01852   0.83334   0.81492   0.00000  Uiso   1.00
O1118  O     0.31481   0.83332   0.68509   0.00000  Uiso   1.00
O1119  O     0.27267   0.83333   0.81492   0.00000  Uiso   1.00
O1120  O     0.06067   0.83333   0.68508   0.00000  Uiso   1.00
C1121  C     0.30568   0.83536   0.83641   0.00000  Uiso   1.00
C1122  C     0.02735   0.83409   0.66386   0.00000  Uiso   1.00
Cu1123 Cu    0.04689   0.83334   0.75000   0.00000  Uiso   1.00
Cu1124 Cu    0.28645   0.83333   0.75000   0.00000  Uiso   1.00
C1125  C     0.29018   0.83971   0.88630   0.00000  Uiso   1.00
C1126  C     0.04242   0.84300   0.61544   0.00000  Uiso   1.00
C1127  C     0.31048   0.82997   0.95712   0.00000  Uiso   1.00
C1128  C     0.03507   0.88992   0.55661   0.00000  Uiso   1.00
C1129  C     0.32444   0.83199   0.91032   0.00000  Uiso   1.00
C1130  C     0.01553   0.87185   0.59849   0.00000  Uiso   1.00
C1131  C     0.24169   0.85060   0.91044   0.00000  Uiso   1.00
C1132  C     0.08804   0.82967   0.58845   0.00000  Uiso   1.00
C1133  C     0.22819   0.85134   0.95855   0.00000  Uiso   1.00
C1134  C     0.11201   0.85391   0.55028   0.00000  Uiso   1.00
C1135  C     0.26162   0.83616   0.98172   0.00000  Uiso   1.00
C1136  C     0.08416   0.88309   0.53289   0.00000  Uiso   1.00
C1137  C     0.18125   0.86458   0.98443   0.00000  Uiso   1.00
C1138  C     0.16267   0.84988   0.52867   0.00000  Uiso   1.00
C1139  C     0.19595   0.83504   0.55132   0.00000  Uiso   1.00
C1140  C     0.15422   0.89482   0.96888   0.00000  Uiso   1.00
C1141  C     0.24509   0.82849   0.52887   0.00000  Uiso   1.00
C1142  C     0.10637   0.90479   0.99258   0.00000  Uiso   1.00
H1143  H     0.31302   0.88146   0.61833   0.00000  Uiso   1.00
H1144  H     0.02877   0.82543   0.89279   0.00000  Uiso   1.00
H1145  H     0.00533   0.82326   0.97337   0.00000  Uiso   1.00
H1146  H     0.01176   0.91063   0.54452   0.00000  Uiso   1.00
H1147  H     0.18396   0.82925   0.58730   0.00000  Uiso   1.00
H1148  H     0.17167   0.91314   0.93957   0.00000  Uiso   1.00
C1149  C     0.30751   0.68729   0.72311   0.00000  Uiso   1.00
C1150  C     0.02589   0.97937   0.77671   0.00000  Uiso   1.00
C1151  C     0.30636   0.97782   0.72636   0.00000  Uiso   1.00
C1152  C     0.02709   0.68884   0.77343   0.00000  Uiso   1.00
H1153  H     0.28678   0.96038   0.70694   0.00000  Uiso   1.00
H1154  H     0.04670   0.70626   0.79283   0.00000  Uiso   1.00
C1155  C     0.33239   0.95719   0.75232   0.00000  Uiso   1.00
C1156  C     0.00101   0.70947   0.74751   0.00000  Uiso   1.00
C1157  C     0.18261   0.80959   0.78004   0.00000  Uiso   1.00
C1158  C     0.15074   0.85705   0.71993   0.00000  Uiso   1.00
H1159  H     0.19422   0.79051   0.80405   0.00000  Uiso   1.00
H1160  H     0.13912   0.87612   0.69590   0.00000  Uiso   1.00
C1161  C     0.13297   0.80964   0.78006   0.00000  Uiso   1.00
C1162  C     0.20037   0.85702   0.71993   0.00000  Uiso   1.00
H1163  H     0.10713   0.79063   0.80409   0.00000  Uiso   1.00
H1164  H     0.22622   0.87602   0.69589   0.00000  Uiso   1.00
N1165  N     0.11736   0.83334   0.74999   0.00000  Uiso   1.00
N1166  N     0.21597   0.83332   0.75001   0.00000  Uiso   1.00
C1167  C     0.27570   0.81074   0.55637   0.00000  Uiso   1.00
H1168  H     0.26683   0.81754   0.59215   0.00000  Uiso   1.00
O1169  O     0.30860   0.78640   0.54068   0.00000  Uiso   1.00
C1170  C     0.08125   0.93836   0.97446   0.00000  Uiso   1.00
H1171  H     0.05062   0.95482   0.99592   0.00000  Uiso   1.00
O1172  O     0.09520   0.94862   0.93484   0.00000  Uiso   1.00
C1173  C     0.10586   0.78726   0.59520   0.00000  Uiso   1.00
H1174  H     0.13573   0.77359   0.56972   0.00000  Uiso   1.00
O1175  O     0.08600   0.76606   0.62786   0.00000  Uiso   1.00
C1176  C     0.20348   0.85604   0.88636   0.00000  Uiso   1.00
H1177  H     0.17133   0.83652   0.89497   0.00000  Uiso   1.00
O1178  O     0.20628   0.88397   0.85902   0.00000  Uiso   1.00
N1179  N     0.28335   0.70736   0.69349   0.00000  Uiso   1.00
O1180  O     0.30504   0.73689   0.66676   0.00000  Uiso   1.00
O1181  O     0.24309   0.69213   0.68819   0.00000  Uiso   1.00
N1182  N     0.04990   0.95930   0.80646   0.00000  Uiso   1.00
O1183  O     0.02798   0.92998   0.83336   0.00000  Uiso   1.00
O1184  O     0.09023   0.97442   0.81173   0.00000  Uiso   1.00
O1185  O     0.37291   0.77322   0.75000   0.00000  Uiso   1.00
O1186  O     0.62709   0.89345   0.75000   0.00000  Uiso   1.00
O1187  O     0.62706   0.77321   0.75000   0.00000  Uiso   1.00
O1188  O     0.37294   0.89346   0.75000   0.00000  Uiso   1.00
C1189  C     0.33375   0.75409   0.74866   0.00000  Uiso   1.00
C1190  C     0.66627   0.91258   0.75126   0.00000  Uiso   1.00
O1191  O     0.35186   0.83334   0.81492   0.00000  Uiso   1.00
O1192  O     0.64814   0.83332   0.68509   0.00000  Uiso   1.00
O1193  O     0.60600   0.83333   0.81492   0.00000  Uiso   1.00
O1194  O     0.39400   0.83333   0.68508   0.00000  Uiso   1.00
C1195  C     0.63902   0.83536   0.83641   0.00000  Uiso   1.00
C1196  C     0.36068   0.83409   0.66386   0.00000  Uiso   1.00
Cu1197 Cu    0.38022   0.83334   0.75000   0.00000  Uiso   1.00
Cu1198 Cu    0.61978   0.83333   0.75000   0.00000  Uiso   1.00
C1199  C     0.62351   0.83971   0.88630   0.00000  Uiso   1.00
C1200  C     0.37576   0.84300   0.61544   0.00000  Uiso   1.00
C1201  C     0.64381   0.82997   0.95712   0.00000  Uiso   1.00
C1202  C     0.36841   0.88992   0.55661   0.00000  Uiso   1.00
C1203  C     0.65777   0.83199   0.91032   0.00000  Uiso   1.00
C1204  C     0.34886   0.87185   0.59849   0.00000  Uiso   1.00
C1205  C     0.57503   0.85060   0.91044   0.00000  Uiso   1.00
C1206  C     0.42138   0.82967   0.58845   0.00000  Uiso   1.00
C1207  C     0.56153   0.85134   0.95855   0.00000  Uiso   1.00
C1208  C     0.44534   0.85391   0.55028   0.00000  Uiso   1.00
C1209  C     0.59495   0.83616   0.98172   0.00000  Uiso   1.00
C1210  C     0.41749   0.88309   0.53289   0.00000  Uiso   1.00
C1211  C     0.51459   0.86458   0.98443   0.00000  Uiso   1.00
C1212  C     0.49601   0.84988   0.52867   0.00000  Uiso   1.00
C1213  C     0.52929   0.83504   0.55132   0.00000  Uiso   1.00
C1214  C     0.48756   0.89482   0.96888   0.00000  Uiso   1.00
C1215  C     0.57842   0.82849   0.52887   0.00000  Uiso   1.00
C1216  C     0.43970   0.90479   0.99258   0.00000  Uiso   1.00
H1217  H     0.64635   0.88146   0.61833   0.00000  Uiso   1.00
H1218  H     0.36210   0.82543   0.89279   0.00000  Uiso   1.00
H1219  H     0.33867   0.82326   0.97337   0.00000  Uiso   1.00
H1220  H     0.34509   0.91063   0.54452   0.00000  Uiso   1.00
H1221  H     0.51729   0.82925   0.58730   0.00000  Uiso   1.00
H1222  H     0.50500   0.91314   0.93957   0.00000  Uiso   1.00
C1223  C     0.64084   0.68729   0.72311   0.00000  Uiso   1.00
C1224  C     0.35923   0.97937   0.77671   0.00000  Uiso   1.00
C1225  C     0.63970   0.97782   0.72636   0.00000  Uiso   1.00
C1226  C     0.36042   0.68884   0.77343   0.00000  Uiso   1.00
H1227  H     0.62011   0.96038   0.70694   0.00000  Uiso   1.00
H1228  H     0.38003   0.70626   0.79283   0.00000  Uiso   1.00
C1229  C     0.66573   0.95719   0.75232   0.00000  Uiso   1.00
C1230  C     0.33434   0.70947   0.74751   0.00000  Uiso   1.00
C1231  C     0.51594   0.80959   0.78004   0.00000  Uiso   1.00
C1232  C     0.48407   0.85705   0.71993   0.00000  Uiso   1.00
H1233  H     0.52756   0.79051   0.80405   0.00000  Uiso   1.00
H1234  H     0.47246   0.87612   0.69590   0.00000  Uiso   1.00
C1235  C     0.46630   0.80964   0.78006   0.00000  Uiso   1.00
C1236  C     0.53371   0.85702   0.71993   0.00000  Uiso   1.00
H1237  H     0.44047   0.79063   0.80409   0.00000  Uiso   1.00
H1238  H     0.55955   0.87602   0.69589   0.00000  Uiso   1.00
N1239  N     0.45069   0.83334   0.74999   0.00000  Uiso   1.00
N1240  N     0.54931   0.83332   0.75001   0.00000  Uiso   1.00
C1241  C     0.60904   0.81074   0.55637   0.00000  Uiso   1.00
H1242  H     0.60016   0.81754   0.59215   0.00000  Uiso   1.00
O1243  O     0.64193   0.78640   0.54068   0.00000  Uiso   1.00
C1244  C     0.41458   0.93836   0.97446   0.00000  Uiso   1.00
H1245  H     0.38395   0.95482   0.99592   0.00000  Uiso   1.00
O1246  O     0.42853   0.94862   0.93484   0.00000  Uiso   1.00
C1247  C     0.43920   0.78726   0.59520   0.00000  Uiso   1.00
H1248  H     0.46906   0.77359   0.56972   0.00000  Uiso   1.00
O1249  O     0.41933   0.76606   0.62786   0.00000  Uiso   1.00
C1250  C     0.53681   0.85604   0.88636   0.00000  Uiso   1.00
H1251  H     0.50467   0.83652   0.89497   0.00000  Uiso   1.00
O1252  O     0.53962   0.88397   0.85902   0.00000  Uiso   1.00
N1253  N     0.61669   0.70736   0.69349   0.00000  Uiso   1.00
O1254  O     0.63837   0.73689   0.66676   0.00000  Uiso   1.00
O1255  O     0.57642   0.69213   0.68819   0.00000  Uiso   1.00
N1256  N     0.38323   0.95930   0.80646   0.00000  Uiso   1.00
O1257  O     0.36131   0.92998   0.83336   0.00000  Uiso   1.00
O1258  O     0.42356   0.97442   0.81173   0.00000  Uiso   1.00
O1259  O     0.70625   0.77322   0.75000   0.00000  Uiso   1.00
O1260  O     0.96042   0.89345   0.75000   0.00000  Uiso   1.00
O1261  O     0.96039   0.77321   0.75000   0.00000  Uiso   1.00
O1262  O     0.70628   0.89346   0.75000   0.00000  Uiso   1.00
C1263  C     0.66709   0.75409   0.74866   0.00000  Uiso   1.00
C1264  C     0.99961   0.91258   0.75126   0.00000  Uiso   1.00
O1265  O     0.68519   0.83334   0.81492   0.00000  Uiso   1.00
O1266  O     0.98148   0.83332   0.68509   0.00000  Uiso   1.00
O1267  O     0.93933   0.83333   0.81492   0.00000  Uiso   1.00
O1268  O     0.72733   0.83333   0.68508   0.00000  Uiso   1.00
C1269  C     0.97235   0.83536   0.83641   0.00000  Uiso   1.00
C1270  C     0.69401   0.83409   0.66386   0.00000  Uiso   1.00
Cu1271 Cu    0.71355   0.83334   0.75000   0.00000  Uiso   1.00
Cu1272 Cu    0.95311   0.83333   0.75000   0.00000  Uiso   1.00
C1273  C     0.95685   0.83971   0.88630   0.00000  Uiso   1.00
C1274  C     0.70909   0.84300   0.61544   0.00000  Uiso   1.00
C1275  C     0.97714   0.82997   0.95712   0.00000  Uiso   1.00
C1276  C     0.70174   0.88992   0.55661   0.00000  Uiso   1.00
C1277  C     0.99110   0.83199   0.91032   0.00000  Uiso   1.00
C1278  C     0.68219   0.87185   0.59849   0.00000  Uiso   1.00
C1279  C     0.90836   0.85060   0.91044   0.00000  Uiso   1.00
C1280  C     0.75471   0.82967   0.58845   0.00000  Uiso   1.00
C1281  C     0.89486   0.85134   0.95855   0.00000  Uiso   1.00
C1282  C     0.77868   0.85391   0.55028   0.00000  Uiso   1.00
C1283  C     0.92828   0.83616   0.98172   0.00000  Uiso   1.00
C1284  C     0.75082   0.88309   0.53289   0.00000  Uiso   1.00
C1285  C     0.84792   0.86458   0.98443   0.00000  Uiso   1.00
C1286  C     0.82934   0.84988   0.52867   0.00000  Uiso   1.00
C1287  C     0.86262   0.83504   0.55132   0.00000  Uiso   1.00
C1288  C     0.82089   0.89482   0.96888   0.00000  Uiso   1.00
C1289  C     0.91175   0.82849   0.52887   0.00000  Uiso   1.00
C1290  C     0.77304   0.90479   0.99258   0.00000  Uiso   1.00
H1291  H     0.97968   0.88146   0.61833   0.00000  Uiso   1.00
H1292  H     0.69543   0.82543   0.89279   0.00000  Uiso   1.00
H1293  H     0.67200   0.82326   0.97337   0.00000  Uiso   1.00
H1294  H     0.67843   0.91063   0.54452   0.00000  Uiso   1.00
H1295  H     0.85062   0.82925   0.58730   0.00000  Uiso   1.00
H1296  H     0.83834   0.91314   0.93957   0.00000  Uiso   1.00
C1297  C     0.97417   0.68729   0.72311   0.00000  Uiso   1.00
C1298  C     0.69256   0.97937   0.77671   0.00000  Uiso   1.00
C1299  C     0.97303   0.97782   0.72636   0.00000  Uiso   1.00
C1300  C     0.69375   0.68884   0.77343   0.00000  Uiso   1.00
H1301  H     0.95344   0.96038   0.70694   0.00000  Uiso   1.00
H1302  H     0.71336   0.70626   0.79283   0.00000  Uiso   1.00
C1303  C     0.99906   0.95719   0.75232   0.00000  Uiso   1.00
C1304  C     0.66768   0.70947   0.74751   0.00000  Uiso   1.00
C1305  C     0.84927   0.80959   0.78004   0.00000  Uiso   1.00
C1306  C     0.81740   0.85705   0.71993   0.00000  Uiso   1.00
H1307  H     0.86089   0.79051   0.80405   0.00000  Uiso   1.00
H1308  H     0.80579   0.87612   0.69590   0.00000  Uiso   1.00
C1309  C     0.79963   0.80964   0.78006   0.00000  Uiso   1.00
C1310  C     0.86704   0.85702   0.71993   0.00000  Uiso   1.00
H1311  H     0.77380   0.79063   0.80409   0.00000  Uiso   1.00
H1312  H     0.89288   0.87602   0.69589   0.00000  Uiso   1.00
N1313  N     0.78403   0.83334   0.74999   0.00000  Uiso   1.00
N1314  N     0.88264   0.83332   0.75001   0.00000  Uiso   1.00
C1315  C     0.94237   0.81074   0.55637   0.00000  Uiso   1.00
H1316  H     0.93350   0.81754   0.59215   0.00000  Uiso   1.00
O1317  O     0.97527   0.78640   0.54068   0.00000  Uiso   1.00
C1318  C     0.74792   0.93836   0.97446   0.00000  Uiso   1.00
H1319  H     0.71728   0.95482   0.99592   0.00000  Uiso   1.00
O1320  O     0.76187   0.94862   0.93484   0.00000  Uiso   1.00
C1321  C     0.77253   0.78726   0.59520   0.00000  Uiso   1.00
H1322  H     0.80240   0.77359   0.56972   0.00000  Uiso   1.00
O1323  O     0.75266   0.76606   0.62786   0.00000  Uiso   1.00
C1324  C     0.87014   0.85604   0.88636   0.00000  Uiso   1.00
H1325  H     0.83800   0.83652   0.89497   0.00000  Uiso   1.00
O1326  O     0.87295   0.88397   0.85902   0.00000  Uiso   1.00
N1327  N     0.95002   0.70736   0.69349   0.00000  Uiso   1.00
O1328  O     0.97170   0.73689   0.66676   0.00000  Uiso   1.00
O1329  O     0.90975   0.69213   0.68819   0.00000  Uiso   1.00
N1330  N     0.71657   0.95930   0.80646   0.00000  Uiso   1.00
O1331  O     0.69464   0.92998   0.83336   0.00000  Uiso   1.00
O1332  O     0.75690   0.97442   0.81173   0.00000  Uiso   1.00
loop_
_geom_bond_atom_site_label_1
_geom_bond_atom_site_label_2
_geom_bond_distance
_geom_bond_site_symmetry_2
_ccdc_geom_bond_type
O1     C5      1.289   .     A
O1     Cu13    1.959   .     S
O2     C6      1.289   .     A
O2     Cu14    1.959   .     S
O3     Cu14    1.958   .     S
O3     C79     1.289   .     S
O4     Cu13    1.958   .     S
O4     C154    1.289   1_455 S
C5     C46     1.446   .     S
C5     O151    1.289   1_455 S
C6     C45     1.446   .     S
C6     O78     1.289   .     S
O7     Cu13    1.943   .     S
O7     C159    1.304   1_455 S
O8     Cu14    1.943   .     S
O8     C86     1.293   .     S
O9     Cu14    1.932   .     S
O9     C11     1.293   .     A
O10    C12     1.293   .     A
O10    Cu13    1.932   .     S
C11    C15     1.487   .     S
C11    O81     1.304   .     S
C12    C16     1.464   .     S
C12    O156    1.293   1_455 S
Cu13   N55     2.010   .     S
Cu13   Cu162   2.674   1_455 S
Cu14   N56     2.010   .     S
Cu14   Cu87    2.674   .     S
C15    C19     1.400   .     A
C15    C21     1.424   .     A
C16    C20     1.396   .     A
C16    C22     1.408   .     A
C17    C25     1.407   .     A
C17    C19     1.389   .     A
C17    H109    1.079   .     S
C18    C26     1.409   .     A
C18    C20     1.387   .     A
C18    H36     1.079   .     S
C19    H108    1.083   .     S
C20    H181    1.084   1_455 S
C21    C66     1.487   .     S
C21    C23     1.427   .     A
C22    C63     1.498   .     S
C22    C24     1.423   .     A
C23    C27     1.425   .     A
C23    C25     1.425   .     A
C24    C26     1.428   .     A
C24    C28     1.422   .     A
C25    C697    1.422   .     S
C26    C698    1.416   1_554 S
C27    C30     1.407   .     A
C27    C694    1.403   .     S
C28    C29     1.407   .     A
C28    C693    1.403   1_554 S
C29    C31     1.399   .     A
C29    H37     1.083   .     S
C30    H38     1.080   .     S
C30    C32     1.399   .     A
C31    C57     1.487   .     S
C31    C691    1.422   1_554 S
C32    C60     1.490   .     S
C32    C692    1.416   .     S
H33    C94     1.084   .     S
H34    C167    1.083   1_455 S
H35    C165    1.079   1_455 S
C39    N69     1.439   .     S
C39    C485    1.390   1_545 S
C39    C120    1.410   .     S
C40    N72     1.439   .     S
C40    C264    1.390   .     S
C40    C193    1.410   1_455 S
C41    H43     1.084   .     S
C41    C45     1.399   .     A
C41    C261    1.390   .     S
C42    C46     1.399   .     A
C42    H44     1.084   .     S
C42    C484    1.390   1_545 S
C45    C114    1.410   .     S
C46    C187    1.410   1_455 S
C47    H49     1.082   .     S
C47    C51     1.416   .     A
C47    N56     1.367   .     A
C48    N55     1.367   .     A
C48    H50     1.082   .     S
C48    C52     1.416   .     A
C51    H53     1.082   .     S
C51    N55     1.366   .     A
C52    H54     1.082   .     S
C52    N56     1.366   .     A
C57    O59     1.220   .     D
C57    H58     1.086   .     S
C60    O62     1.222   .     D
C60    H61     1.082   .     S
C63    O65     1.221   .     D
C63    H64     1.084   .     S
C66    O68     1.222   .     D
C66    H67     1.085   .     S
N69    O71     1.301   .     A
N69    O70     1.301   .     A
N72    O74     1.301   .     A
N72    O73     1.301   .     A
O75    C79     1.289   .     A
O75    Cu87    1.959   .     S
O76    C80     1.289   .     A
O76    Cu88    1.959   .     S
O77    Cu88    1.958   .     S
O77    C153    1.289   .     S
O78    Cu87    1.958   .     S
C79    C120    1.446   .     S
C80    C119    1.446   .     S
C80    O152    1.289   .     S
O81    Cu87    1.943   .     S
O82    Cu88    1.943   .     S
O82    C160    1.293   .     S
O83    Cu88    1.932   .     S
O83    C85     1.293   .     A
O84    C86     1.293   .     A
O84    Cu87    1.932   .     S
C85    C89     1.487   .     S
C85    O155    1.304   .     S
C86    C90     1.464   .     S
Cu87   N129    2.010   .     S
Cu88   N130    2.010   .     S
Cu88   Cu161   2.674   .     S
C89    C93     1.400   .     A
C89    C95     1.424   .     A
C90    C94     1.396   .     A
C90    C96     1.408   .     A
C91    C99     1.407   .     A
C91    C93     1.389   .     A
C91    H183    1.079   .     S
C92    C100    1.409   .     A
C92    C94     1.387   .     A
C92    H110    1.079   .     S
C93    H182    1.083   .     S
C95    C140    1.487   .     S
C95    C97     1.427   .     A
C96    C137    1.498   .     S
C96    C98     1.423   .     A
C97    C101    1.425   .     A
C97    C99     1.425   .     A
C98    C100    1.428   .     A
C98    C102    1.422   .     A
C99    C771    1.422   .     S
C100   C772    1.416   1_554 S
C101   C104    1.407   .     A
C101   C768    1.403   .     S
C102   C103    1.407   .     A
C102   C767    1.403   1_554 S
C103   C105    1.399   .     A
C103   H111    1.083   .     S
C104   H112    1.080   .     S
C104   C106    1.399   .     A
C105   C131    1.487   .     S
C105   C765    1.422   1_554 S
C106   C134    1.490   .     S
C106   C766    1.416   .     S
H107   C168    1.084   .     S
C113   N143    1.439   .     S
C113   C559    1.390   1_545 S
C113   C194    1.410   .     S
C114   N146    1.439   .     S
C114   C338    1.390   .     S
C115   H117    1.084   .     S
C115   C119    1.399   .     A
C115   C335    1.390   .     S
C116   C120    1.399   .     A
C116   H118    1.084   .     S
C116   C558    1.390   1_545 S
C119   C188    1.410   .     S
C121   H123    1.082   .     S
C121   C125    1.416   .     A
C121   N130    1.367   .     A
C122   N129    1.367   .     A
C122   H124    1.082   .     S
C122   C126    1.416   .     A
C125   H127    1.082   .     S
C125   N129    1.366   .     A
C126   H128    1.082   .     S
C126   N130    1.366   .     A
C131   O133    1.220   .     D
C131   H132    1.086   .     S
C134   O136    1.222   .     D
C134   H135    1.082   .     S
C137   O139    1.221   .     D
C137   H138    1.084   .     S
C140   O142    1.222   .     D
C140   H141    1.085   .     S
N143   O145    1.301   .     A
N143   O144    1.301   .     A
N146   O148    1.301   .     A
N146   O147    1.301   .     A
O149   C153    1.289   .     A
O149   Cu161   1.959   .     S
O150   C154    1.289   .     A
O150   Cu162   1.959   .     S
O151   Cu162   1.958   .     S
O151   C5      1.289   1_655 S
O152   Cu161   1.958   .     S
C153   C194    1.446   .     S
C154   C193    1.446   .     S
C154   O4      1.289   1_655 S
O155   Cu161   1.943   .     S
O156   Cu162   1.943   .     S
O156   C12     1.293   1_655 S
O157   Cu162   1.932   .     S
O157   C159    1.293   .     A
O158   C160    1.293   .     A
O158   Cu161   1.932   .     S
C159   C163    1.487   .     S
C159   O7      1.304   1_655 S
C160   C164    1.464   .     S
Cu161  N203    2.010   .     S
Cu162  N204    2.010   .     S
Cu162  Cu13    2.674   1_655 S
C163   C167    1.400   .     A
C163   C169    1.424   .     A
C164   C168    1.396   .     A
C164   C170    1.408   .     A
C165   C173    1.407   .     A
C165   C167    1.389   .     A
C165   H35     1.079   1_655 S
C166   C174    1.409   .     A
C166   C168    1.387   .     A
C166   H184    1.079   .     S
C167   H34     1.083   1_655 S
C169   C214    1.487   .     S
C169   C171    1.427   .     A
C170   C211    1.498   .     S
C170   C172    1.423   .     A
C171   C175    1.425   .     A
C171   C173    1.425   .     A
C172   C174    1.428   .     A
C172   C176    1.422   .     A
C173   C845    1.422   .     S
C174   C846    1.416   1_554 S
C175   C178    1.407   .     A
C175   C842    1.403   .     S
C176   C177    1.407   .     A
C176   C841    1.403   1_554 S
C177   C179    1.399   .     A
C177   H185    1.083   .     S
C178   H186    1.080   .     S
C178   C180    1.399   .     A
C179   C205    1.487   .     S
C179   C839    1.422   1_554 S
C180   C208    1.490   .     S
C180   C840    1.416   .     S
H181   C20     1.084   1_655 S
C187   N217    1.439   .     S
C187   C633    1.390   1_545 S
C187   C46     1.410   1_655 S
C188   N220    1.439   .     S
C188   C412    1.390   .     S
C189   H191    1.084   .     S
C189   C193    1.399   .     A
C189   C409    1.390   .     S
C190   C194    1.399   .     A
C190   H192    1.084   .     S
C190   C632    1.390   1_545 S
C193   C40     1.410   1_655 S
C195   H197    1.082   .     S
C195   C199    1.416   .     A
C195   N204    1.367   .     A
C196   N203    1.367   .     A
C196   H198    1.082   .     S
C196   C200    1.416   .     A
C199   H201    1.082   .     S
C199   N203    1.366   .     A
C200   H202    1.082   .     S
C200   N204    1.366   .     A
C205   O207    1.220   .     D
C205   H206    1.086   .     S
C208   O210    1.222   .     D
C208   H209    1.082   .     S
C211   O213    1.221   .     D
C211   H212    1.084   .     S
C214   O216    1.222   .     D
C214   H215    1.085   .     S
N217   O219    1.301   .     A
N217   O218    1.301   .     A
N220   O222    1.301   .     A
N220   O221    1.301   .     A
O223   C227    1.289   .     A
O223   Cu235   1.959   .     S
O224   C228    1.289   .     A
O224   Cu236   1.959   .     S
O225   Cu236   1.958   .     S
O225   C301    1.289   .     S
O226   Cu235   1.958   .     S
O226   C376    1.289   1_455 S
C227   C268    1.446   .     S
C227   O373    1.289   1_455 S
C228   C267    1.446   .     S
C228   O300    1.289   .     S
O229   Cu235   1.943   .     S
O229   C381    1.304   1_455 S
O230   Cu236   1.943   .     S
O230   C308    1.293   .     S
O231   Cu236   1.932   .     S
O231   C233    1.293   .     A
O232   C234    1.293   .     A
O232   Cu235   1.932   .     S
C233   C237    1.487   .     S
C233   O303    1.304   .     S
C234   C238    1.464   .     S
C234   O378    1.293   1_455 S
Cu235  N277    2.010   .     S
Cu235  Cu384   2.674   1_455 S
Cu236  N278    2.010   .     S
Cu236  Cu309   2.674   .     S
C237   C241    1.400   .     A
C237   C243    1.424   .     A
C238   C242    1.396   .     A
C238   C244    1.408   .     A
C239   C247    1.407   .     A
C239   C241    1.389   .     A
C239   H331    1.079   .     S
C240   C248    1.409   .     A
C240   C242    1.387   .     A
C240   H258    1.079   .     S
C241   H330    1.083   .     S
C242   H403    1.084   1_455 S
C243   C288    1.487   .     S
C243   C245    1.427   .     A
C244   C285    1.498   .     S
C244   C246    1.423   .     A
C245   C249    1.425   .     A
C245   C247    1.425   .     A
C246   C248    1.428   .     A
C246   C250    1.422   .     A
C247   C919    1.422   .     S
C248   C920    1.416   1_554 S
C249   C252    1.407   .     A
C249   C916    1.403   .     S
C250   C251    1.407   .     A
C250   C915    1.403   1_554 S
C251   C253    1.399   .     A
C251   H259    1.083   .     S
C252   H260    1.080   .     S
C252   C254    1.399   .     A
C253   C279    1.487   .     S
C253   C913    1.422   1_554 S
C254   C282    1.490   .     S
C254   C914    1.416   .     S
H255   C316    1.084   .     S
H256   C389    1.083   1_455 S
H257   C387    1.079   1_455 S
C261   N291    1.439   .     S
C261   C342    1.410   .     S
C262   N294    1.439   .     S
C262   C486    1.390   .     S
C262   C415    1.410   1_455 S
C263   H265    1.084   .     S
C263   C267    1.399   .     A
C263   C483    1.390   .     S
C264   C268    1.399   .     A
C264   H266    1.084   .     S
C267   C336    1.410   .     S
C268   C409    1.410   1_455 S
C269   H271    1.082   .     S
C269   C273    1.416   .     A
C269   N278    1.367   .     A
C270   N277    1.367   .     A
C270   H272    1.082   .     S
C270   C274    1.416   .     A
C273   H275    1.082   .     S
C273   N277    1.366   .     A
C274   H276    1.082   .     S
C274   N278    1.366   .     A
C279   O281    1.220   .     D
C279   H280    1.086   .     S
C282   O284    1.222   .     D
C282   H283    1.082   .     S
C285   O287    1.221   .     D
C285   H286    1.084   .     S
C288   O290    1.222   .     D
C288   H289    1.085   .     S
N291   O293    1.301   .     A
N291   O292    1.301   .     A
N294   O296    1.301   .     A
N294   O295    1.301   .     A
O297   C301    1.289   .     A
O297   Cu309   1.959   .     S
O298   C302    1.289   .     A
O298   Cu310   1.959   .     S
O299   Cu310   1.958   .     S
O299   C375    1.289   .     S
O300   Cu309   1.958   .     S
C301   C342    1.446   .     S
C302   C341    1.446   .     S
C302   O374    1.289   .     S
O303   Cu309   1.943   .     S
O304   Cu310   1.943   .     S
O304   C382    1.293   .     S
O305   Cu310   1.932   .     S
O305   C307    1.293   .     A
O306   C308    1.293   .     A
O306   Cu309   1.932   .     S
C307   C311    1.487   .     S
C307   O377    1.304   .     S
C308   C312    1.464   .     S
Cu309  N351    2.010   .     S
Cu310  N352    2.010   .     S
Cu310  Cu383   2.674   .     S
C311   C315    1.400   .     A
C311   C317    1.424   .     A
C312   C316    1.396   .     A
C312   C318    1.408   .     A
C313   C321    1.407   .     A
C313   C315    1.389   .     A
C313   H405    1.079   .     S
C314   C322    1.409   .     A
C314   C316    1.387   .     A
C314   H332    1.079   .     S
C315   H404    1.083   .     S
C317   C362    1.487   .     S
C317   C319    1.427   .     A
C318   C359    1.498   .     S
C318   C320    1.423   .     A
C319   C323    1.425   .     A
C319   C321    1.425   .     A
C320   C322    1.428   .     A
C320   C324    1.422   .     A
C321   C993    1.422   .     S
C322   C994    1.416   1_554 S
C323   C326    1.407   .     A
C323   C990    1.403   .     S
C324   C325    1.407   .     A
C324   C989    1.403   1_554 S
C325   C327    1.399   .     A
C325   H333    1.083   .     S
C326   H334    1.080   .     S
C326   C328    1.399   .     A
C327   C353    1.487   .     S
C327   C987    1.422   1_554 S
C328   C356    1.490   .     S
C328   C988    1.416   .     S
H329   C390    1.084   .     S
C335   N365    1.439   .     S
C335   C416    1.410   .     S
C336   N368    1.439   .     S
C336   C560    1.390   .     S
C337   H339    1.084   .     S
C337   C341    1.399   .     A
C337   C557    1.390   .     S
C338   C342    1.399   .     A
C338   H340    1.084   .     S
C341   C410    1.410   .     S
C343   H345    1.082   .     S
C343   C347    1.416   .     A
C343   N352    1.367   .     A
C344   N351    1.367   .     A
C344   H346    1.082   .     S
C344   C348    1.416   .     A
C347   H349    1.082   .     S
C347   N351    1.366   .     A
C348   H350    1.082   .     S
C348   N352    1.366   .     A
C353   O355    1.220   .     D
C353   H354    1.086   .     S
C356   O358    1.222   .     D
C356   H357    1.082   .     S
C359   O361    1.221   .     D
C359   H360    1.084   .     S
C362   O364    1.222   .     D
C362   H363    1.085   .     S
N365   O367    1.301   .     A
N365   O366    1.301   .     A
N368   O370    1.301   .     A
N368   O369    1.301   .     A
O371   C375    1.289   .     A
O371   Cu383   1.959   .     S
O372   C376    1.289   .     A
O372   Cu384   1.959   .     S
O373   Cu384   1.958   .     S
O373   C227    1.289   1_655 S
O374   Cu383   1.958   .     S
C375   C416    1.446   .     S
C376   C415    1.446   .     S
C376   O226    1.289   1_655 S
O377   Cu383   1.943   .     S
O378   Cu384   1.943   .     S
O378   C234    1.293   1_655 S
O379   Cu384   1.932   .     S
O379   C381    1.293   .     A
O380   C382    1.293   .     A
O380   Cu383   1.932   .     S
C381   C385    1.487   .     S
C381   O229    1.304   1_655 S
C382   C386    1.464   .     S
Cu383  N425    2.010   .     S
Cu384  N426    2.010   .     S
Cu384  Cu235   2.674   1_655 S
C385   C389    1.400   .     A
C385   C391    1.424   .     A
C386   C390    1.396   .     A
C386   C392    1.408   .     A
C387   C395    1.407   .     A
C387   C389    1.389   .     A
C387   H257    1.079   1_655 S
C388   C396    1.409   .     A
C388   C390    1.387   .     A
C388   H406    1.079   .     S
C389   H256    1.083   1_655 S
C391   C436    1.487   .     S
C391   C393    1.427   .     A
C392   C433    1.498   .     S
C392   C394    1.423   .     A
C393   C397    1.425   .     A
C393   C395    1.425   .     A
C394   C396    1.428   .     A
C394   C398    1.422   .     A
C395   C1067   1.422   .     S
C396   C1068   1.416   1_554 S
C397   C400    1.407   .     A
C397   C1064   1.403   .     S
C398   C399    1.407   .     A
C398   C1063   1.403   1_554 S
C399   C401    1.399   .     A
C399   H407    1.083   .     S
C400   H408    1.080   .     S
C400   C402    1.399   .     A
C401   C427    1.487   .     S
C401   C1061   1.422   1_554 S
C402   C430    1.490   .     S
C402   C1062   1.416   .     S
H403   C242    1.084   1_655 S
C409   N439    1.439   .     S
C409   C268    1.410   1_655 S
C410   N442    1.439   .     S
C410   C634    1.390   .     S
C411   H413    1.084   .     S
C411   C415    1.399   .     A
C411   C631    1.390   .     S
C412   C416    1.399   .     A
C412   H414    1.084   .     S
C415   C262    1.410   1_655 S
C417   H419    1.082   .     S
C417   C421    1.416   .     A
C417   N426    1.367   .     A
C418   N425    1.367   .     A
C418   H420    1.082   .     S
C418   C422    1.416   .     A
C421   H423    1.082   .     S
C421   N425    1.366   .     A
C422   H424    1.082   .     S
C422   N426    1.366   .     A
C427   O429    1.220   .     D
C427   H428    1.086   .     S
C430   O432    1.222   .     D
C430   H431    1.082   .     S
C433   O435    1.221   .     D
C433   H434    1.084   .     S
C436   O438    1.222   .     D
C436   H437    1.085   .     S
N439   O441    1.301   .     A
N439   O440    1.301   .     A
N442   O444    1.301   .     A
N442   O443    1.301   .     A
O445   C449    1.289   .     A
O445   Cu457   1.959   .     S
O446   C450    1.289   .     A
O446   Cu458   1.959   .     S
O447   Cu458   1.958   .     S
O447   C523    1.289   .     S
O448   Cu457   1.958   .     S
O448   C598    1.289   1_455 S
C449   C490    1.446   .     S
C449   O595    1.289   1_455 S
C450   C489    1.446   .     S
C450   O522    1.289   .     S
O451   Cu457   1.943   .     S
O451   C603    1.304   1_455 S
O452   Cu458   1.943   .     S
O452   C530    1.293   .     S
O453   Cu458   1.932   .     S
O453   C455    1.293   .     A
O454   C456    1.293   .     A
O454   Cu457   1.932   .     S
C455   C459    1.487   .     S
C455   O525    1.304   .     S
C456   C460    1.464   .     S
C456   O600    1.293   1_455 S
Cu457  N499    2.010   .     S
Cu457  Cu606   2.674   1_455 S
Cu458  N500    2.010   .     S
Cu458  Cu531   2.674   .     S
C459   C463    1.400   .     A
C459   C465    1.424   .     A
C460   C464    1.396   .     A
C460   C466    1.408   .     A
C461   C469    1.407   .     A
C461   C463    1.389   .     A
C461   H553    1.079   .     S
C462   C470    1.409   .     A
C462   C464    1.387   .     A
C462   H480    1.079   .     S
C463   H552    1.083   .     S
C464   H625    1.084   1_455 S
C465   C510    1.487   .     S
C465   C467    1.427   .     A
C466   C507    1.498   .     S
C466   C468    1.423   .     A
C467   C471    1.425   .     A
C467   C469    1.425   .     A
C468   C470    1.428   .     A
C468   C472    1.422   .     A
C469   C1141   1.422   .     S
C470   C1142   1.416   1_554 S
C471   C474    1.407   .     A
C471   C1138   1.403   .     S
C472   C473    1.407   .     A
C472   C1137   1.403   1_554 S
C473   C475    1.399   .     A
C473   H481    1.083   .     S
C474   H482    1.080   .     S
C474   C476    1.399   .     A
C475   C501    1.487   .     S
C475   C1135   1.422   1_554 S
C476   C504    1.490   .     S
C476   C1136   1.416   .     S
H477   C538    1.084   .     S
H478   C611    1.083   1_455 S
H479   C609    1.079   1_455 S
C483   N513    1.439   .     S
C483   C564    1.410   .     S
C484   N516    1.439   .     S
C484   C42     1.390   1_565 S
C484   C637    1.410   1_455 S
C485   H487    1.084   .     S
C485   C489    1.399   .     A
C485   C39     1.390   1_565 S
C486   C490    1.399   .     A
C486   H488    1.084   .     S
C489   C558    1.410   .     S
C490   C631    1.410   1_455 S
C491   H493    1.082   .     S
C491   C495    1.416   .     A
C491   N500    1.367   .     A
C492   N499    1.367   .     A
C492   H494    1.082   .     S
C492   C496    1.416   .     A
C495   H497    1.082   .     S
C495   N499    1.366   .     A
C496   H498    1.082   .     S
C496   N500    1.366   .     A
C501   O503    1.220   .     D
C501   H502    1.086   .     S
C504   O506    1.222   .     D
C504   H505    1.082   .     S
C507   O509    1.221   .     D
C507   H508    1.084   .     S
C510   O512    1.222   .     D
C510   H511    1.085   .     S
N513   O515    1.301   .     A
N513   O514    1.301   .     A
N516   O518    1.301   .     A
N516   O517    1.301   .     A
O519   C523    1.289   .     A
O519   Cu531   1.959   .     S
O520   C524    1.289   .     A
O520   Cu532   1.959   .     S
O521   Cu532   1.958   .     S
O521   C597    1.289   .     S
O522   Cu531   1.958   .     S
C523   C564    1.446   .     S
C524   C563    1.446   .     S
C524   O596    1.289   .     S
O525   Cu531   1.943   .     S
O526   Cu532   1.943   .     S
O526   C604    1.293   .     S
O527   Cu532   1.932   .     S
O527   C529    1.293   .     A
O528   C530    1.293   .     A
O528   Cu531   1.932   .     S
C529   C533    1.487   .     S
C529   O599    1.304   .     S
C530   C534    1.464   .     S
Cu531  N573    2.010   .     S
Cu532  N574    2.010   .     S
Cu532  Cu605   2.674   .     S
C533   C537    1.400   .     A
C533   C539    1.424   .     A
C534   C538    1.396   .     A
C534   C540    1.408   .     A
C535   C543    1.407   .     A
C535   C537    1.389   .     A
C535   H627    1.079   .     S
C536   C544    1.409   .     A
C536   C538    1.387   .     A
C536   H554    1.079   .     S
C537   H626    1.083   .     S
C539   C584    1.487   .     S
C539   C541    1.427   .     A
C540   C581    1.498   .     S
C540   C542    1.423   .     A
C541   C545    1.425   .     A
C541   C543    1.425   .     A
C542   C544    1.428   .     A
C542   C546    1.422   .     A
C543   C1215   1.422   .     S
C544   C1216   1.416   1_554 S
C545   C548    1.407   .     A
C545   C1212   1.403   .     S
C546   C547    1.407   .     A
C546   C1211   1.403   1_554 S
C547   C549    1.399   .     A
C547   H555    1.083   .     S
C548   H556    1.080   .     S
C548   C550    1.399   .     A
C549   C575    1.487   .     S
C549   C1209   1.422   1_554 S
C550   C578    1.490   .     S
C550   C1210   1.416   .     S
H551   C612    1.084   .     S
C557   N587    1.439   .     S
C557   C638    1.410   .     S
C558   N590    1.439   .     S
C558   C116    1.390   1_565 S
C559   H561    1.084   .     S
C559   C563    1.399   .     A
C559   C113    1.390   1_565 S
C560   C564    1.399   .     A
C560   H562    1.084   .     S
C563   C632    1.410   .     S
C565   H567    1.082   .     S
C565   C569    1.416   .     A
C565   N574    1.367   .     A
C566   N573    1.367   .     A
C566   H568    1.082   .     S
C566   C570    1.416   .     A
C569   H571    1.082   .     S
C569   N573    1.366   .     A
C570   H572    1.082   .     S
C570   N574    1.366   .     A
C575   O577    1.220   .     D
C575   H576    1.086   .     S
C578   O580    1.222   .     D
C578   H579    1.082   .     S
C581   O583    1.221   .     D
C581   H582    1.084   .     S
C584   O586    1.222   .     D
C584   H585    1.085   .     S
N587   O589    1.301   .     A
N587   O588    1.301   .     A
N590   O592    1.301   .     A
N590   O591    1.301   .     A
O593   C597    1.289   .     A
O593   Cu605   1.959   .     S
O594   C598    1.289   .     A
O594   Cu606   1.959   .     S
O595   Cu606   1.958   .     S
O595   C449    1.289   1_655 S
O596   Cu605   1.958   .     S
C597   C638    1.446   .     S
C598   C637    1.446   .     S
C598   O448    1.289   1_655 S
O599   Cu605   1.943   .     S
O600   Cu606   1.943   .     S
O600   C456    1.293   1_655 S
O601   Cu606   1.932   .     S
O601   C603    1.293   .     A
O602   C604    1.293   .     A
O602   Cu605   1.932   .     S
C603   C607    1.487   .     S
C603   O451    1.304   1_655 S
C604   C608    1.464   .     S
Cu605  N647    2.010   .     S
Cu606  N648    2.010   .     S
Cu606  Cu457   2.674   1_655 S
C607   C611    1.400   .     A
C607   C613    1.424   .     A
C608   C612    1.396   .     A
C608   C614    1.408   .     A
C609   C617    1.407   .     A
C609   C611    1.389   .     A
C609   H479    1.079   1_655 S
C610   C618    1.409   .     A
C610   C612    1.387   .     A
C610   H628    1.079   .     S
C611   H478    1.083   1_655 S
C613   C658    1.487   .     S
C613   C615    1.427   .     A
C614   C655    1.498   .     S
C614   C616    1.423   .     A
C615   C619    1.425   .     A
C615   C617    1.425   .     A
C616   C618    1.428   .     A
C616   C620    1.422   .     A
C617   C1289   1.422   .     S
C618   C1290   1.416   1_554 S
C619   C622    1.407   .     A
C619   C1286   1.403   .     S
C620   C621    1.407   .     A
C620   C1285   1.403   1_554 S
C621   C623    1.399   .     A
C621   H629    1.083   .     S
C622   H630    1.080   .     S
C622   C624    1.399   .     A
C623   C649    1.487   .     S
C623   C1283   1.422   1_554 S
C624   C652    1.490   .     S
C624   C1284   1.416   .     S
H625   C464    1.084   1_655 S
C631   N661    1.439   .     S
C631   C490    1.410   1_655 S
C632   N664    1.439   .     S
C632   C190    1.390   1_565 S
C633   H635    1.084   .     S
C633   C637    1.399   .     A
C633   C187    1.390   1_565 S
C634   C638    1.399   .     A
C634   H636    1.084   .     S
C637   C484    1.410   1_655 S
C639   H641    1.082   .     S
C639   C643    1.416   .     A
C639   N648    1.367   .     A
C640   N647    1.367   .     A
C640   H642    1.082   .     S
C640   C644    1.416   .     A
C643   H645    1.082   .     S
C643   N647    1.366   .     A
C644   H646    1.082   .     S
C644   N648    1.366   .     A
C649   O651    1.220   .     D
C649   H650    1.086   .     S
C652   O654    1.222   .     D
C652   H653    1.082   .     S
C655   O657    1.221   .     D
C655   H656    1.084   .     S
C658   O660    1.222   .     D
C658   H659    1.085   .     S
N661   O663    1.301   .     A
N661   O662    1.301   .     A
N664   O666    1.301   .     A
N664   O665    1.301   .     A
O667   C671    1.289   .     A
O667   Cu679   1.959   .     S
O668   C672    1.289   .     A
O668   Cu680   1.959   .     S
O669   Cu680   1.958   .     S
O669   C745    1.289   .     S
O670   Cu679   1.958   .     S
O670   C820    1.289   1_455 S
C671   C712    1.446   .     S
C671   O817    1.289   1_455 S
C672   C711    1.446   .     S
C672   O744    1.289   .     S
O673   Cu679   1.943   .     S
O673   C825    1.304   1_455 S
O674   Cu680   1.943   .     S
O674   C752    1.293   .     S
O675   Cu680   1.932   .     S
O675   C677    1.293   .     A
O676   C678    1.293   .     A
O676   Cu679   1.932   .     S
C677   C681    1.487   .     S
C677   O747    1.304   .     S
C678   C682    1.464   .     S
C678   O822    1.293   1_455 S
Cu679  N721    2.010   .     S
Cu679  Cu828   2.674   1_455 S
Cu680  N722    2.010   .     S
Cu680  Cu753   2.674   .     S
C681   C685    1.400   .     A
C681   C687    1.424   .     A
C682   C686    1.396   .     A
C682   C688    1.408   .     A
C683   C691    1.407   .     A
C683   C685    1.389   .     A
C683   H775    1.079   .     S
C684   C692    1.409   .     A
C684   C686    1.387   .     A
C684   H702    1.079   .     S
C685   H774    1.083   .     S
C686   H847    1.084   1_455 S
C687   C732    1.487   .     S
C687   C689    1.427   .     A
C688   C729    1.498   .     S
C688   C690    1.423   .     A
C689   C693    1.425   .     A
C689   C691    1.425   .     A
C690   C692    1.428   .     A
C690   C694    1.422   .     A
C691   C31     1.422   1_556 S
C693   C696    1.407   .     A
C693   C28     1.403   1_556 S
C694   C695    1.407   .     A
C695   C697    1.399   .     A
C695   H703    1.083   .     S
C696   H704    1.080   .     S
C696   C698    1.399   .     A
C697   C723    1.487   .     S
C698   C726    1.490   .     S
C698   C26     1.416   1_556 S
H699   C760    1.084   .     S
H700   C833    1.083   1_455 S
H701   C831    1.079   1_455 S
C705   N735    1.439   .     S
C705   C1151   1.390   1_545 S
C705   C786    1.410   .     S
C706   N738    1.439   .     S
C706   C930    1.390   .     S
C706   C859    1.410   1_455 S
C707   H709    1.084   .     S
C707   C711    1.399   .     A
C707   C927    1.390   .     S
C708   C712    1.399   .     A
C708   H710    1.084   .     S
C708   C1150   1.390   1_545 S
C711   C780    1.410   .     S
C712   C853    1.410   1_455 S
C713   H715    1.082   .     S
C713   C717    1.416   .     A
C713   N722    1.367   .     A
C714   N721    1.367   .     A
C714   H716    1.082   .     S
C714   C718    1.416   .     A
C717   H719    1.082   .     S
C717   N721    1.366   .     A
C718   H720    1.082   .     S
C718   N722    1.366   .     A
C723   O725    1.220   .     D
C723   H724    1.086   .     S
C726   O728    1.222   .     D
C726   H727    1.082   .     S
C729   O731    1.221   .     D
C729   H730    1.084   .     S
C732   O734    1.222   .     D
C732   H733    1.085   .     S
N735   O737    1.301   .     A
N735   O736    1.301   .     A
N738   O740    1.301   .     A
N738   O739    1.301   .     A
O741   C745    1.289   .     A
O741   Cu753   1.959   .     S
O742   C746    1.289   .     A
O742   Cu754   1.959   .     S
O743   Cu754   1.958   .     S
O743   C819    1.289   .     S
O744   Cu753   1.958   .     S
C745   C786    1.446   .     S
C746   C785    1.446   .     S
C746   O818    1.289   .     S
O747   Cu753   1.943   .     S
O748   Cu754   1.943   .     S
O748   C826    1.293   .     S
O749   Cu754   1.932   .     S
O749   C751    1.293   .     A
O750   C752    1.293   .     A
O750   Cu753   1.932   .     S
C751   C755    1.487   .     S
C751   O821    1.304   .     S
C752   C756    1.464   .     S
Cu753  N795    2.010   .     S
Cu754  N796    2.010   .     S
Cu754  Cu827   2.674   .     S
C755   C759    1.400   .     A
C755   C761    1.424   .     A
C756   C760    1.396   .     A
C756   C762    1.408   .     A
C757   C765    1.407   .     A
C757   C759    1.389   .     A
C757   H849    1.079   .     S
C758   C766    1.409   .     A
C758   C760    1.387   .     A
C758   H776    1.079   .     S
C759   H848    1.083   .     S
C761   C806    1.487   .     S
C761   C763    1.427   .     A
C762   C803    1.498   .     S
C762   C764    1.423   .     A
C763   C767    1.425   .     A
C763   C765    1.425   .     A
C764   C766    1.428   .     A
C764   C768    1.422   .     A
C765   C105    1.422   1_556 S
C767   C770    1.407   .     A
C767   C102    1.403   1_556 S
C768   C769    1.407   .     A
C769   C771    1.399   .     A
C769   H777    1.083   .     S
C770   H778    1.080   .     S
C770   C772    1.399   .     A
C771   C797    1.487   .     S
C772   C800    1.490   .     S
C772   C100    1.416   1_556 S
H773   C834    1.084   .     S
C779   N809    1.439   .     S
C779   C1225   1.390   1_545 S
C779   C860    1.410   .     S
C780   N812    1.439   .     S
C780   C1004   1.390   .     S
C781   H783    1.084   .     S
C781   C785    1.399   .     A
C781   C1001   1.390   .     S
C782   C786    1.399   .     A
C782   H784    1.084   .     S
C782   C1224   1.390   1_545 S
C785   C854    1.410   .     S
C787   H789    1.082   .     S
C787   C791    1.416   .     A
C787   N796    1.367   .     A
C788   N795    1.367   .     A
C788   H790    1.082   .     S
C788   C792    1.416   .     A
C791   H793    1.082   .     S
C791   N795    1.366   .     A
C792   H794    1.082   .     S
C792   N796    1.366   .     A
C797   O799    1.220   .     D
C797   H798    1.086   .     S
C800   O802    1.222   .     D
C800   H801    1.082   .     S
C803   O805    1.221   .     D
C803   H804    1.084   .     S
C806   O808    1.222   .     D
C806   H807    1.085   .     S
N809   O811    1.301   .     A
N809   O810    1.301   .     A
N812   O814    1.301   .     A
N812   O813    1.301   .     A
O815   C819    1.289   .     A
O815   Cu827   1.959   .     S
O816   C820    1.289   .     A
O816   Cu828   1.959   .     S
O817   Cu828   1.958   .     S
O817   C671    1.289   1_655 S
O818   Cu827   1.958   .     S
C819   C860    1.446   .     S
C820   C859    1.446   .     S
C820   O670    1.289   1_655 S
O821   Cu827   1.943   .     S
O822   Cu828   1.943   .     S
O822   C678    1.293   1_655 S
O823   Cu828   1.932   .     S
O823   C825    1.293   .     A
O824   C826    1.293   .     A
O824   Cu827   1.932   .     S
C825   C829    1.487   .     S
C825   O673    1.304   1_655 S
C826   C830    1.464   .     S
Cu827  N869    2.010   .     S
Cu828  N870    2.010   .     S
Cu828  Cu679   2.674   1_655 S
C829   C833    1.400   .     A
C829   C835    1.424   .     A
C830   C834    1.396   .     A
C830   C836    1.408   .     A
C831   C839    1.407   .     A
C831   C833    1.389   .     A
C831   H701    1.079   1_655 S
C832   C840    1.409   .     A
C832   C834    1.387   .     A
C832   H850    1.079   .     S
C833   H700    1.083   1_655 S
C835   C880    1.487   .     S
C835   C837    1.427   .     A
C836   C877    1.498   .     S
C836   C838    1.423   .     A
C837   C841    1.425   .     A
C837   C839    1.425   .     A
C838   C840    1.428   .     A
C838   C842    1.422   .     A
C839   C179    1.422   1_556 S
C841   C844    1.407   .     A
C841   C176    1.403   1_556 S
C842   C843    1.407   .     A
C843   C845    1.399   .     A
C843   H851    1.083   .     S
C844   H852    1.080   .     S
C844   C846    1.399   .     A
C845   C871    1.487   .     S
C846   C874    1.490   .     S
C846   C174    1.416   1_556 S
H847   C686    1.084   1_655 S
C853   N883    1.439   .     S
C853   C1299   1.390   1_545 S
C853   C712    1.410   1_655 S
C854   N886    1.439   .     S
C854   C1078   1.390   .     S
C855   H857    1.084   .     S
C855   C859    1.399   .     A
C855   C1075   1.390   .     S
C856   C860    1.399   .     A
C856   H858    1.084   .     S
C856   C1298   1.390   1_545 S
C859   C706    1.410   1_655 S
C861   H863    1.082   .     S
C861   C865    1.416   .     A
C861   N870    1.367   .     A
C862   N869    1.367   .     A
C862   H864    1.082   .     S
C862   C866    1.416   .     A
C865   H867    1.082   .     S
C865   N869    1.366   .     A
C866   H868    1.082   .     S
C866   N870    1.366   .     A
C871   O873    1.220   .     D
C871   H872    1.086   .     S
C874   O876    1.222   .     D
C874   H875    1.082   .     S
C877   O879    1.221   .     D
C877   H878    1.084   .     S
C880   O882    1.222   .     D
C880   H881    1.085   .     S
N883   O885    1.301   .     A
N883   O884    1.301   .     A
N886   O888    1.301   .     A
N886   O887    1.301   .     A
O889   C893    1.289   .     A
O889   Cu901   1.959   .     S
O890   C894    1.289   .     A
O890   Cu902   1.959   .     S
O891   Cu902   1.958   .     S
O891   C967    1.289   .     S
O892   Cu901   1.958   .     S
O892   C1042   1.289   1_455 S
C893   C934    1.446   .     S
C893   O1039   1.289   1_455 S
C894   C933    1.446   .     S
C894   O966    1.289   .     S
O895   Cu901   1.943   .     S
O895   C1047   1.304   1_455 S
O896   Cu902   1.943   .     S
O896   C974    1.293   .     S
O897   Cu902   1.932   .     S
O897   C899    1.293   .     A
O898   C900    1.293   .     A
O898   Cu901   1.932   .     S
C899   C903    1.487   .     S
C899   O969    1.304   .     S
C900   C904    1.464   .     S
C900   O1044   1.293   1_455 S
Cu901  N943    2.010   .     S
Cu901  Cu1050  2.674   1_455 S
Cu902  N944    2.010   .     S
Cu902  Cu975   2.674   .     S
C903   C907    1.400   .     A
C903   C909    1.424   .     A
C904   C908    1.396   .     A
C904   C910    1.408   .     A
C905   C913    1.407   .     A
C905   C907    1.389   .     A
C905   H997    1.079   .     S
C906   C914    1.409   .     A
C906   C908    1.387   .     A
C906   H924    1.079   .     S
C907   H996    1.083   .     S
C908   H1069   1.084   1_455 S
C909   C954    1.487   .     S
C909   C911    1.427   .     A
C910   C951    1.498   .     S
C910   C912    1.423   .     A
C911   C915    1.425   .     A
C911   C913    1.425   .     A
C912   C914    1.428   .     A
C912   C916    1.422   .     A
C913   C253    1.422   1_556 S
C915   C918    1.407   .     A
C915   C250    1.403   1_556 S
C916   C917    1.407   .     A
C917   C919    1.399   .     A
C917   H925    1.083   .     S
C918   H926    1.080   .     S
C918   C920    1.399   .     A
C919   C945    1.487   .     S
C920   C948    1.490   .     S
C920   C248    1.416   1_556 S
H921   C982    1.084   .     S
H922   C1055   1.083   1_455 S
H923   C1053   1.079   1_455 S
C927   N957    1.439   .     S
C927   C1008   1.410   .     S
C928   N960    1.439   .     S
C928   C1152   1.390   .     S
C928   C1081   1.410   1_455 S
C929   H931    1.084   .     S
C929   C933    1.399   .     A
C929   C1149   1.390   .     S
C930   C934    1.399   .     A
C930   H932    1.084   .     S
C933   C1002   1.410   .     S
C934   C1075   1.410   1_455 S
C935   H937    1.082   .     S
C935   C939    1.416   .     A
C935   N944    1.367   .     A
C936   N943    1.367   .     A
C936   H938    1.082   .     S
C936   C940    1.416   .     A
C939   H941    1.082   .     S
C939   N943    1.366   .     A
C940   H942    1.082   .     S
C940   N944    1.366   .     A
C945   O947    1.220   .     D
C945   H946    1.086   .     S
C948   O950    1.222   .     D
C948   H949    1.082   .     S
C951   O953    1.221   .     D
C951   H952    1.084   .     S
C954   O956    1.222   .     D
C954   H955    1.085   .     S
N957   O959    1.301   .     A
N957   O958    1.301   .     A
N960   O962    1.301   .     A
N960   O961    1.301   .     A
O963   C967    1.289   .     A
O963   Cu975   1.959   .     S
O964   C968    1.289   .     A
O964   Cu976   1.959   .     S
O965   Cu976   1.958   .     S
O965   C1041   1.289   .     S
O966   Cu975   1.958   .     S
C967   C1008   1.446   .     S
C968   C1007   1.446   .     S
C968   O1040   1.289   .     S
O969   Cu975   1.943   .     S
O970   Cu976   1.943   .     S
O970   C1048   1.293   .     S
O971   Cu976   1.932   .     S
O971   C973    1.293   .     A
O972   C974    1.293   .     A
O972   Cu975   1.932   .     S
C973   C977    1.487   .     S
C973   O1043   1.304   .     S
C974   C978    1.464   .     S
Cu975  N1017   2.010   .     S
Cu976  N1018   2.010   .     S
Cu976  Cu1049  2.674   .     S
C977   C981    1.400   .     A
C977   C983    1.424   .     A
C978   C982    1.396   .     A
C978   C984    1.408   .     A
C979   C987    1.407   .     A
C979   C981    1.389   .     A
C979   H1071   1.079   .     S
C980   C988    1.409   .     A
C980   C982    1.387   .     A
C980   H998    1.079   .     S
C981   H1070   1.083   .     S
C983   C1028   1.487   .     S
C983   C985    1.427   .     A
C984   C1025   1.498   .     S
C984   C986    1.423   .     A
C985   C989    1.425   .     A
C985   C987    1.425   .     A
C986   C988    1.428   .     A
C986   C990    1.422   .     A
C987   C327    1.422   1_556 S
C989   C992    1.407   .     A
C989   C324    1.403   1_556 S
C990   C991    1.407   .     A
C991   C993    1.399   .     A
C991   H999    1.083   .     S
C992   H1000   1.080   .     S
C992   C994    1.399   .     A
C993   C1019   1.487   .     S
C994   C1022   1.490   .     S
C994   C322    1.416   1_556 S
H995   C1056   1.084   .     S
C1001  N1031   1.439   .     S
C1001  C1082   1.410   .     S
C1002  N1034   1.439   .     S
C1002  C1226   1.390   .     S
C1003  H1005   1.084   .     S
C1003  C1007   1.399   .     A
C1003  C1223   1.390   .     S
C1004  C1008   1.399   .     A
C1004  H1006   1.084   .     S
C1007  C1076   1.410   .     S
C1009  H1011   1.082   .     S
C1009  C1013   1.416   .     A
C1009  N1018   1.367   .     A
C1010  N1017   1.367   .     A
C1010  H1012   1.082   .     S
C1010  C1014   1.416   .     A
C1013  H1015   1.082   .     S
C1013  N1017   1.366   .     A
C1014  H1016   1.082   .     S
C1014  N1018   1.366   .     A
C1019  O1021   1.220   .     D
C1019  H1020   1.086   .     S
C1022  O1024   1.222   .     D
C1022  H1023   1.082   .     S
C1025  O1027   1.221   .     D
C1025  H1026   1.084   .     S
C1028  O1030   1.222   .     D
C1028  H1029   1.085   .     S
N1031  O1033   1.301   .     A
N1031  O1032   1.301   .     A
N1034  O1036   1.301   .     A
N1034  O1035   1.301   .     A
O1037  C1041   1.289   .     A
O1037  Cu1049  1.959   .     S
O1038  C1042   1.289   .     A
O1038  Cu1050  1.959   .     S
O1039  Cu1050  1.958   .     S
O1039  C893    1.289   1_655 S
O1040  Cu1049  1.958   .     S
C1041  C1082   1.446   .     S
C1042  C1081   1.446   .     S
C1042  O892    1.289   1_655 S
O1043  Cu1049  1.943   .     S
O1044  Cu1050  1.943   .     S
O1044  C900    1.293   1_655 S
O1045  Cu1050  1.932   .     S
O1045  C1047   1.293   .     A
O1046  C1048   1.293   .     A
O1046  Cu1049  1.932   .     S
C1047  C1051   1.487   .     S
C1047  O895    1.304   1_655 S
C1048  C1052   1.464   .     S
Cu1049 N1091   2.010   .     S
Cu1050 N1092   2.010   .     S
Cu1050 Cu901   2.674   1_655 S
C1051  C1055   1.400   .     A
C1051  C1057   1.424   .     A
C1052  C1056   1.396   .     A
C1052  C1058   1.408   .     A
C1053  C1061   1.407   .     A
C1053  C1055   1.389   .     A
C1053  H923    1.079   1_655 S
C1054  C1062   1.409   .     A
C1054  C1056   1.387   .     A
C1054  H1072   1.079   .     S
C1055  H922    1.083   1_655 S
C1057  C1102   1.487   .     S
C1057  C1059   1.427   .     A
C1058  C1099   1.498   .     S
C1058  C1060   1.423   .     A
C1059  C1063   1.425   .     A
C1059  C1061   1.425   .     A
C1060  C1062   1.428   .     A
C1060  C1064   1.422   .     A
C1061  C401    1.422   1_556 S
C1063  C1066   1.407   .     A
C1063  C398    1.403   1_556 S
C1064  C1065   1.407   .     A
C1065  C1067   1.399   .     A
C1065  H1073   1.083   .     S
C1066  H1074   1.080   .     S
C1066  C1068   1.399   .     A
C1067  C1093   1.487   .     S
C1068  C1096   1.490   .     S
C1068  C396    1.416   1_556 S
H1069  C908    1.084   1_655 S
C1075  N1105   1.439   .     S
C1075  C934    1.410   1_655 S
C1076  N1108   1.439   .     S
C1076  C1300   1.390   .     S
C1077  H1079   1.084   .     S
C1077  C1081   1.399   .     A
C1077  C1297   1.390   .     S
C1078  C1082   1.399   .     A
C1078  H1080   1.084   .     S
C1081  C928    1.410   1_655 S
C1083  H1085   1.082   .     S
C1083  C1087   1.416   .     A
C1083  N1092   1.367   .     A
C1084  N1091   1.367   .     A
C1084  H1086   1.082   .     S
C1084  C1088   1.416   .     A
C1087  H1089   1.082   .     S
C1087  N1091   1.366   .     A
C1088  H1090   1.082   .     S
C1088  N1092   1.366   .     A
C1093  O1095   1.220   .     D
C1093  H1094   1.086   .     S
C1096  O1098   1.222   .     D
C1096  H1097   1.082   .     S
C1099  O1101   1.221   .     D
C1099  H1100   1.084   .     S
C1102  O1104   1.222   .     D
C1102  H1103   1.085   .     S
N1105  O1107   1.301   .     A
N1105  O1106   1.301   .     A
N1108  O1110   1.301   .     A
N1108  O1109   1.301   .     A
O1111  C1115   1.289   .     A
O1111  Cu1123  1.959   .     S
O1112  C1116   1.289   .     A
O1112  Cu1124  1.959   .     S
O1113  Cu1124  1.958   .     S
O1113  C1189   1.289   .     S
O1114  Cu1123  1.958   .     S
O1114  C1264   1.289   1_455 S
C1115  C1156   1.446   .     S
C1115  O1261   1.289   1_455 S
C1116  C1155   1.446   .     S
C1116  O1188   1.289   .     S
O1117  Cu1123  1.943   .     S
O1117  C1269   1.304   1_455 S
O1118  Cu1124  1.943   .     S
O1118  C1196   1.293   .     S
O1119  Cu1124  1.932   .     S
O1119  C1121   1.293   .     A
O1120  C1122   1.293   .     A
O1120  Cu1123  1.932   .     S
C1121  C1125   1.487   .     S
C1121  O1191   1.304   .     S
C1122  C1126   1.464   .     S
C1122  O1266   1.293   1_455 S
Cu1123 N1165   2.010   .     S
Cu1123 Cu1272  2.674   1_455 S
Cu1124 N1166   2.010   .     S
Cu1124 Cu1197  2.674   .     S
C1125  C1129   1.400   .     A
C1125  C1131   1.424   .     A
C1126  C1130   1.396   .     A
C1126  C1132   1.408   .     A
C1127  C1135   1.407   .     A
C1127  C1129   1.389   .     A
C1127  H1219   1.079   .     S
C1128  C1136   1.409   .     A
C1128  C1130   1.387   .     A
C1128  H1146   1.079   .     S
C1129  H1218   1.083   .     S
C1130  H1291   1.084   1_455 S
C1131  C1176   1.487   .     S
C1131  C1133   1.427   .     A
C1132  C1173   1.498   .     S
C1132  C1134   1.423   .     A
C1133  C1137   1.425   .     A
C1133  C1135   1.425   .     A
C1134  C1136   1.428   .     A
C1134  C1138   1.422   .     A
C1135  C475    1.422   1_556 S
C1137  C1140   1.407   .     A
C1137  C472    1.403   1_556 S
C1138  C1139   1.407   .     A
C1139  C1141   1.399   .     A
C1139  H1147   1.083   .     S
C1140  H1148   1.080   .     S
C1140  C1142   1.399   .     A
C1141  C1167   1.487   .     S
C1142  C1170   1.490   .     S
C1142  C470    1.416   1_556 S
H1143  C1204   1.084   .     S
H1144  C1277   1.083   1_455 S
H1145  C1275   1.079   1_455 S
C1149  N1179   1.439   .     S
C1149  C1230   1.410   .     S
C1150  N1182   1.439   .     S
C1150  C708    1.390   1_565 S
C1150  C1303   1.410   1_455 S
C1151  H1153   1.084   .     S
C1151  C1155   1.399   .     A
C1151  C705    1.390   1_565 S
C1152  C1156   1.399   .     A
C1152  H1154   1.084   .     S
C1155  C1224   1.410   .     S
C1156  C1297   1.410   1_455 S
C1157  H1159   1.082   .     S
C1157  C1161   1.416   .     A
C1157  N1166   1.367   .     A
C1158  N1165   1.367   .     A
C1158  H1160   1.082   .     S
C1158  C1162   1.416   .     A
C1161  H1163   1.082   .     S
C1161  N1165   1.366   .     A
C1162  H1164   1.082   .     S
C1162  N1166   1.366   .     A
C1167  O1169   1.220   .     D
C1167  H1168   1.086   .     S
C1170  O1172   1.222   .     D
C1170  H1171   1.082   .     S
C1173  O1175   1.221   .     D
C1173  H1174   1.084   .     S
C1176  O1178   1.222   .     D
C1176  H1177   1.085   .     S
N1179  O1181   1.301   .     A
N1179  O1180   1.301   .     A
N1182  O1184   1.301   .     A
N1182  O1183   1.301   .     A
O1185  C1189   1.289   .     A
O1185  Cu1197  1.959   .     S
O1186  C1190   1.289   .     A
O1186  Cu1198  1.959   .     S
O1187  Cu1198  1.958   .     S
O1187  C1263   1.289   .     S
O1188  Cu1197  1.958   .     S
C1189  C1230   1.446   .     S
C1190  C1229   1.446   .     S
C1190  O1262   1.289   .     S
O1191  Cu1197  1.943   .     S
O1192  Cu1198  1.943   .     S
O1192  C1270   1.293   .     S
O1193  Cu1198  1.932   .     S
O1193  C1195   1.293   .     A
O1194  C1196   1.293   .     A
O1194  Cu1197  1.932   .     S
C1195  C1199   1.487   .     S
C1195  O1265   1.304   .     S
C1196  C1200   1.464   .     S
Cu1197 N1239   2.010   .     S
Cu1198 N1240   2.010   .     S
Cu1198 Cu1271  2.674   .     S
C1199  C1203   1.400   .     A
C1199  C1205   1.424   .     A
C1200  C1204   1.396   .     A
C1200  C1206   1.408   .     A
C1201  C1209   1.407   .     A
C1201  C1203   1.389   .     A
C1201  H1293   1.079   .     S
C1202  C1210   1.409   .     A
C1202  C1204   1.387   .     A
C1202  H1220   1.079   .     S
C1203  H1292   1.083   .     S
C1205  C1250   1.487   .     S
C1205  C1207   1.427   .     A
C1206  C1247   1.498   .     S
C1206  C1208   1.423   .     A
C1207  C1211   1.425   .     A
C1207  C1209   1.425   .     A
C1208  C1210   1.428   .     A
C1208  C1212   1.422   .     A
C1209  C549    1.422   1_556 S
C1211  C1214   1.407   .     A
C1211  C546    1.403   1_556 S
C1212  C1213   1.407   .     A
C1213  C1215   1.399   .     A
C1213  H1221   1.083   .     S
C1214  H1222   1.080   .     S
C1214  C1216   1.399   .     A
C1215  C1241   1.487   .     S
C1216  C1244   1.490   .     S
C1216  C544    1.416   1_556 S
H1217  C1278   1.084   .     S
C1223  N1253   1.439   .     S
C1223  C1304   1.410   .     S
C1224  N1256   1.439   .     S
C1224  C782    1.390   1_565 S
C1225  H1227   1.084   .     S
C1225  C1229   1.399   .     A
C1225  C779    1.390   1_565 S
C1226  C1230   1.399   .     A
C1226  H1228   1.084   .     S
C1229  C1298   1.410   .     S
C1231  H1233   1.082   .     S
C1231  C1235   1.416   .     A
C1231  N1240   1.367   .     A
C1232  N1239   1.367   .     A
C1232  H1234   1.082   .     S
C1232  C1236   1.416   .     A
C1235  H1237   1.082   .     S
C1235  N1239   1.366   .     A
C1236  H1238   1.082   .     S
C1236  N1240   1.366   .     A
C1241  O1243   1.220   .     D
C1241  H1242   1.086   .     S
C1244  O1246   1.222   .     D
C1244  H1245   1.082   .     S
C1247  O1249   1.221   .     D
C1247  H1248   1.084   .     S
C1250  O1252   1.222   .     D
C1250  H1251   1.085   .     S
N1253  O1255   1.301   .     A
N1253  O1254   1.301   .     A
N1256  O1258   1.301   .     A
N1256  O1257   1.301   .     A
O1259  C1263   1.289   .     A
O1259  Cu1271  1.959   .     S
O1260  C1264   1.289   .     A
O1260  Cu1272  1.959   .     S
O1261  Cu1272  1.958   .     S
O1261  C1115   1.289   1_655 S
O1262  Cu1271  1.958   .     S
C1263  C1304   1.446   .     S
C1264  C1303   1.446   .     S
C1264  O1114   1.289   1_655 S
O1265  Cu1271  1.943   .     S
O1266  Cu1272  1.943   .     S
O1266  C1122   1.293   1_655 S
O1267  Cu1272  1.932   .     S
O1267  C1269   1.293   .     A
O1268  C1270   1.293   .     A
O1268  Cu1271  1.932   .     S
C1269  C1273   1.487   .     S
C1269  O1117   1.304   1_655 S
C1270  C1274   1.464   .     S
Cu1271 N1313   2.010   .     S
Cu1272 N1314   2.010   .     S
Cu1272 Cu1123  2.674   1_655 S
C1273  C1277   1.400   .     A
C1273  C1279   1.424   .     A
C1274  C1278   1.396   .     A
C1274  C1280   1.408   .     A
C1275  C1283   1.407   .     A
C1275  C1277   1.389   .     A
C1275  H1145   1.079   1_655 S
C1276  C1284   1.409   .     A
C1276  C1278   1.387   .     A
C1276  H1294   1.079   .     S
C1277  H1144   1.083   1_655 S
C1279  C1324   1.487   .     S
C1279  C1281   1.427   .     A
C1280  C1321   1.498   .     S
C1280  C1282   1.423   .     A
C1281  C1285   1.425   .     A
C1281  C1283   1.425   .     A
C1282  C1284   1.428   .     A
C1282  C1286   1.422   .     A
C1283  C623    1.422   1_556 S
C1285  C1288   1.407   .     A
C1285  C620    1.403   1_556 S
C1286  C1287   1.407   .     A
C1287  C1289   1.399   .     A
C1287  H1295   1.083   .     S
C1288  H1296   1.080   .     S
C1288  C1290   1.399   .     A
C1289  C1315   1.487   .     S
C1290  C1318   1.490   .     S
C1290  C618    1.416   1_556 S
H1291  C1130   1.084   1_655 S
C1297  N1327   1.439   .     S
C1297  C1156   1.410   1_655 S
C1298  N1330   1.439   .     S
C1298  C856    1.390   1_565 S
C1299  H1301   1.084   .     S
C1299  C1303   1.399   .     A
C1299  C853    1.390   1_565 S
C1300  C1304   1.399   .     A
C1300  H1302   1.084   .     S
C1303  C1150   1.410   1_655 S
C1305  H1307   1.082   .     S
C1305  C1309   1.416   .     A
C1305  N1314   1.367   .     A
C1306  N1313   1.367   .     A
C1306  H1308   1.082   .     S
C1306  C1310   1.416   .     A
C1309  H1311   1.082   .     S
C1309  N1313   1.366   .     A
C1310  H1312   1.082   .     S
C1310  N1314   1.366   .     A
C1315  O1317   1.220   .     D
C1315  H1316   1.086   .     S
C1318  O1320   1.222   .     D
C1318  H1319   1.082   .     S
C1321  O1323   1.221   .     D
C1321  H1322   1.084   .     S
C1324  O1326   1.222   .     D
C1324  H1325   1.085   .     S
N1327  O1329   1.301   .     A
N1327  O1328   1.301   .     A
N1330  O1332   1.301   .     A
N1330  O1331   1.301   .     A
