data_str_m2_o1_o16_pcu_sym.176
_audit_creation_date              2020-01-03
_audit_creation_method            'Materials Studio'
_symmetry_space_group_name_H-M    'P1'
_symmetry_Int_Tables_number       1
_symmetry_cell_setting            triclinic
loop_
_symmetry_equiv_pos_as_xyz
  x,y,z
_cell_length_a                    28.6114
_cell_length_b                    32.4988
_cell_length_c                    26.9221
_cell_angle_alpha                 90.6821
_cell_angle_beta                  72.3865
_cell_angle_gamma                 89.9289
loop_
_atom_site_label
_atom_site_type_symbol
_atom_site_fract_x
_atom_site_fract_y
_atom_site_fract_z
_atom_site_U_iso_or_equiv
_atom_site_adp_type
_atom_site_occupancy
C1     C     0.16663   0.24596   0.25011   0.00000  Uiso   1.00
C2     C     0.14436   0.16013   0.48976   0.00000  Uiso   1.00
C3     C     0.15719   0.15103   0.43559   0.00000  Uiso   1.00
C4     C     0.18073   0.15570   0.01564   0.00000  Uiso   1.00
C5     C     0.22754   0.13920   0.48823   0.00000  Uiso   1.00
C6     C     0.23700   0.12555   0.43696   0.00000  Uiso   1.00
C7     C     0.20204   0.13053   0.41136   0.00000  Uiso   1.00
C8     C     0.17226   0.16762   0.06784   0.00000  Uiso   1.00
C9     C     0.25432   0.14692   0.06504   0.00000  Uiso   1.00
C10    C     0.12447   0.16232   0.40741   0.00000  Uiso   1.00
C11    C     0.20902   0.31201   0.25044   0.00000  Uiso   1.00
C12    C     0.14046   0.16442   0.35001   0.00000  Uiso   1.00
C13    C     0.20903   0.02125   0.25045   0.00000  Uiso   1.00
C14    C     0.16664   0.04275   0.25020   0.00000  Uiso   1.00
C15    C     0.12417   0.02133   0.25017   0.00000  Uiso   1.00
C16    C     0.12415   0.31210   0.25017   0.00000  Uiso   1.00
C17    C     0.16660   0.29059   0.25023   0.00000  Uiso   1.00
C18    C     0.29929   0.19240   0.28248   0.00000  Uiso   1.00
C19    C     0.01546   0.19231   0.28255   0.00000  Uiso   1.00
C20    C     0.03441   0.14078   0.21733   0.00000  Uiso   1.00
C21    C     0.31789   0.14071   0.21746   0.00000  Uiso   1.00
C22    C     0.16666   0.08738   0.25003   0.00000  Uiso   1.00
C23    C     0.19291   0.16630   0.14996   0.00000  Uiso   1.00
C24    C     0.26416   0.13571   0.01280   0.00000  Uiso   1.00
C25    C     0.20773   0.16159   0.09314   0.00000  Uiso   1.00
C26    C     0.07677   0.17553   0.43462   0.00000  Uiso   1.00
C27    C     0.06228   0.17983   0.48844   0.00000  Uiso   1.00
C28    C     0.09565   0.17309   0.01581   0.00000  Uiso   1.00
Cu29   Cu    0.11978   0.16666   0.25000   0.00000  Uiso   1.00
Cu30   Cu    0.21355   0.16667   0.25000   0.00000  Uiso   1.00
H31    H     0.28253   0.14278   0.08373   0.00000  Uiso   1.00
H32    H     0.24218   0.03721   0.25067   0.00000  Uiso   1.00
H33    H     0.09096   0.03736   0.25020   0.00000  Uiso   1.00
H34    H     0.09096   0.29613   0.25011   0.00000  Uiso   1.00
H35    H     0.27323   0.21305   0.30855   0.00000  Uiso   1.00
H36    H     0.02664   0.21289   0.30869   0.00000  Uiso   1.00
H37    H     0.27166   0.11092   0.41644   0.00000  Uiso   1.00
H38    H     0.30008   0.12346   0.49188   0.00000  Uiso   1.00
H39    H     0.13805   0.18145   0.09013   0.00000  Uiso   1.00
H40    H     0.05078   0.18350   0.41418   0.00000  Uiso   1.00
H41    H     0.08172   0.17755   0.05740   0.00000  Uiso   1.00
H42    H     0.02527   0.18979   0.00901   0.00000  Uiso   1.00
H43    H     0.21049   0.11714   0.37276   0.00000  Uiso   1.00
H44    H     0.24218   0.29597   0.25060   0.00000  Uiso   1.00
N45    N     0.04931   0.16666   0.24998   0.00000  Uiso   1.00
N46    N     0.28402   0.16669   0.24999   0.00000  Uiso   1.00
O47    O     0.12708   0.22678   0.25000   0.00000  Uiso   1.00
O48    O     0.20627   0.22679   0.25000   0.00000  Uiso   1.00
O49    O     0.10775   0.16665   0.32549   0.00000  Uiso   1.00
O50    O     0.18694   0.16666   0.32549   0.00000  Uiso   1.00
O51    O     0.12706   0.10654   0.24999   0.00000  Uiso   1.00
O52    O     0.20625   0.10655   0.24999   0.00000  Uiso   1.00
O53    O     0.14640   0.16667   0.17451   0.00000  Uiso   1.00
O54    O     0.22559   0.16668   0.17451   0.00000  Uiso   1.00
N55    N     0.06955   0.11369   0.18313   0.00000  Uiso   1.00
H56    H     0.07094   0.12010   0.14474   0.00000  Uiso   1.00
H57    H     0.05763   0.08340   0.19114   0.00000  Uiso   1.00
C58    C     0.30318   0.11244   0.18339   0.00000  Uiso   1.00
N59    N     0.29186   0.08939   0.15604   0.00000  Uiso   1.00
C60    C     0.49996   0.24596   0.25011   0.00000  Uiso   1.00
C61    C     0.47769   0.16013   0.48976   0.00000  Uiso   1.00
C62    C     0.49052   0.15103   0.43559   0.00000  Uiso   1.00
C63    C     0.51406   0.15570   0.01564   0.00000  Uiso   1.00
C64    C     0.56088   0.13920   0.48823   0.00000  Uiso   1.00
C65    C     0.57033   0.12555   0.43696   0.00000  Uiso   1.00
C66    C     0.53537   0.13053   0.41136   0.00000  Uiso   1.00
C67    C     0.50560   0.16762   0.06784   0.00000  Uiso   1.00
C68    C     0.58766   0.14692   0.06504   0.00000  Uiso   1.00
C69    C     0.45780   0.16232   0.40741   0.00000  Uiso   1.00
C70    C     0.54235   0.31201   0.25044   0.00000  Uiso   1.00
C71    C     0.47379   0.16442   0.35001   0.00000  Uiso   1.00
C72    C     0.54236   0.02125   0.25045   0.00000  Uiso   1.00
C73    C     0.49997   0.04275   0.25020   0.00000  Uiso   1.00
C74    C     0.45750   0.02133   0.25017   0.00000  Uiso   1.00
C75    C     0.45749   0.31210   0.25017   0.00000  Uiso   1.00
C76    C     0.49993   0.29059   0.25023   0.00000  Uiso   1.00
C77    C     0.63262   0.19240   0.28248   0.00000  Uiso   1.00
C78    C     0.34880   0.19231   0.28255   0.00000  Uiso   1.00
C79    C     0.36775   0.14078   0.21733   0.00000  Uiso   1.00
C80    C     0.65123   0.14071   0.21746   0.00000  Uiso   1.00
C81    C     0.50000   0.08738   0.25003   0.00000  Uiso   1.00
C82    C     0.52624   0.16630   0.14996   0.00000  Uiso   1.00
C83    C     0.59749   0.13571   0.01280   0.00000  Uiso   1.00
C84    C     0.54106   0.16159   0.09314   0.00000  Uiso   1.00
C85    C     0.41011   0.17553   0.43462   0.00000  Uiso   1.00
C86    C     0.39561   0.17983   0.48844   0.00000  Uiso   1.00
C87    C     0.42899   0.17309   0.01581   0.00000  Uiso   1.00
Cu88   Cu    0.45311   0.16666   0.25000   0.00000  Uiso   1.00
Cu89   Cu    0.54689   0.16667   0.25000   0.00000  Uiso   1.00
H90    H     0.61586   0.14278   0.08373   0.00000  Uiso   1.00
H91    H     0.57551   0.03721   0.25067   0.00000  Uiso   1.00
H92    H     0.42429   0.03736   0.25020   0.00000  Uiso   1.00
H93    H     0.42429   0.29613   0.25011   0.00000  Uiso   1.00
H94    H     0.60657   0.21305   0.30855   0.00000  Uiso   1.00
H95    H     0.35997   0.21289   0.30869   0.00000  Uiso   1.00
H96    H     0.60499   0.11092   0.41644   0.00000  Uiso   1.00
H97    H     0.63341   0.12346   0.49188   0.00000  Uiso   1.00
H98    H     0.47138   0.18145   0.09013   0.00000  Uiso   1.00
H99    H     0.38411   0.18350   0.41418   0.00000  Uiso   1.00
H100   H     0.41506   0.17755   0.05740   0.00000  Uiso   1.00
H101   H     0.35860   0.18979   0.00901   0.00000  Uiso   1.00
H102   H     0.54383   0.11714   0.37276   0.00000  Uiso   1.00
H103   H     0.57552   0.29597   0.25060   0.00000  Uiso   1.00
N104   N     0.38265   0.16666   0.24998   0.00000  Uiso   1.00
N105   N     0.61735   0.16669   0.24999   0.00000  Uiso   1.00
O106   O     0.46042   0.22678   0.25000   0.00000  Uiso   1.00
O107   O     0.53961   0.22679   0.25000   0.00000  Uiso   1.00
O108   O     0.44108   0.16665   0.32549   0.00000  Uiso   1.00
O109   O     0.52027   0.16666   0.32549   0.00000  Uiso   1.00
O110   O     0.46039   0.10654   0.24999   0.00000  Uiso   1.00
O111   O     0.53958   0.10655   0.24999   0.00000  Uiso   1.00
O112   O     0.47973   0.16667   0.17451   0.00000  Uiso   1.00
O113   O     0.55892   0.16668   0.17451   0.00000  Uiso   1.00
N114   N     0.40288   0.11369   0.18313   0.00000  Uiso   1.00
H115   H     0.40427   0.12010   0.14474   0.00000  Uiso   1.00
H116   H     0.39096   0.08340   0.19114   0.00000  Uiso   1.00
C117   C     0.63651   0.11244   0.18339   0.00000  Uiso   1.00
N118   N     0.62519   0.08939   0.15604   0.00000  Uiso   1.00
C119   C     0.83330   0.24596   0.25011   0.00000  Uiso   1.00
C120   C     0.81103   0.16013   0.48976   0.00000  Uiso   1.00
C121   C     0.82385   0.15103   0.43559   0.00000  Uiso   1.00
C122   C     0.84739   0.15570   0.01564   0.00000  Uiso   1.00
C123   C     0.89421   0.13920   0.48823   0.00000  Uiso   1.00
C124   C     0.90367   0.12555   0.43696   0.00000  Uiso   1.00
C125   C     0.86870   0.13053   0.41136   0.00000  Uiso   1.00
C126   C     0.83893   0.16762   0.06784   0.00000  Uiso   1.00
C127   C     0.92099   0.14692   0.06504   0.00000  Uiso   1.00
C128   C     0.79113   0.16232   0.40741   0.00000  Uiso   1.00
C129   C     0.87568   0.31201   0.25044   0.00000  Uiso   1.00
C130   C     0.80712   0.16442   0.35001   0.00000  Uiso   1.00
C131   C     0.87570   0.02125   0.25045   0.00000  Uiso   1.00
C132   C     0.83330   0.04275   0.25020   0.00000  Uiso   1.00
C133   C     0.79084   0.02133   0.25017   0.00000  Uiso   1.00
C134   C     0.79082   0.31210   0.25017   0.00000  Uiso   1.00
C135   C     0.83326   0.29059   0.25023   0.00000  Uiso   1.00
C136   C     0.96596   0.19240   0.28248   0.00000  Uiso   1.00
C137   C     0.68213   0.19231   0.28255   0.00000  Uiso   1.00
C138   C     0.70108   0.14078   0.21733   0.00000  Uiso   1.00
C139   C     0.98456   0.14071   0.21746   0.00000  Uiso   1.00
C140   C     0.83333   0.08738   0.25003   0.00000  Uiso   1.00
C141   C     0.85958   0.16630   0.14996   0.00000  Uiso   1.00
C142   C     0.93083   0.13571   0.01280   0.00000  Uiso   1.00
C143   C     0.87440   0.16159   0.09314   0.00000  Uiso   1.00
C144   C     0.74344   0.17553   0.43462   0.00000  Uiso   1.00
C145   C     0.72894   0.17983   0.48844   0.00000  Uiso   1.00
C146   C     0.76232   0.17309   0.01581   0.00000  Uiso   1.00
Cu147  Cu    0.78645   0.16666   0.25000   0.00000  Uiso   1.00
Cu148  Cu    0.88022   0.16667   0.25000   0.00000  Uiso   1.00
H149   H     0.94920   0.14278   0.08373   0.00000  Uiso   1.00
H150   H     0.90885   0.03721   0.25067   0.00000  Uiso   1.00
H151   H     0.75762   0.03736   0.25020   0.00000  Uiso   1.00
H152   H     0.75762   0.29613   0.25011   0.00000  Uiso   1.00
H153   H     0.93990   0.21305   0.30855   0.00000  Uiso   1.00
H154   H     0.69331   0.21289   0.30869   0.00000  Uiso   1.00
H155   H     0.93833   0.11092   0.41644   0.00000  Uiso   1.00
H156   H     0.96675   0.12346   0.49188   0.00000  Uiso   1.00
H157   H     0.80472   0.18145   0.09013   0.00000  Uiso   1.00
H158   H     0.71745   0.18350   0.41418   0.00000  Uiso   1.00
H159   H     0.74839   0.17755   0.05740   0.00000  Uiso   1.00
H160   H     0.69194   0.18979   0.00901   0.00000  Uiso   1.00
H161   H     0.87716   0.11714   0.37276   0.00000  Uiso   1.00
H162   H     0.90885   0.29597   0.25060   0.00000  Uiso   1.00
N163   N     0.71598   0.16666   0.24998   0.00000  Uiso   1.00
N164   N     0.95069   0.16669   0.24999   0.00000  Uiso   1.00
O165   O     0.79375   0.22678   0.25000   0.00000  Uiso   1.00
O166   O     0.87294   0.22679   0.25000   0.00000  Uiso   1.00
O167   O     0.77441   0.16665   0.32549   0.00000  Uiso   1.00
O168   O     0.85360   0.16666   0.32549   0.00000  Uiso   1.00
O169   O     0.79373   0.10654   0.24999   0.00000  Uiso   1.00
O170   O     0.87292   0.10655   0.24999   0.00000  Uiso   1.00
O171   O     0.81306   0.16667   0.17451   0.00000  Uiso   1.00
O172   O     0.89225   0.16668   0.17451   0.00000  Uiso   1.00
N173   N     0.73621   0.11369   0.18313   0.00000  Uiso   1.00
H174   H     0.73760   0.12010   0.14474   0.00000  Uiso   1.00
H175   H     0.72430   0.08340   0.19114   0.00000  Uiso   1.00
C176   C     0.96985   0.11244   0.18339   0.00000  Uiso   1.00
N177   N     0.95852   0.08939   0.15604   0.00000  Uiso   1.00
C178   C     0.16663   0.57929   0.25011   0.00000  Uiso   1.00
C179   C     0.14436   0.49347   0.48976   0.00000  Uiso   1.00
C180   C     0.15719   0.48437   0.43559   0.00000  Uiso   1.00
C181   C     0.18073   0.48904   0.01564   0.00000  Uiso   1.00
C182   C     0.22754   0.47254   0.48823   0.00000  Uiso   1.00
C183   C     0.23700   0.45888   0.43696   0.00000  Uiso   1.00
C184   C     0.20204   0.46387   0.41136   0.00000  Uiso   1.00
C185   C     0.17226   0.50095   0.06784   0.00000  Uiso   1.00
C186   C     0.25432   0.48025   0.06504   0.00000  Uiso   1.00
C187   C     0.12447   0.49566   0.40741   0.00000  Uiso   1.00
C188   C     0.20902   0.64534   0.25044   0.00000  Uiso   1.00
C189   C     0.14046   0.49775   0.35001   0.00000  Uiso   1.00
C190   C     0.20903   0.35458   0.25045   0.00000  Uiso   1.00
C191   C     0.16664   0.37609   0.25020   0.00000  Uiso   1.00
C192   C     0.12417   0.35467   0.25017   0.00000  Uiso   1.00
C193   C     0.12415   0.64543   0.25017   0.00000  Uiso   1.00
C194   C     0.16660   0.62392   0.25023   0.00000  Uiso   1.00
C195   C     0.29929   0.52573   0.28248   0.00000  Uiso   1.00
C196   C     0.01546   0.52565   0.28255   0.00000  Uiso   1.00
C197   C     0.03441   0.47411   0.21733   0.00000  Uiso   1.00
C198   C     0.31789   0.47405   0.21746   0.00000  Uiso   1.00
C199   C     0.16666   0.42071   0.25003   0.00000  Uiso   1.00
C200   C     0.19291   0.49963   0.14996   0.00000  Uiso   1.00
C201   C     0.26416   0.46904   0.01280   0.00000  Uiso   1.00
C202   C     0.20773   0.49492   0.09314   0.00000  Uiso   1.00
C203   C     0.07677   0.50886   0.43462   0.00000  Uiso   1.00
C204   C     0.06228   0.51317   0.48844   0.00000  Uiso   1.00
C205   C     0.09565   0.50643   0.01581   0.00000  Uiso   1.00
Cu206  Cu    0.11978   0.49999   0.25000   0.00000  Uiso   1.00
Cu207  Cu    0.21355   0.50001   0.25000   0.00000  Uiso   1.00
H208   H     0.28253   0.47611   0.08373   0.00000  Uiso   1.00
H209   H     0.24218   0.37054   0.25067   0.00000  Uiso   1.00
H210   H     0.09096   0.37069   0.25020   0.00000  Uiso   1.00
H211   H     0.09096   0.62946   0.25011   0.00000  Uiso   1.00
H212   H     0.27323   0.54639   0.30855   0.00000  Uiso   1.00
H213   H     0.02664   0.54622   0.30869   0.00000  Uiso   1.00
H214   H     0.27166   0.44425   0.41644   0.00000  Uiso   1.00
H215   H     0.30008   0.45680   0.49188   0.00000  Uiso   1.00
H216   H     0.13805   0.51479   0.09013   0.00000  Uiso   1.00
H217   H     0.05078   0.51683   0.41418   0.00000  Uiso   1.00
H218   H     0.08172   0.51088   0.05740   0.00000  Uiso   1.00
H219   H     0.02527   0.52313   0.00901   0.00000  Uiso   1.00
H220   H     0.21049   0.45047   0.37276   0.00000  Uiso   1.00
H221   H     0.24218   0.62930   0.25060   0.00000  Uiso   1.00
N222   N     0.04931   0.49999   0.24998   0.00000  Uiso   1.00
N223   N     0.28402   0.50002   0.24999   0.00000  Uiso   1.00
O224   O     0.12708   0.56011   0.25000   0.00000  Uiso   1.00
O225   O     0.20627   0.56012   0.25000   0.00000  Uiso   1.00
O226   O     0.10775   0.49998   0.32549   0.00000  Uiso   1.00
O227   O     0.18694   0.49999   0.32549   0.00000  Uiso   1.00
O228   O     0.12706   0.43988   0.24999   0.00000  Uiso   1.00
O229   O     0.20625   0.43989   0.24999   0.00000  Uiso   1.00
O230   O     0.14640   0.50001   0.17451   0.00000  Uiso   1.00
O231   O     0.22559   0.50002   0.17451   0.00000  Uiso   1.00
N232   N     0.06955   0.44702   0.18313   0.00000  Uiso   1.00
H233   H     0.07094   0.45343   0.14474   0.00000  Uiso   1.00
H234   H     0.05763   0.41674   0.19114   0.00000  Uiso   1.00
C235   C     0.30318   0.44577   0.18339   0.00000  Uiso   1.00
N236   N     0.29186   0.42272   0.15604   0.00000  Uiso   1.00
C237   C     0.49996   0.57929   0.25011   0.00000  Uiso   1.00
C238   C     0.47769   0.49347   0.48976   0.00000  Uiso   1.00
C239   C     0.49052   0.48437   0.43559   0.00000  Uiso   1.00
C240   C     0.51406   0.48904   0.01564   0.00000  Uiso   1.00
C241   C     0.56088   0.47254   0.48823   0.00000  Uiso   1.00
C242   C     0.57033   0.45888   0.43696   0.00000  Uiso   1.00
C243   C     0.53537   0.46387   0.41136   0.00000  Uiso   1.00
C244   C     0.50560   0.50095   0.06784   0.00000  Uiso   1.00
C245   C     0.58766   0.48025   0.06504   0.00000  Uiso   1.00
C246   C     0.45780   0.49566   0.40741   0.00000  Uiso   1.00
C247   C     0.54235   0.64534   0.25044   0.00000  Uiso   1.00
C248   C     0.47379   0.49775   0.35001   0.00000  Uiso   1.00
C249   C     0.54236   0.35458   0.25045   0.00000  Uiso   1.00
C250   C     0.49997   0.37609   0.25020   0.00000  Uiso   1.00
C251   C     0.45750   0.35467   0.25017   0.00000  Uiso   1.00
C252   C     0.45749   0.64543   0.25017   0.00000  Uiso   1.00
C253   C     0.49993   0.62392   0.25023   0.00000  Uiso   1.00
C254   C     0.63262   0.52573   0.28248   0.00000  Uiso   1.00
C255   C     0.34880   0.52565   0.28255   0.00000  Uiso   1.00
C256   C     0.36775   0.47411   0.21733   0.00000  Uiso   1.00
C257   C     0.65123   0.47405   0.21746   0.00000  Uiso   1.00
C258   C     0.50000   0.42071   0.25003   0.00000  Uiso   1.00
C259   C     0.52624   0.49963   0.14996   0.00000  Uiso   1.00
C260   C     0.59749   0.46904   0.01280   0.00000  Uiso   1.00
C261   C     0.54106   0.49492   0.09314   0.00000  Uiso   1.00
C262   C     0.41011   0.50886   0.43462   0.00000  Uiso   1.00
C263   C     0.39561   0.51317   0.48844   0.00000  Uiso   1.00
C264   C     0.42899   0.50643   0.01581   0.00000  Uiso   1.00
Cu265  Cu    0.45311   0.49999   0.25000   0.00000  Uiso   1.00
Cu266  Cu    0.54689   0.50001   0.25000   0.00000  Uiso   1.00
H267   H     0.61586   0.47611   0.08373   0.00000  Uiso   1.00
H268   H     0.57551   0.37054   0.25067   0.00000  Uiso   1.00
H269   H     0.42429   0.37069   0.25020   0.00000  Uiso   1.00
H270   H     0.42429   0.62946   0.25011   0.00000  Uiso   1.00
H271   H     0.60657   0.54639   0.30855   0.00000  Uiso   1.00
H272   H     0.35997   0.54622   0.30869   0.00000  Uiso   1.00
H273   H     0.60499   0.44425   0.41644   0.00000  Uiso   1.00
H274   H     0.63341   0.45680   0.49188   0.00000  Uiso   1.00
H275   H     0.47138   0.51479   0.09013   0.00000  Uiso   1.00
H276   H     0.38411   0.51683   0.41418   0.00000  Uiso   1.00
H277   H     0.41506   0.51088   0.05740   0.00000  Uiso   1.00
H278   H     0.35860   0.52313   0.00901   0.00000  Uiso   1.00
H279   H     0.54383   0.45047   0.37276   0.00000  Uiso   1.00
H280   H     0.57552   0.62930   0.25060   0.00000  Uiso   1.00
N281   N     0.38265   0.49999   0.24998   0.00000  Uiso   1.00
N282   N     0.61735   0.50002   0.24999   0.00000  Uiso   1.00
O283   O     0.46042   0.56011   0.25000   0.00000  Uiso   1.00
O284   O     0.53961   0.56012   0.25000   0.00000  Uiso   1.00
O285   O     0.44108   0.49998   0.32549   0.00000  Uiso   1.00
O286   O     0.52027   0.49999   0.32549   0.00000  Uiso   1.00
O287   O     0.46039   0.43988   0.24999   0.00000  Uiso   1.00
O288   O     0.53958   0.43989   0.24999   0.00000  Uiso   1.00
O289   O     0.47973   0.50001   0.17451   0.00000  Uiso   1.00
O290   O     0.55892   0.50002   0.17451   0.00000  Uiso   1.00
N291   N     0.40288   0.44702   0.18313   0.00000  Uiso   1.00
H292   H     0.40427   0.45343   0.14474   0.00000  Uiso   1.00
H293   H     0.39096   0.41674   0.19114   0.00000  Uiso   1.00
C294   C     0.63651   0.44577   0.18339   0.00000  Uiso   1.00
N295   N     0.62519   0.42272   0.15604   0.00000  Uiso   1.00
C296   C     0.83330   0.57929   0.25011   0.00000  Uiso   1.00
C297   C     0.81103   0.49347   0.48976   0.00000  Uiso   1.00
C298   C     0.82385   0.48437   0.43559   0.00000  Uiso   1.00
C299   C     0.84739   0.48904   0.01564   0.00000  Uiso   1.00
C300   C     0.89421   0.47254   0.48823   0.00000  Uiso   1.00
C301   C     0.90367   0.45888   0.43696   0.00000  Uiso   1.00
C302   C     0.86870   0.46387   0.41136   0.00000  Uiso   1.00
C303   C     0.83893   0.50095   0.06784   0.00000  Uiso   1.00
C304   C     0.92099   0.48025   0.06504   0.00000  Uiso   1.00
C305   C     0.79113   0.49566   0.40741   0.00000  Uiso   1.00
C306   C     0.87568   0.64534   0.25044   0.00000  Uiso   1.00
C307   C     0.80712   0.49775   0.35001   0.00000  Uiso   1.00
C308   C     0.87570   0.35458   0.25045   0.00000  Uiso   1.00
C309   C     0.83330   0.37609   0.25020   0.00000  Uiso   1.00
C310   C     0.79084   0.35467   0.25017   0.00000  Uiso   1.00
C311   C     0.79082   0.64543   0.25017   0.00000  Uiso   1.00
C312   C     0.83326   0.62392   0.25023   0.00000  Uiso   1.00
C313   C     0.96596   0.52573   0.28248   0.00000  Uiso   1.00
C314   C     0.68213   0.52565   0.28255   0.00000  Uiso   1.00
C315   C     0.70108   0.47411   0.21733   0.00000  Uiso   1.00
C316   C     0.98456   0.47405   0.21746   0.00000  Uiso   1.00
C317   C     0.83333   0.42071   0.25003   0.00000  Uiso   1.00
C318   C     0.85958   0.49963   0.14996   0.00000  Uiso   1.00
C319   C     0.93083   0.46904   0.01280   0.00000  Uiso   1.00
C320   C     0.87440   0.49492   0.09314   0.00000  Uiso   1.00
C321   C     0.74344   0.50886   0.43462   0.00000  Uiso   1.00
C322   C     0.72894   0.51317   0.48844   0.00000  Uiso   1.00
C323   C     0.76232   0.50643   0.01581   0.00000  Uiso   1.00
Cu324  Cu    0.78645   0.49999   0.25000   0.00000  Uiso   1.00
Cu325  Cu    0.88022   0.50001   0.25000   0.00000  Uiso   1.00
H326   H     0.94920   0.47611   0.08373   0.00000  Uiso   1.00
H327   H     0.90885   0.37054   0.25067   0.00000  Uiso   1.00
H328   H     0.75762   0.37069   0.25020   0.00000  Uiso   1.00
H329   H     0.75762   0.62946   0.25011   0.00000  Uiso   1.00
H330   H     0.93990   0.54639   0.30855   0.00000  Uiso   1.00
H331   H     0.69331   0.54622   0.30869   0.00000  Uiso   1.00
H332   H     0.93833   0.44425   0.41644   0.00000  Uiso   1.00
H333   H     0.96675   0.45680   0.49188   0.00000  Uiso   1.00
H334   H     0.80472   0.51479   0.09013   0.00000  Uiso   1.00
H335   H     0.71745   0.51683   0.41418   0.00000  Uiso   1.00
H336   H     0.74839   0.51088   0.05740   0.00000  Uiso   1.00
H337   H     0.69194   0.52313   0.00901   0.00000  Uiso   1.00
H338   H     0.87716   0.45047   0.37276   0.00000  Uiso   1.00
H339   H     0.90885   0.62930   0.25060   0.00000  Uiso   1.00
N340   N     0.71598   0.49999   0.24998   0.00000  Uiso   1.00
N341   N     0.95069   0.50002   0.24999   0.00000  Uiso   1.00
O342   O     0.79375   0.56011   0.25000   0.00000  Uiso   1.00
O343   O     0.87294   0.56012   0.25000   0.00000  Uiso   1.00
O344   O     0.77441   0.49998   0.32549   0.00000  Uiso   1.00
O345   O     0.85360   0.49999   0.32549   0.00000  Uiso   1.00
O346   O     0.79373   0.43988   0.24999   0.00000  Uiso   1.00
O347   O     0.87292   0.43989   0.24999   0.00000  Uiso   1.00
O348   O     0.81306   0.50001   0.17451   0.00000  Uiso   1.00
O349   O     0.89225   0.50002   0.17451   0.00000  Uiso   1.00
N350   N     0.73621   0.44702   0.18313   0.00000  Uiso   1.00
H351   H     0.73760   0.45343   0.14474   0.00000  Uiso   1.00
H352   H     0.72430   0.41674   0.19114   0.00000  Uiso   1.00
C353   C     0.96985   0.44577   0.18339   0.00000  Uiso   1.00
N354   N     0.95852   0.42272   0.15604   0.00000  Uiso   1.00
C355   C     0.16663   0.91263   0.25011   0.00000  Uiso   1.00
C356   C     0.14436   0.82680   0.48976   0.00000  Uiso   1.00
C357   C     0.15719   0.81770   0.43559   0.00000  Uiso   1.00
C358   C     0.18073   0.82237   0.01564   0.00000  Uiso   1.00
C359   C     0.22754   0.80587   0.48823   0.00000  Uiso   1.00
C360   C     0.23700   0.79221   0.43696   0.00000  Uiso   1.00
C361   C     0.20204   0.79720   0.41136   0.00000  Uiso   1.00
C362   C     0.17226   0.83429   0.06784   0.00000  Uiso   1.00
C363   C     0.25432   0.81358   0.06504   0.00000  Uiso   1.00
C364   C     0.12447   0.82899   0.40741   0.00000  Uiso   1.00
C365   C     0.20902   0.97867   0.25044   0.00000  Uiso   1.00
C366   C     0.14046   0.83108   0.35001   0.00000  Uiso   1.00
C367   C     0.20903   0.68791   0.25045   0.00000  Uiso   1.00
C368   C     0.16664   0.70942   0.25020   0.00000  Uiso   1.00
C369   C     0.12417   0.68800   0.25017   0.00000  Uiso   1.00
C370   C     0.12415   0.97876   0.25017   0.00000  Uiso   1.00
C371   C     0.16660   0.95726   0.25023   0.00000  Uiso   1.00
C372   C     0.29929   0.85906   0.28248   0.00000  Uiso   1.00
C373   C     0.01546   0.85898   0.28255   0.00000  Uiso   1.00
C374   C     0.03441   0.80745   0.21733   0.00000  Uiso   1.00
C375   C     0.31789   0.80738   0.21746   0.00000  Uiso   1.00
C376   C     0.16666   0.75404   0.25003   0.00000  Uiso   1.00
C377   C     0.19291   0.83297   0.14996   0.00000  Uiso   1.00
C378   C     0.26416   0.80237   0.01280   0.00000  Uiso   1.00
C379   C     0.20773   0.82826   0.09314   0.00000  Uiso   1.00
C380   C     0.07677   0.84220   0.43462   0.00000  Uiso   1.00
C381   C     0.06228   0.84650   0.48844   0.00000  Uiso   1.00
C382   C     0.09565   0.83976   0.01581   0.00000  Uiso   1.00
Cu383  Cu    0.11978   0.83333   0.25000   0.00000  Uiso   1.00
Cu384  Cu    0.21355   0.83334   0.25000   0.00000  Uiso   1.00
H385   H     0.28253   0.80945   0.08373   0.00000  Uiso   1.00
H386   H     0.24218   0.70387   0.25067   0.00000  Uiso   1.00
H387   H     0.09096   0.70402   0.25020   0.00000  Uiso   1.00
H388   H     0.09096   0.96280   0.25011   0.00000  Uiso   1.00
H389   H     0.27323   0.87972   0.30855   0.00000  Uiso   1.00
H390   H     0.02664   0.87956   0.30869   0.00000  Uiso   1.00
H391   H     0.27166   0.77758   0.41644   0.00000  Uiso   1.00
H392   H     0.30008   0.79013   0.49188   0.00000  Uiso   1.00
H393   H     0.13805   0.84812   0.09013   0.00000  Uiso   1.00
H394   H     0.05078   0.85017   0.41418   0.00000  Uiso   1.00
H395   H     0.08172   0.84421   0.05740   0.00000  Uiso   1.00
H396   H     0.02527   0.85646   0.00901   0.00000  Uiso   1.00
H397   H     0.21049   0.78380   0.37276   0.00000  Uiso   1.00
H398   H     0.24218   0.96264   0.25060   0.00000  Uiso   1.00
N399   N     0.04931   0.83332   0.24998   0.00000  Uiso   1.00
N400   N     0.28402   0.83335   0.24999   0.00000  Uiso   1.00
O401   O     0.12708   0.89345   0.25000   0.00000  Uiso   1.00
O402   O     0.20627   0.89346   0.25000   0.00000  Uiso   1.00
O403   O     0.10775   0.83332   0.32549   0.00000  Uiso   1.00
O404   O     0.18694   0.83333   0.32549   0.00000  Uiso   1.00
O405   O     0.12706   0.77321   0.24999   0.00000  Uiso   1.00
O406   O     0.20625   0.77322   0.24999   0.00000  Uiso   1.00
O407   O     0.14640   0.83334   0.17451   0.00000  Uiso   1.00
O408   O     0.22559   0.83335   0.17451   0.00000  Uiso   1.00
N409   N     0.06955   0.78035   0.18313   0.00000  Uiso   1.00
H410   H     0.07094   0.78676   0.14474   0.00000  Uiso   1.00
H411   H     0.05763   0.75007   0.19114   0.00000  Uiso   1.00
C412   C     0.30318   0.77910   0.18339   0.00000  Uiso   1.00
N413   N     0.29186   0.75606   0.15604   0.00000  Uiso   1.00
C414   C     0.49996   0.91263   0.25011   0.00000  Uiso   1.00
C415   C     0.47769   0.82680   0.48976   0.00000  Uiso   1.00
C416   C     0.49052   0.81770   0.43559   0.00000  Uiso   1.00
C417   C     0.51406   0.82237   0.01564   0.00000  Uiso   1.00
C418   C     0.56088   0.80587   0.48823   0.00000  Uiso   1.00
C419   C     0.57033   0.79221   0.43696   0.00000  Uiso   1.00
C420   C     0.53537   0.79720   0.41136   0.00000  Uiso   1.00
C421   C     0.50560   0.83429   0.06784   0.00000  Uiso   1.00
C422   C     0.58766   0.81358   0.06504   0.00000  Uiso   1.00
C423   C     0.45780   0.82899   0.40741   0.00000  Uiso   1.00
C424   C     0.54235   0.97867   0.25044   0.00000  Uiso   1.00
C425   C     0.47379   0.83108   0.35001   0.00000  Uiso   1.00
C426   C     0.54236   0.68791   0.25045   0.00000  Uiso   1.00
C427   C     0.49997   0.70942   0.25020   0.00000  Uiso   1.00
C428   C     0.45750   0.68800   0.25017   0.00000  Uiso   1.00
C429   C     0.45749   0.97876   0.25017   0.00000  Uiso   1.00
C430   C     0.49993   0.95726   0.25023   0.00000  Uiso   1.00
C431   C     0.63262   0.85906   0.28248   0.00000  Uiso   1.00
C432   C     0.34880   0.85898   0.28255   0.00000  Uiso   1.00
C433   C     0.36775   0.80745   0.21733   0.00000  Uiso   1.00
C434   C     0.65123   0.80738   0.21746   0.00000  Uiso   1.00
C435   C     0.50000   0.75404   0.25003   0.00000  Uiso   1.00
C436   C     0.52624   0.83297   0.14996   0.00000  Uiso   1.00
C437   C     0.59749   0.80237   0.01280   0.00000  Uiso   1.00
C438   C     0.54106   0.82826   0.09314   0.00000  Uiso   1.00
C439   C     0.41011   0.84220   0.43462   0.00000  Uiso   1.00
C440   C     0.39561   0.84650   0.48844   0.00000  Uiso   1.00
C441   C     0.42899   0.83976   0.01581   0.00000  Uiso   1.00
Cu442  Cu    0.45311   0.83333   0.25000   0.00000  Uiso   1.00
Cu443  Cu    0.54689   0.83334   0.25000   0.00000  Uiso   1.00
H444   H     0.61586   0.80945   0.08373   0.00000  Uiso   1.00
H445   H     0.57551   0.70387   0.25067   0.00000  Uiso   1.00
H446   H     0.42429   0.70402   0.25020   0.00000  Uiso   1.00
H447   H     0.42429   0.96280   0.25011   0.00000  Uiso   1.00
H448   H     0.60657   0.87972   0.30855   0.00000  Uiso   1.00
H449   H     0.35997   0.87956   0.30869   0.00000  Uiso   1.00
H450   H     0.60499   0.77758   0.41644   0.00000  Uiso   1.00
H451   H     0.63341   0.79013   0.49188   0.00000  Uiso   1.00
H452   H     0.47138   0.84812   0.09013   0.00000  Uiso   1.00
H453   H     0.38411   0.85017   0.41418   0.00000  Uiso   1.00
H454   H     0.41506   0.84421   0.05740   0.00000  Uiso   1.00
H455   H     0.35860   0.85646   0.00901   0.00000  Uiso   1.00
H456   H     0.54383   0.78380   0.37276   0.00000  Uiso   1.00
H457   H     0.57552   0.96264   0.25060   0.00000  Uiso   1.00
N458   N     0.38265   0.83332   0.24998   0.00000  Uiso   1.00
N459   N     0.61735   0.83335   0.24999   0.00000  Uiso   1.00
O460   O     0.46042   0.89345   0.25000   0.00000  Uiso   1.00
O461   O     0.53961   0.89346   0.25000   0.00000  Uiso   1.00
O462   O     0.44108   0.83332   0.32549   0.00000  Uiso   1.00
O463   O     0.52027   0.83333   0.32549   0.00000  Uiso   1.00
O464   O     0.46039   0.77321   0.24999   0.00000  Uiso   1.00
O465   O     0.53958   0.77322   0.24999   0.00000  Uiso   1.00
O466   O     0.47973   0.83334   0.17451   0.00000  Uiso   1.00
O467   O     0.55892   0.83335   0.17451   0.00000  Uiso   1.00
N468   N     0.40288   0.78035   0.18313   0.00000  Uiso   1.00
H469   H     0.40427   0.78676   0.14474   0.00000  Uiso   1.00
H470   H     0.39096   0.75007   0.19114   0.00000  Uiso   1.00
C471   C     0.63651   0.77910   0.18339   0.00000  Uiso   1.00
N472   N     0.62519   0.75606   0.15604   0.00000  Uiso   1.00
C473   C     0.83330   0.91263   0.25011   0.00000  Uiso   1.00
C474   C     0.81103   0.82680   0.48976   0.00000  Uiso   1.00
C475   C     0.82385   0.81770   0.43559   0.00000  Uiso   1.00
C476   C     0.84739   0.82237   0.01564   0.00000  Uiso   1.00
C477   C     0.89421   0.80587   0.48823   0.00000  Uiso   1.00
C478   C     0.90367   0.79221   0.43696   0.00000  Uiso   1.00
C479   C     0.86870   0.79720   0.41136   0.00000  Uiso   1.00
C480   C     0.83893   0.83429   0.06784   0.00000  Uiso   1.00
C481   C     0.92099   0.81358   0.06504   0.00000  Uiso   1.00
C482   C     0.79113   0.82899   0.40741   0.00000  Uiso   1.00
C483   C     0.87568   0.97867   0.25044   0.00000  Uiso   1.00
C484   C     0.80712   0.83108   0.35001   0.00000  Uiso   1.00
C485   C     0.87570   0.68791   0.25045   0.00000  Uiso   1.00
C486   C     0.83330   0.70942   0.25020   0.00000  Uiso   1.00
C487   C     0.79084   0.68800   0.25017   0.00000  Uiso   1.00
C488   C     0.79082   0.97876   0.25017   0.00000  Uiso   1.00
C489   C     0.83326   0.95726   0.25023   0.00000  Uiso   1.00
C490   C     0.96596   0.85906   0.28248   0.00000  Uiso   1.00
C491   C     0.68213   0.85898   0.28255   0.00000  Uiso   1.00
C492   C     0.70108   0.80745   0.21733   0.00000  Uiso   1.00
C493   C     0.98456   0.80738   0.21746   0.00000  Uiso   1.00
C494   C     0.83333   0.75404   0.25003   0.00000  Uiso   1.00
C495   C     0.85958   0.83297   0.14996   0.00000  Uiso   1.00
C496   C     0.93083   0.80237   0.01280   0.00000  Uiso   1.00
C497   C     0.87440   0.82826   0.09314   0.00000  Uiso   1.00
C498   C     0.74344   0.84220   0.43462   0.00000  Uiso   1.00
C499   C     0.72894   0.84650   0.48844   0.00000  Uiso   1.00
C500   C     0.76232   0.83976   0.01581   0.00000  Uiso   1.00
Cu501  Cu    0.78645   0.83333   0.25000   0.00000  Uiso   1.00
Cu502  Cu    0.88022   0.83334   0.25000   0.00000  Uiso   1.00
H503   H     0.94920   0.80945   0.08373   0.00000  Uiso   1.00
H504   H     0.90885   0.70387   0.25067   0.00000  Uiso   1.00
H505   H     0.75762   0.70402   0.25020   0.00000  Uiso   1.00
H506   H     0.75762   0.96280   0.25011   0.00000  Uiso   1.00
H507   H     0.93990   0.87972   0.30855   0.00000  Uiso   1.00
H508   H     0.69331   0.87956   0.30869   0.00000  Uiso   1.00
H509   H     0.93833   0.77758   0.41644   0.00000  Uiso   1.00
H510   H     0.96675   0.79013   0.49188   0.00000  Uiso   1.00
H511   H     0.80472   0.84812   0.09013   0.00000  Uiso   1.00
H512   H     0.71745   0.85017   0.41418   0.00000  Uiso   1.00
H513   H     0.74839   0.84421   0.05740   0.00000  Uiso   1.00
H514   H     0.69194   0.85646   0.00901   0.00000  Uiso   1.00
H515   H     0.87716   0.78380   0.37276   0.00000  Uiso   1.00
H516   H     0.90885   0.96264   0.25060   0.00000  Uiso   1.00
N517   N     0.71598   0.83332   0.24998   0.00000  Uiso   1.00
N518   N     0.95069   0.83335   0.24999   0.00000  Uiso   1.00
O519   O     0.79375   0.89345   0.25000   0.00000  Uiso   1.00
O520   O     0.87294   0.89346   0.25000   0.00000  Uiso   1.00
O521   O     0.77441   0.83332   0.32549   0.00000  Uiso   1.00
O522   O     0.85360   0.83333   0.32549   0.00000  Uiso   1.00
O523   O     0.79373   0.77321   0.24999   0.00000  Uiso   1.00
O524   O     0.87292   0.77322   0.24999   0.00000  Uiso   1.00
O525   O     0.81306   0.83334   0.17451   0.00000  Uiso   1.00
O526   O     0.89225   0.83335   0.17451   0.00000  Uiso   1.00
N527   N     0.73621   0.78035   0.18313   0.00000  Uiso   1.00
H528   H     0.73760   0.78676   0.14474   0.00000  Uiso   1.00
H529   H     0.72430   0.75007   0.19114   0.00000  Uiso   1.00
C530   C     0.96985   0.77910   0.18339   0.00000  Uiso   1.00
N531   N     0.95852   0.75606   0.15604   0.00000  Uiso   1.00
C532   C     0.16663   0.24596   0.75011   0.00000  Uiso   1.00
C533   C     0.14436   0.16013   0.98976   0.00000  Uiso   1.00
C534   C     0.15719   0.15103   0.93559   0.00000  Uiso   1.00
C535   C     0.18073   0.15570   0.51564   0.00000  Uiso   1.00
C536   C     0.22754   0.13920   0.98823   0.00000  Uiso   1.00
C537   C     0.23700   0.12555   0.93696   0.00000  Uiso   1.00
C538   C     0.20204   0.13053   0.91136   0.00000  Uiso   1.00
C539   C     0.17226   0.16762   0.56784   0.00000  Uiso   1.00
C540   C     0.25432   0.14692   0.56504   0.00000  Uiso   1.00
C541   C     0.12447   0.16232   0.90741   0.00000  Uiso   1.00
C542   C     0.20902   0.31201   0.75044   0.00000  Uiso   1.00
C543   C     0.14046   0.16442   0.85001   0.00000  Uiso   1.00
C544   C     0.20903   0.02125   0.75045   0.00000  Uiso   1.00
C545   C     0.16664   0.04275   0.75020   0.00000  Uiso   1.00
C546   C     0.12417   0.02133   0.75017   0.00000  Uiso   1.00
C547   C     0.12415   0.31210   0.75017   0.00000  Uiso   1.00
C548   C     0.16660   0.29059   0.75023   0.00000  Uiso   1.00
C549   C     0.29929   0.19240   0.78248   0.00000  Uiso   1.00
C550   C     0.01546   0.19231   0.78255   0.00000  Uiso   1.00
C551   C     0.03441   0.14078   0.71733   0.00000  Uiso   1.00
C552   C     0.31789   0.14071   0.71746   0.00000  Uiso   1.00
C553   C     0.16666   0.08738   0.75003   0.00000  Uiso   1.00
C554   C     0.19291   0.16630   0.64996   0.00000  Uiso   1.00
C555   C     0.26416   0.13571   0.51280   0.00000  Uiso   1.00
C556   C     0.20773   0.16159   0.59314   0.00000  Uiso   1.00
C557   C     0.07677   0.17553   0.93462   0.00000  Uiso   1.00
C558   C     0.06228   0.17983   0.98844   0.00000  Uiso   1.00
C559   C     0.09565   0.17309   0.51581   0.00000  Uiso   1.00
Cu560  Cu    0.11978   0.16666   0.75000   0.00000  Uiso   1.00
Cu561  Cu    0.21355   0.16667   0.75000   0.00000  Uiso   1.00
H562   H     0.28253   0.14278   0.58373   0.00000  Uiso   1.00
H563   H     0.24218   0.03721   0.75067   0.00000  Uiso   1.00
H564   H     0.09096   0.03736   0.75020   0.00000  Uiso   1.00
H565   H     0.09096   0.29613   0.75011   0.00000  Uiso   1.00
H566   H     0.27323   0.21305   0.80855   0.00000  Uiso   1.00
H567   H     0.02664   0.21289   0.80869   0.00000  Uiso   1.00
H568   H     0.27166   0.11092   0.91644   0.00000  Uiso   1.00
H569   H     0.30008   0.12346   0.99188   0.00000  Uiso   1.00
H570   H     0.13805   0.18145   0.59013   0.00000  Uiso   1.00
H571   H     0.05078   0.18350   0.91418   0.00000  Uiso   1.00
H572   H     0.08172   0.17755   0.55740   0.00000  Uiso   1.00
H573   H     0.02527   0.18979   0.50901   0.00000  Uiso   1.00
H574   H     0.21049   0.11714   0.87276   0.00000  Uiso   1.00
H575   H     0.24218   0.29597   0.75060   0.00000  Uiso   1.00
N576   N     0.04931   0.16666   0.74998   0.00000  Uiso   1.00
N577   N     0.28402   0.16669   0.74999   0.00000  Uiso   1.00
O578   O     0.12708   0.22678   0.75000   0.00000  Uiso   1.00
O579   O     0.20627   0.22679   0.75000   0.00000  Uiso   1.00
O580   O     0.10775   0.16665   0.82549   0.00000  Uiso   1.00
O581   O     0.18694   0.16666   0.82549   0.00000  Uiso   1.00
O582   O     0.12706   0.10654   0.74999   0.00000  Uiso   1.00
O583   O     0.20625   0.10655   0.74999   0.00000  Uiso   1.00
O584   O     0.14640   0.16667   0.67451   0.00000  Uiso   1.00
O585   O     0.22559   0.16668   0.67451   0.00000  Uiso   1.00
N586   N     0.06955   0.11369   0.68313   0.00000  Uiso   1.00
H587   H     0.07094   0.12010   0.64474   0.00000  Uiso   1.00
H588   H     0.05763   0.08340   0.69114   0.00000  Uiso   1.00
C589   C     0.30318   0.11244   0.68339   0.00000  Uiso   1.00
N590   N     0.29186   0.08939   0.65604   0.00000  Uiso   1.00
C591   C     0.49996   0.24596   0.75011   0.00000  Uiso   1.00
C592   C     0.47769   0.16013   0.98976   0.00000  Uiso   1.00
C593   C     0.49052   0.15103   0.93559   0.00000  Uiso   1.00
C594   C     0.51406   0.15570   0.51564   0.00000  Uiso   1.00
C595   C     0.56088   0.13920   0.98823   0.00000  Uiso   1.00
C596   C     0.57033   0.12555   0.93696   0.00000  Uiso   1.00
C597   C     0.53537   0.13053   0.91136   0.00000  Uiso   1.00
C598   C     0.50560   0.16762   0.56784   0.00000  Uiso   1.00
C599   C     0.58766   0.14692   0.56504   0.00000  Uiso   1.00
C600   C     0.45780   0.16232   0.90741   0.00000  Uiso   1.00
C601   C     0.54235   0.31201   0.75044   0.00000  Uiso   1.00
C602   C     0.47379   0.16442   0.85001   0.00000  Uiso   1.00
C603   C     0.54236   0.02125   0.75045   0.00000  Uiso   1.00
C604   C     0.49997   0.04275   0.75020   0.00000  Uiso   1.00
C605   C     0.45750   0.02133   0.75017   0.00000  Uiso   1.00
C606   C     0.45749   0.31210   0.75017   0.00000  Uiso   1.00
C607   C     0.49993   0.29059   0.75023   0.00000  Uiso   1.00
C608   C     0.63262   0.19240   0.78248   0.00000  Uiso   1.00
C609   C     0.34880   0.19231   0.78255   0.00000  Uiso   1.00
C610   C     0.36775   0.14078   0.71733   0.00000  Uiso   1.00
C611   C     0.65123   0.14071   0.71746   0.00000  Uiso   1.00
C612   C     0.50000   0.08738   0.75003   0.00000  Uiso   1.00
C613   C     0.52624   0.16630   0.64996   0.00000  Uiso   1.00
C614   C     0.59749   0.13571   0.51280   0.00000  Uiso   1.00
C615   C     0.54106   0.16159   0.59314   0.00000  Uiso   1.00
C616   C     0.41011   0.17553   0.93462   0.00000  Uiso   1.00
C617   C     0.39561   0.17983   0.98844   0.00000  Uiso   1.00
C618   C     0.42899   0.17309   0.51581   0.00000  Uiso   1.00
Cu619  Cu    0.45311   0.16666   0.75000   0.00000  Uiso   1.00
Cu620  Cu    0.54689   0.16667   0.75000   0.00000  Uiso   1.00
H621   H     0.61586   0.14278   0.58373   0.00000  Uiso   1.00
H622   H     0.57551   0.03721   0.75067   0.00000  Uiso   1.00
H623   H     0.42429   0.03736   0.75020   0.00000  Uiso   1.00
H624   H     0.42429   0.29613   0.75011   0.00000  Uiso   1.00
H625   H     0.60657   0.21305   0.80855   0.00000  Uiso   1.00
H626   H     0.35997   0.21289   0.80869   0.00000  Uiso   1.00
H627   H     0.60499   0.11092   0.91644   0.00000  Uiso   1.00
H628   H     0.63341   0.12346   0.99188   0.00000  Uiso   1.00
H629   H     0.47138   0.18145   0.59013   0.00000  Uiso   1.00
H630   H     0.38411   0.18350   0.91418   0.00000  Uiso   1.00
H631   H     0.41506   0.17755   0.55740   0.00000  Uiso   1.00
H632   H     0.35860   0.18979   0.50901   0.00000  Uiso   1.00
H633   H     0.54383   0.11714   0.87276   0.00000  Uiso   1.00
H634   H     0.57552   0.29597   0.75060   0.00000  Uiso   1.00
N635   N     0.38265   0.16666   0.74998   0.00000  Uiso   1.00
N636   N     0.61735   0.16669   0.74999   0.00000  Uiso   1.00
O637   O     0.46042   0.22678   0.75000   0.00000  Uiso   1.00
O638   O     0.53961   0.22679   0.75000   0.00000  Uiso   1.00
O639   O     0.44108   0.16665   0.82549   0.00000  Uiso   1.00
O640   O     0.52027   0.16666   0.82549   0.00000  Uiso   1.00
O641   O     0.46039   0.10654   0.74999   0.00000  Uiso   1.00
O642   O     0.53958   0.10655   0.74999   0.00000  Uiso   1.00
O643   O     0.47973   0.16667   0.67451   0.00000  Uiso   1.00
O644   O     0.55892   0.16668   0.67451   0.00000  Uiso   1.00
N645   N     0.40288   0.11369   0.68313   0.00000  Uiso   1.00
H646   H     0.40427   0.12010   0.64474   0.00000  Uiso   1.00
H647   H     0.39096   0.08340   0.69114   0.00000  Uiso   1.00
C648   C     0.63651   0.11244   0.68339   0.00000  Uiso   1.00
N649   N     0.62519   0.08939   0.65604   0.00000  Uiso   1.00
C650   C     0.83330   0.24596   0.75011   0.00000  Uiso   1.00
C651   C     0.81103   0.16013   0.98976   0.00000  Uiso   1.00
C652   C     0.82385   0.15103   0.93559   0.00000  Uiso   1.00
C653   C     0.84739   0.15570   0.51564   0.00000  Uiso   1.00
C654   C     0.89421   0.13920   0.98823   0.00000  Uiso   1.00
C655   C     0.90367   0.12555   0.93696   0.00000  Uiso   1.00
C656   C     0.86870   0.13053   0.91136   0.00000  Uiso   1.00
C657   C     0.83893   0.16762   0.56784   0.00000  Uiso   1.00
C658   C     0.92099   0.14692   0.56504   0.00000  Uiso   1.00
C659   C     0.79113   0.16232   0.90741   0.00000  Uiso   1.00
C660   C     0.87568   0.31201   0.75044   0.00000  Uiso   1.00
C661   C     0.80712   0.16442   0.85001   0.00000  Uiso   1.00
C662   C     0.87570   0.02125   0.75045   0.00000  Uiso   1.00
C663   C     0.83330   0.04275   0.75020   0.00000  Uiso   1.00
C664   C     0.79084   0.02133   0.75017   0.00000  Uiso   1.00
C665   C     0.79082   0.31210   0.75017   0.00000  Uiso   1.00
C666   C     0.83326   0.29059   0.75023   0.00000  Uiso   1.00
C667   C     0.96596   0.19240   0.78248   0.00000  Uiso   1.00
C668   C     0.68213   0.19231   0.78255   0.00000  Uiso   1.00
C669   C     0.70108   0.14078   0.71733   0.00000  Uiso   1.00
C670   C     0.98456   0.14071   0.71746   0.00000  Uiso   1.00
C671   C     0.83333   0.08738   0.75003   0.00000  Uiso   1.00
C672   C     0.85958   0.16630   0.64996   0.00000  Uiso   1.00
C673   C     0.93083   0.13571   0.51280   0.00000  Uiso   1.00
C674   C     0.87440   0.16159   0.59314   0.00000  Uiso   1.00
C675   C     0.74344   0.17553   0.93462   0.00000  Uiso   1.00
C676   C     0.72894   0.17983   0.98844   0.00000  Uiso   1.00
C677   C     0.76232   0.17309   0.51581   0.00000  Uiso   1.00
Cu678  Cu    0.78645   0.16666   0.75000   0.00000  Uiso   1.00
Cu679  Cu    0.88022   0.16667   0.75000   0.00000  Uiso   1.00
H680   H     0.94920   0.14278   0.58373   0.00000  Uiso   1.00
H681   H     0.90885   0.03721   0.75067   0.00000  Uiso   1.00
H682   H     0.75762   0.03736   0.75020   0.00000  Uiso   1.00
H683   H     0.75762   0.29613   0.75011   0.00000  Uiso   1.00
H684   H     0.93990   0.21305   0.80855   0.00000  Uiso   1.00
H685   H     0.69331   0.21289   0.80869   0.00000  Uiso   1.00
H686   H     0.93833   0.11092   0.91644   0.00000  Uiso   1.00
H687   H     0.96675   0.12346   0.99188   0.00000  Uiso   1.00
H688   H     0.80472   0.18145   0.59013   0.00000  Uiso   1.00
H689   H     0.71745   0.18350   0.91418   0.00000  Uiso   1.00
H690   H     0.74839   0.17755   0.55740   0.00000  Uiso   1.00
H691   H     0.69194   0.18979   0.50901   0.00000  Uiso   1.00
H692   H     0.87716   0.11714   0.87276   0.00000  Uiso   1.00
H693   H     0.90885   0.29597   0.75060   0.00000  Uiso   1.00
N694   N     0.71598   0.16666   0.74998   0.00000  Uiso   1.00
N695   N     0.95069   0.16669   0.74999   0.00000  Uiso   1.00
O696   O     0.79375   0.22678   0.75000   0.00000  Uiso   1.00
O697   O     0.87294   0.22679   0.75000   0.00000  Uiso   1.00
O698   O     0.77441   0.16665   0.82549   0.00000  Uiso   1.00
O699   O     0.85360   0.16666   0.82549   0.00000  Uiso   1.00
O700   O     0.79373   0.10654   0.74999   0.00000  Uiso   1.00
O701   O     0.87292   0.10655   0.74999   0.00000  Uiso   1.00
O702   O     0.81306   0.16667   0.67451   0.00000  Uiso   1.00
O703   O     0.89225   0.16668   0.67451   0.00000  Uiso   1.00
N704   N     0.73621   0.11369   0.68313   0.00000  Uiso   1.00
H705   H     0.73760   0.12010   0.64474   0.00000  Uiso   1.00
H706   H     0.72430   0.08340   0.69114   0.00000  Uiso   1.00
C707   C     0.96985   0.11244   0.68339   0.00000  Uiso   1.00
N708   N     0.95852   0.08939   0.65604   0.00000  Uiso   1.00
C709   C     0.16663   0.57929   0.75011   0.00000  Uiso   1.00
C710   C     0.14436   0.49347   0.98976   0.00000  Uiso   1.00
C711   C     0.15719   0.48437   0.93559   0.00000  Uiso   1.00
C712   C     0.18073   0.48904   0.51564   0.00000  Uiso   1.00
C713   C     0.22754   0.47254   0.98823   0.00000  Uiso   1.00
C714   C     0.23700   0.45888   0.93696   0.00000  Uiso   1.00
C715   C     0.20204   0.46387   0.91136   0.00000  Uiso   1.00
C716   C     0.17226   0.50095   0.56784   0.00000  Uiso   1.00
C717   C     0.25432   0.48025   0.56504   0.00000  Uiso   1.00
C718   C     0.12447   0.49566   0.90741   0.00000  Uiso   1.00
C719   C     0.20902   0.64534   0.75044   0.00000  Uiso   1.00
C720   C     0.14046   0.49775   0.85001   0.00000  Uiso   1.00
C721   C     0.20903   0.35458   0.75045   0.00000  Uiso   1.00
C722   C     0.16664   0.37609   0.75020   0.00000  Uiso   1.00
C723   C     0.12417   0.35467   0.75017   0.00000  Uiso   1.00
C724   C     0.12415   0.64543   0.75017   0.00000  Uiso   1.00
C725   C     0.16660   0.62392   0.75023   0.00000  Uiso   1.00
C726   C     0.29929   0.52573   0.78248   0.00000  Uiso   1.00
C727   C     0.01546   0.52565   0.78255   0.00000  Uiso   1.00
C728   C     0.03441   0.47411   0.71733   0.00000  Uiso   1.00
C729   C     0.31789   0.47405   0.71746   0.00000  Uiso   1.00
C730   C     0.16666   0.42071   0.75003   0.00000  Uiso   1.00
C731   C     0.19291   0.49963   0.64996   0.00000  Uiso   1.00
C732   C     0.26416   0.46904   0.51280   0.00000  Uiso   1.00
C733   C     0.20773   0.49492   0.59314   0.00000  Uiso   1.00
C734   C     0.07677   0.50886   0.93462   0.00000  Uiso   1.00
C735   C     0.06228   0.51317   0.98844   0.00000  Uiso   1.00
C736   C     0.09565   0.50643   0.51581   0.00000  Uiso   1.00
Cu737  Cu    0.11978   0.49999   0.75000   0.00000  Uiso   1.00
Cu738  Cu    0.21355   0.50001   0.75000   0.00000  Uiso   1.00
H739   H     0.28253   0.47611   0.58373   0.00000  Uiso   1.00
H740   H     0.24218   0.37054   0.75067   0.00000  Uiso   1.00
H741   H     0.09096   0.37069   0.75020   0.00000  Uiso   1.00
H742   H     0.09096   0.62946   0.75011   0.00000  Uiso   1.00
H743   H     0.27323   0.54639   0.80855   0.00000  Uiso   1.00
H744   H     0.02664   0.54622   0.80869   0.00000  Uiso   1.00
H745   H     0.27166   0.44425   0.91644   0.00000  Uiso   1.00
H746   H     0.30008   0.45680   0.99188   0.00000  Uiso   1.00
H747   H     0.13805   0.51479   0.59013   0.00000  Uiso   1.00
H748   H     0.05078   0.51683   0.91418   0.00000  Uiso   1.00
H749   H     0.08172   0.51088   0.55740   0.00000  Uiso   1.00
H750   H     0.02527   0.52313   0.50901   0.00000  Uiso   1.00
H751   H     0.21049   0.45047   0.87276   0.00000  Uiso   1.00
H752   H     0.24218   0.62930   0.75060   0.00000  Uiso   1.00
N753   N     0.04931   0.49999   0.74998   0.00000  Uiso   1.00
N754   N     0.28402   0.50002   0.74999   0.00000  Uiso   1.00
O755   O     0.12708   0.56011   0.75000   0.00000  Uiso   1.00
O756   O     0.20627   0.56012   0.75000   0.00000  Uiso   1.00
O757   O     0.10775   0.49998   0.82549   0.00000  Uiso   1.00
O758   O     0.18694   0.49999   0.82549   0.00000  Uiso   1.00
O759   O     0.12706   0.43988   0.74999   0.00000  Uiso   1.00
O760   O     0.20625   0.43989   0.74999   0.00000  Uiso   1.00
O761   O     0.14640   0.50001   0.67451   0.00000  Uiso   1.00
O762   O     0.22559   0.50002   0.67451   0.00000  Uiso   1.00
N763   N     0.06955   0.44702   0.68313   0.00000  Uiso   1.00
H764   H     0.07094   0.45343   0.64474   0.00000  Uiso   1.00
H765   H     0.05763   0.41674   0.69114   0.00000  Uiso   1.00
C766   C     0.30318   0.44577   0.68339   0.00000  Uiso   1.00
N767   N     0.29186   0.42272   0.65604   0.00000  Uiso   1.00
C768   C     0.49996   0.57929   0.75011   0.00000  Uiso   1.00
C769   C     0.47769   0.49347   0.98976   0.00000  Uiso   1.00
C770   C     0.49052   0.48437   0.93559   0.00000  Uiso   1.00
C771   C     0.51406   0.48904   0.51564   0.00000  Uiso   1.00
C772   C     0.56088   0.47254   0.98823   0.00000  Uiso   1.00
C773   C     0.57033   0.45888   0.93696   0.00000  Uiso   1.00
C774   C     0.53537   0.46387   0.91136   0.00000  Uiso   1.00
C775   C     0.50560   0.50095   0.56784   0.00000  Uiso   1.00
C776   C     0.58766   0.48025   0.56504   0.00000  Uiso   1.00
C777   C     0.45780   0.49566   0.90741   0.00000  Uiso   1.00
C778   C     0.54235   0.64534   0.75044   0.00000  Uiso   1.00
C779   C     0.47379   0.49775   0.85001   0.00000  Uiso   1.00
C780   C     0.54236   0.35458   0.75045   0.00000  Uiso   1.00
C781   C     0.49997   0.37609   0.75020   0.00000  Uiso   1.00
C782   C     0.45750   0.35467   0.75017   0.00000  Uiso   1.00
C783   C     0.45749   0.64543   0.75017   0.00000  Uiso   1.00
C784   C     0.49993   0.62392   0.75023   0.00000  Uiso   1.00
C785   C     0.63262   0.52573   0.78248   0.00000  Uiso   1.00
C786   C     0.34880   0.52565   0.78255   0.00000  Uiso   1.00
C787   C     0.36775   0.47411   0.71733   0.00000  Uiso   1.00
C788   C     0.65123   0.47405   0.71746   0.00000  Uiso   1.00
C789   C     0.50000   0.42071   0.75003   0.00000  Uiso   1.00
C790   C     0.52624   0.49963   0.64996   0.00000  Uiso   1.00
C791   C     0.59749   0.46904   0.51280   0.00000  Uiso   1.00
C792   C     0.54106   0.49492   0.59314   0.00000  Uiso   1.00
C793   C     0.41011   0.50886   0.93462   0.00000  Uiso   1.00
C794   C     0.39561   0.51317   0.98844   0.00000  Uiso   1.00
C795   C     0.42899   0.50643   0.51581   0.00000  Uiso   1.00
Cu796  Cu    0.45311   0.49999   0.75000   0.00000  Uiso   1.00
Cu797  Cu    0.54689   0.50001   0.75000   0.00000  Uiso   1.00
H798   H     0.61586   0.47611   0.58373   0.00000  Uiso   1.00
H799   H     0.57551   0.37054   0.75067   0.00000  Uiso   1.00
H800   H     0.42429   0.37069   0.75020   0.00000  Uiso   1.00
H801   H     0.42429   0.62946   0.75011   0.00000  Uiso   1.00
H802   H     0.60657   0.54639   0.80855   0.00000  Uiso   1.00
H803   H     0.35997   0.54622   0.80869   0.00000  Uiso   1.00
H804   H     0.60499   0.44425   0.91644   0.00000  Uiso   1.00
H805   H     0.63341   0.45680   0.99188   0.00000  Uiso   1.00
H806   H     0.47138   0.51479   0.59013   0.00000  Uiso   1.00
H807   H     0.38411   0.51683   0.91418   0.00000  Uiso   1.00
H808   H     0.41506   0.51088   0.55740   0.00000  Uiso   1.00
H809   H     0.35860   0.52313   0.50901   0.00000  Uiso   1.00
H810   H     0.54383   0.45047   0.87276   0.00000  Uiso   1.00
H811   H     0.57552   0.62930   0.75060   0.00000  Uiso   1.00
N812   N     0.38265   0.49999   0.74998   0.00000  Uiso   1.00
N813   N     0.61735   0.50002   0.74999   0.00000  Uiso   1.00
O814   O     0.46042   0.56011   0.75000   0.00000  Uiso   1.00
O815   O     0.53961   0.56012   0.75000   0.00000  Uiso   1.00
O816   O     0.44108   0.49998   0.82549   0.00000  Uiso   1.00
O817   O     0.52027   0.49999   0.82549   0.00000  Uiso   1.00
O818   O     0.46039   0.43988   0.74999   0.00000  Uiso   1.00
O819   O     0.53958   0.43989   0.74999   0.00000  Uiso   1.00
O820   O     0.47973   0.50001   0.67451   0.00000  Uiso   1.00
O821   O     0.55892   0.50002   0.67451   0.00000  Uiso   1.00
N822   N     0.40288   0.44702   0.68313   0.00000  Uiso   1.00
H823   H     0.40427   0.45343   0.64474   0.00000  Uiso   1.00
H824   H     0.39096   0.41674   0.69114   0.00000  Uiso   1.00
C825   C     0.63651   0.44577   0.68339   0.00000  Uiso   1.00
N826   N     0.62519   0.42272   0.65604   0.00000  Uiso   1.00
C827   C     0.83330   0.57929   0.75011   0.00000  Uiso   1.00
C828   C     0.81103   0.49347   0.98976   0.00000  Uiso   1.00
C829   C     0.82385   0.48437   0.93559   0.00000  Uiso   1.00
C830   C     0.84739   0.48904   0.51564   0.00000  Uiso   1.00
C831   C     0.89421   0.47254   0.98823   0.00000  Uiso   1.00
C832   C     0.90367   0.45888   0.93696   0.00000  Uiso   1.00
C833   C     0.86870   0.46387   0.91136   0.00000  Uiso   1.00
C834   C     0.83893   0.50095   0.56784   0.00000  Uiso   1.00
C835   C     0.92099   0.48025   0.56504   0.00000  Uiso   1.00
C836   C     0.79113   0.49566   0.90741   0.00000  Uiso   1.00
C837   C     0.87568   0.64534   0.75044   0.00000  Uiso   1.00
C838   C     0.80712   0.49775   0.85001   0.00000  Uiso   1.00
C839   C     0.87570   0.35458   0.75045   0.00000  Uiso   1.00
C840   C     0.83330   0.37609   0.75020   0.00000  Uiso   1.00
C841   C     0.79084   0.35467   0.75017   0.00000  Uiso   1.00
C842   C     0.79082   0.64543   0.75017   0.00000  Uiso   1.00
C843   C     0.83326   0.62392   0.75023   0.00000  Uiso   1.00
C844   C     0.96596   0.52573   0.78248   0.00000  Uiso   1.00
C845   C     0.68213   0.52565   0.78255   0.00000  Uiso   1.00
C846   C     0.70108   0.47411   0.71733   0.00000  Uiso   1.00
C847   C     0.98456   0.47405   0.71746   0.00000  Uiso   1.00
C848   C     0.83333   0.42071   0.75003   0.00000  Uiso   1.00
C849   C     0.85958   0.49963   0.64996   0.00000  Uiso   1.00
C850   C     0.93083   0.46904   0.51280   0.00000  Uiso   1.00
C851   C     0.87440   0.49492   0.59314   0.00000  Uiso   1.00
C852   C     0.74344   0.50886   0.93462   0.00000  Uiso   1.00
C853   C     0.72894   0.51317   0.98844   0.00000  Uiso   1.00
C854   C     0.76232   0.50643   0.51581   0.00000  Uiso   1.00
Cu855  Cu    0.78645   0.49999   0.75000   0.00000  Uiso   1.00
Cu856  Cu    0.88022   0.50001   0.75000   0.00000  Uiso   1.00
H857   H     0.94920   0.47611   0.58373   0.00000  Uiso   1.00
H858   H     0.90885   0.37054   0.75067   0.00000  Uiso   1.00
H859   H     0.75762   0.37069   0.75020   0.00000  Uiso   1.00
H860   H     0.75762   0.62946   0.75011   0.00000  Uiso   1.00
H861   H     0.93990   0.54639   0.80855   0.00000  Uiso   1.00
H862   H     0.69331   0.54622   0.80869   0.00000  Uiso   1.00
H863   H     0.93833   0.44425   0.91644   0.00000  Uiso   1.00
H864   H     0.96675   0.45680   0.99188   0.00000  Uiso   1.00
H865   H     0.80472   0.51479   0.59013   0.00000  Uiso   1.00
H866   H     0.71745   0.51683   0.91418   0.00000  Uiso   1.00
H867   H     0.74839   0.51088   0.55740   0.00000  Uiso   1.00
H868   H     0.69194   0.52313   0.50901   0.00000  Uiso   1.00
H869   H     0.87716   0.45047   0.87276   0.00000  Uiso   1.00
H870   H     0.90885   0.62930   0.75060   0.00000  Uiso   1.00
N871   N     0.71598   0.49999   0.74998   0.00000  Uiso   1.00
N872   N     0.95069   0.50002   0.74999   0.00000  Uiso   1.00
O873   O     0.79375   0.56011   0.75000   0.00000  Uiso   1.00
O874   O     0.87294   0.56012   0.75000   0.00000  Uiso   1.00
O875   O     0.77441   0.49998   0.82549   0.00000  Uiso   1.00
O876   O     0.85360   0.49999   0.82549   0.00000  Uiso   1.00
O877   O     0.79373   0.43988   0.74999   0.00000  Uiso   1.00
O878   O     0.87292   0.43989   0.74999   0.00000  Uiso   1.00
O879   O     0.81306   0.50001   0.67451   0.00000  Uiso   1.00
O880   O     0.89225   0.50002   0.67451   0.00000  Uiso   1.00
N881   N     0.73621   0.44702   0.68313   0.00000  Uiso   1.00
H882   H     0.73760   0.45343   0.64474   0.00000  Uiso   1.00
H883   H     0.72430   0.41674   0.69114   0.00000  Uiso   1.00
C884   C     0.96985   0.44577   0.68339   0.00000  Uiso   1.00
N885   N     0.95852   0.42272   0.65604   0.00000  Uiso   1.00
C886   C     0.16663   0.91263   0.75011   0.00000  Uiso   1.00
C887   C     0.14436   0.82680   0.98976   0.00000  Uiso   1.00
C888   C     0.15719   0.81770   0.93559   0.00000  Uiso   1.00
C889   C     0.18073   0.82237   0.51564   0.00000  Uiso   1.00
C890   C     0.22754   0.80587   0.98823   0.00000  Uiso   1.00
C891   C     0.23700   0.79221   0.93696   0.00000  Uiso   1.00
C892   C     0.20204   0.79720   0.91136   0.00000  Uiso   1.00
C893   C     0.17226   0.83429   0.56784   0.00000  Uiso   1.00
C894   C     0.25432   0.81358   0.56504   0.00000  Uiso   1.00
C895   C     0.12447   0.82899   0.90741   0.00000  Uiso   1.00
C896   C     0.20902   0.97867   0.75044   0.00000  Uiso   1.00
C897   C     0.14046   0.83108   0.85001   0.00000  Uiso   1.00
C898   C     0.20903   0.68791   0.75045   0.00000  Uiso   1.00
C899   C     0.16664   0.70942   0.75020   0.00000  Uiso   1.00
C900   C     0.12417   0.68800   0.75017   0.00000  Uiso   1.00
C901   C     0.12415   0.97876   0.75017   0.00000  Uiso   1.00
C902   C     0.16660   0.95726   0.75023   0.00000  Uiso   1.00
C903   C     0.29929   0.85906   0.78248   0.00000  Uiso   1.00
C904   C     0.01546   0.85898   0.78255   0.00000  Uiso   1.00
C905   C     0.03441   0.80745   0.71733   0.00000  Uiso   1.00
C906   C     0.31789   0.80738   0.71746   0.00000  Uiso   1.00
C907   C     0.16666   0.75404   0.75003   0.00000  Uiso   1.00
C908   C     0.19291   0.83297   0.64996   0.00000  Uiso   1.00
C909   C     0.26416   0.80237   0.51280   0.00000  Uiso   1.00
C910   C     0.20773   0.82826   0.59314   0.00000  Uiso   1.00
C911   C     0.07677   0.84220   0.93462   0.00000  Uiso   1.00
C912   C     0.06228   0.84650   0.98844   0.00000  Uiso   1.00
C913   C     0.09565   0.83976   0.51581   0.00000  Uiso   1.00
Cu914  Cu    0.11978   0.83333   0.75000   0.00000  Uiso   1.00
Cu915  Cu    0.21355   0.83334   0.75000   0.00000  Uiso   1.00
H916   H     0.28253   0.80945   0.58373   0.00000  Uiso   1.00
H917   H     0.24218   0.70387   0.75067   0.00000  Uiso   1.00
H918   H     0.09096   0.70402   0.75020   0.00000  Uiso   1.00
H919   H     0.09096   0.96280   0.75011   0.00000  Uiso   1.00
H920   H     0.27323   0.87972   0.80855   0.00000  Uiso   1.00
H921   H     0.02664   0.87956   0.80869   0.00000  Uiso   1.00
H922   H     0.27166   0.77758   0.91644   0.00000  Uiso   1.00
H923   H     0.30008   0.79013   0.99188   0.00000  Uiso   1.00
H924   H     0.13805   0.84812   0.59013   0.00000  Uiso   1.00
H925   H     0.05078   0.85017   0.91418   0.00000  Uiso   1.00
H926   H     0.08172   0.84421   0.55740   0.00000  Uiso   1.00
H927   H     0.02527   0.85646   0.50901   0.00000  Uiso   1.00
H928   H     0.21049   0.78380   0.87276   0.00000  Uiso   1.00
H929   H     0.24218   0.96264   0.75060   0.00000  Uiso   1.00
N930   N     0.04931   0.83332   0.74998   0.00000  Uiso   1.00
N931   N     0.28402   0.83335   0.74999   0.00000  Uiso   1.00
O932   O     0.12708   0.89345   0.75000   0.00000  Uiso   1.00
O933   O     0.20627   0.89346   0.75000   0.00000  Uiso   1.00
O934   O     0.10775   0.83332   0.82549   0.00000  Uiso   1.00
O935   O     0.18694   0.83333   0.82549   0.00000  Uiso   1.00
O936   O     0.12706   0.77321   0.74999   0.00000  Uiso   1.00
O937   O     0.20625   0.77322   0.74999   0.00000  Uiso   1.00
O938   O     0.14640   0.83334   0.67451   0.00000  Uiso   1.00
O939   O     0.22559   0.83335   0.67451   0.00000  Uiso   1.00
N940   N     0.06955   0.78035   0.68313   0.00000  Uiso   1.00
H941   H     0.07094   0.78676   0.64474   0.00000  Uiso   1.00
H942   H     0.05763   0.75007   0.69114   0.00000  Uiso   1.00
C943   C     0.30318   0.77910   0.68339   0.00000  Uiso   1.00
N944   N     0.29186   0.75606   0.65604   0.00000  Uiso   1.00
C945   C     0.49996   0.91263   0.75011   0.00000  Uiso   1.00
C946   C     0.47769   0.82680   0.98976   0.00000  Uiso   1.00
C947   C     0.49052   0.81770   0.93559   0.00000  Uiso   1.00
C948   C     0.51406   0.82237   0.51564   0.00000  Uiso   1.00
C949   C     0.56088   0.80587   0.98823   0.00000  Uiso   1.00
C950   C     0.57033   0.79221   0.93696   0.00000  Uiso   1.00
C951   C     0.53537   0.79720   0.91136   0.00000  Uiso   1.00
C952   C     0.50560   0.83429   0.56784   0.00000  Uiso   1.00
C953   C     0.58766   0.81358   0.56504   0.00000  Uiso   1.00
C954   C     0.45780   0.82899   0.90741   0.00000  Uiso   1.00
C955   C     0.54235   0.97867   0.75044   0.00000  Uiso   1.00
C956   C     0.47379   0.83108   0.85001   0.00000  Uiso   1.00
C957   C     0.54236   0.68791   0.75045   0.00000  Uiso   1.00
C958   C     0.49997   0.70942   0.75020   0.00000  Uiso   1.00
C959   C     0.45750   0.68800   0.75017   0.00000  Uiso   1.00
C960   C     0.45749   0.97876   0.75017   0.00000  Uiso   1.00
C961   C     0.49993   0.95726   0.75023   0.00000  Uiso   1.00
C962   C     0.63262   0.85906   0.78248   0.00000  Uiso   1.00
C963   C     0.34880   0.85898   0.78255   0.00000  Uiso   1.00
C964   C     0.36775   0.80745   0.71733   0.00000  Uiso   1.00
C965   C     0.65123   0.80738   0.71746   0.00000  Uiso   1.00
C966   C     0.50000   0.75404   0.75003   0.00000  Uiso   1.00
C967   C     0.52624   0.83297   0.64996   0.00000  Uiso   1.00
C968   C     0.59749   0.80237   0.51280   0.00000  Uiso   1.00
C969   C     0.54106   0.82826   0.59314   0.00000  Uiso   1.00
C970   C     0.41011   0.84220   0.93462   0.00000  Uiso   1.00
C971   C     0.39561   0.84650   0.98844   0.00000  Uiso   1.00
C972   C     0.42899   0.83976   0.51581   0.00000  Uiso   1.00
Cu973  Cu    0.45311   0.83333   0.75000   0.00000  Uiso   1.00
Cu974  Cu    0.54689   0.83334   0.75000   0.00000  Uiso   1.00
H975   H     0.61586   0.80945   0.58373   0.00000  Uiso   1.00
H976   H     0.57551   0.70387   0.75067   0.00000  Uiso   1.00
H977   H     0.42429   0.70402   0.75020   0.00000  Uiso   1.00
H978   H     0.42429   0.96280   0.75011   0.00000  Uiso   1.00
H979   H     0.60657   0.87972   0.80855   0.00000  Uiso   1.00
H980   H     0.35997   0.87956   0.80869   0.00000  Uiso   1.00
H981   H     0.60499   0.77758   0.91644   0.00000  Uiso   1.00
H982   H     0.63341   0.79013   0.99188   0.00000  Uiso   1.00
H983   H     0.47138   0.84812   0.59013   0.00000  Uiso   1.00
H984   H     0.38411   0.85017   0.91418   0.00000  Uiso   1.00
H985   H     0.41506   0.84421   0.55740   0.00000  Uiso   1.00
H986   H     0.35860   0.85646   0.50901   0.00000  Uiso   1.00
H987   H     0.54383   0.78380   0.87276   0.00000  Uiso   1.00
H988   H     0.57552   0.96264   0.75060   0.00000  Uiso   1.00
N989   N     0.38265   0.83332   0.74998   0.00000  Uiso   1.00
N990   N     0.61735   0.83335   0.74999   0.00000  Uiso   1.00
O991   O     0.46042   0.89345   0.75000   0.00000  Uiso   1.00
O992   O     0.53961   0.89346   0.75000   0.00000  Uiso   1.00
O993   O     0.44108   0.83332   0.82549   0.00000  Uiso   1.00
O994   O     0.52027   0.83333   0.82549   0.00000  Uiso   1.00
O995   O     0.46039   0.77321   0.74999   0.00000  Uiso   1.00
O996   O     0.53958   0.77322   0.74999   0.00000  Uiso   1.00
O997   O     0.47973   0.83334   0.67451   0.00000  Uiso   1.00
O998   O     0.55892   0.83335   0.67451   0.00000  Uiso   1.00
N999   N     0.40288   0.78035   0.68313   0.00000  Uiso   1.00
H1000  H     0.40427   0.78676   0.64474   0.00000  Uiso   1.00
H1001  H     0.39096   0.75007   0.69114   0.00000  Uiso   1.00
C1002  C     0.63651   0.77910   0.68339   0.00000  Uiso   1.00
N1003  N     0.62519   0.75606   0.65604   0.00000  Uiso   1.00
C1004  C     0.83330   0.91263   0.75011   0.00000  Uiso   1.00
C1005  C     0.81103   0.82680   0.98976   0.00000  Uiso   1.00
C1006  C     0.82385   0.81770   0.93559   0.00000  Uiso   1.00
C1007  C     0.84739   0.82237   0.51564   0.00000  Uiso   1.00
C1008  C     0.89421   0.80587   0.98823   0.00000  Uiso   1.00
C1009  C     0.90367   0.79221   0.93696   0.00000  Uiso   1.00
C1010  C     0.86870   0.79720   0.91136   0.00000  Uiso   1.00
C1011  C     0.83893   0.83429   0.56784   0.00000  Uiso   1.00
C1012  C     0.92099   0.81358   0.56504   0.00000  Uiso   1.00
C1013  C     0.79113   0.82899   0.90741   0.00000  Uiso   1.00
C1014  C     0.87568   0.97867   0.75044   0.00000  Uiso   1.00
C1015  C     0.80712   0.83108   0.85001   0.00000  Uiso   1.00
C1016  C     0.87570   0.68791   0.75045   0.00000  Uiso   1.00
C1017  C     0.83330   0.70942   0.75020   0.00000  Uiso   1.00
C1018  C     0.79084   0.68800   0.75017   0.00000  Uiso   1.00
C1019  C     0.79082   0.97876   0.75017   0.00000  Uiso   1.00
C1020  C     0.83326   0.95726   0.75023   0.00000  Uiso   1.00
C1021  C     0.96596   0.85906   0.78248   0.00000  Uiso   1.00
C1022  C     0.68213   0.85898   0.78255   0.00000  Uiso   1.00
C1023  C     0.70108   0.80745   0.71733   0.00000  Uiso   1.00
C1024  C     0.98456   0.80738   0.71746   0.00000  Uiso   1.00
C1025  C     0.83333   0.75404   0.75003   0.00000  Uiso   1.00
C1026  C     0.85958   0.83297   0.64996   0.00000  Uiso   1.00
C1027  C     0.93083   0.80237   0.51280   0.00000  Uiso   1.00
C1028  C     0.87440   0.82826   0.59314   0.00000  Uiso   1.00
C1029  C     0.74344   0.84220   0.93462   0.00000  Uiso   1.00
C1030  C     0.72894   0.84650   0.98844   0.00000  Uiso   1.00
C1031  C     0.76232   0.83976   0.51581   0.00000  Uiso   1.00
Cu1032 Cu    0.78645   0.83333   0.75000   0.00000  Uiso   1.00
Cu1033 Cu    0.88022   0.83334   0.75000   0.00000  Uiso   1.00
H1034  H     0.94920   0.80945   0.58373   0.00000  Uiso   1.00
H1035  H     0.90885   0.70387   0.75067   0.00000  Uiso   1.00
H1036  H     0.75762   0.70402   0.75020   0.00000  Uiso   1.00
H1037  H     0.75762   0.96280   0.75011   0.00000  Uiso   1.00
H1038  H     0.93990   0.87972   0.80855   0.00000  Uiso   1.00
H1039  H     0.69331   0.87956   0.80869   0.00000  Uiso   1.00
H1040  H     0.93833   0.77758   0.91644   0.00000  Uiso   1.00
H1041  H     0.96675   0.79013   0.99188   0.00000  Uiso   1.00
H1042  H     0.80472   0.84812   0.59013   0.00000  Uiso   1.00
H1043  H     0.71745   0.85017   0.91418   0.00000  Uiso   1.00
H1044  H     0.74839   0.84421   0.55740   0.00000  Uiso   1.00
H1045  H     0.69194   0.85646   0.50901   0.00000  Uiso   1.00
H1046  H     0.87716   0.78380   0.87276   0.00000  Uiso   1.00
H1047  H     0.90885   0.96264   0.75060   0.00000  Uiso   1.00
N1048  N     0.71598   0.83332   0.74998   0.00000  Uiso   1.00
N1049  N     0.95069   0.83335   0.74999   0.00000  Uiso   1.00
O1050  O     0.79375   0.89345   0.75000   0.00000  Uiso   1.00
O1051  O     0.87294   0.89346   0.75000   0.00000  Uiso   1.00
O1052  O     0.77441   0.83332   0.82549   0.00000  Uiso   1.00
O1053  O     0.85360   0.83333   0.82549   0.00000  Uiso   1.00
O1054  O     0.79373   0.77321   0.74999   0.00000  Uiso   1.00
O1055  O     0.87292   0.77322   0.74999   0.00000  Uiso   1.00
O1056  O     0.81306   0.83334   0.67451   0.00000  Uiso   1.00
O1057  O     0.89225   0.83335   0.67451   0.00000  Uiso   1.00
N1058  N     0.73621   0.78035   0.68313   0.00000  Uiso   1.00
H1059  H     0.73760   0.78676   0.64474   0.00000  Uiso   1.00
H1060  H     0.72430   0.75007   0.69114   0.00000  Uiso   1.00
C1061  C     0.96985   0.77910   0.68339   0.00000  Uiso   1.00
N1062  N     0.95852   0.75606   0.65604   0.00000  Uiso   1.00
loop_
_geom_bond_atom_site_label_1
_geom_bond_atom_site_label_2
_geom_bond_distance
_geom_bond_site_symmetry_2
_ccdc_geom_bond_type
C1     O48     1.293   .     A
C1     O47     1.293   .     A
C1     C17     1.450   .     S
C2     C3      1.419   .     A
C2     C535    1.425   .     S
C2     C559    1.418   .     S
C3     C10     1.422   .     A
C3     C7      1.413   .     A
C4     C8      1.402   .     A
C4     C533    1.425   1_554 S
C4     C536    1.420   1_554 S
C5     C6      1.391   .     A
C5     C535    1.420   .     S
C5     C555    1.403   .     S
C6     C7      1.386   .     A
C6     H37     1.084   .     S
C7     H43     1.079   .     S
C8     H39     1.076   .     S
C8     C25     1.398   .     A
C9     C25     1.399   .     A
C9     C24     1.392   .     A
C9     H31     1.081   .     S
C10    C26     1.403   .     A
C10    C12     1.475   .     S
C11    H44     1.083   .     S
C11    C17     1.401   .     A
C11    C190    1.384   .     S
C12    O50     1.296   .     A
C12    O49     1.301   .     A
C13    H32     1.083   .     S
C13    C14     1.401   .     A
C13    C365    1.384   1_545 S
C14    C22     1.450   .     S
C14    C15     1.401   .     A
C15    H33     1.083   .     S
C15    C370    1.383   1_545 S
C16    H34     1.083   .     S
C16    C17     1.401   .     A
C16    C192    1.383   .     S
C18    H35     1.082   .     S
C18    N46     1.367   .     A
C18    C78     1.417   .     S
C19    N45     1.367   .     A
C19    H36     1.082   .     S
C19    C136    1.417   1_455 S
C20    N45     1.368   .     A
C20    N55     1.432   .     S
C20    C139    1.425   1_455 S
C21    C58     1.441   .     S
C21    N46     1.373   .     A
C21    C79     1.425   .     S
C22    O51     1.293   .     A
C22    O52     1.293   .     A
C23    O53     1.294   .     A
C23    C25     1.464   .     S
C23    O54     1.298   .     A
C24    C536    1.403   1_554 S
C24    H569    1.084   1_554 S
C26    H40     1.083   .     S
C26    C27     1.386   .     A
C27    C559    1.390   .     S
C27    H573    1.083   .     S
C28    H41     1.077   .     S
C28    C558    1.390   1_554 S
C28    C533    1.418   1_554 S
Cu29   O49     1.956   .     S
Cu29   Cu30    2.683   .     S
Cu29   O47     1.965   .     S
Cu29   O51     1.965   .     S
Cu29   N45     2.016   .     S
Cu29   O53     1.943   .     S
Cu30   O50     1.943   .     S
Cu30   O54     1.956   .     S
Cu30   O48     1.965   .     S
Cu30   N46     2.016   .     S
Cu30   O52     1.965   .     S
H38    C555    1.084   .     S
H42    C558    1.083   1_554 S
N55    H56     1.046   .     S
N55    H57     1.045   .     S
C58    N59     1.158   .     T
C60    O107    1.293   .     A
C60    O106    1.293   .     A
C60    C76     1.450   .     S
C61    C62     1.419   .     A
C61    C594    1.425   .     S
C61    C618    1.418   .     S
C62    C69     1.422   .     A
C62    C66     1.413   .     A
C63    C67     1.402   .     A
C63    C592    1.425   1_554 S
C63    C595    1.420   1_554 S
C64    C65     1.391   .     A
C64    C594    1.420   .     S
C64    C614    1.403   .     S
C65    C66     1.386   .     A
C65    H96     1.084   .     S
C66    H102    1.079   .     S
C67    H98     1.076   .     S
C67    C84     1.398   .     A
C68    C84     1.399   .     A
C68    C83     1.392   .     A
C68    H90     1.081   .     S
C69    C85     1.403   .     A
C69    C71     1.475   .     S
C70    H103    1.083   .     S
C70    C76     1.401   .     A
C70    C249    1.384   .     S
C71    O109    1.296   .     A
C71    O108    1.301   .     A
C72    H91     1.083   .     S
C72    C73     1.401   .     A
C72    C424    1.384   1_545 S
C73    C81     1.450   .     S
C73    C74     1.401   .     A
C74    H92     1.083   .     S
C74    C429    1.383   1_545 S
C75    H93     1.083   .     S
C75    C76     1.401   .     A
C75    C251    1.383   .     S
C77    H94     1.082   .     S
C77    N105    1.367   .     A
C77    C137    1.417   .     S
C78    N104    1.367   .     A
C78    H95     1.082   .     S
C79    N104    1.368   .     A
C79    N114    1.432   .     S
C80    C117    1.441   .     S
C80    N105    1.373   .     A
C80    C138    1.425   .     S
C81    O110    1.293   .     A
C81    O111    1.293   .     A
C82    O112    1.294   .     A
C82    C84     1.464   .     S
C82    O113    1.298   .     A
C83    C595    1.403   1_554 S
C83    H628    1.084   1_554 S
C85    H99     1.083   .     S
C85    C86     1.386   .     A
C86    C618    1.390   .     S
C86    H632    1.083   .     S
C87    H100    1.077   .     S
C87    C617    1.390   1_554 S
C87    C592    1.418   1_554 S
Cu88   O108    1.956   .     S
Cu88   Cu89    2.683   .     S
Cu88   O106    1.965   .     S
Cu88   O110    1.965   .     S
Cu88   N104    2.016   .     S
Cu88   O112    1.943   .     S
Cu89   O109    1.943   .     S
Cu89   O113    1.956   .     S
Cu89   O107    1.965   .     S
Cu89   N105    2.016   .     S
Cu89   O111    1.965   .     S
H97    C614    1.084   .     S
H101   C617    1.083   1_554 S
N114   H115    1.046   .     S
N114   H116    1.045   .     S
C117   N118    1.158   .     T
C119   O166    1.293   .     A
C119   O165    1.293   .     A
C119   C135    1.450   .     S
C120   C121    1.419   .     A
C120   C653    1.425   .     S
C120   C677    1.418   .     S
C121   C128    1.422   .     A
C121   C125    1.413   .     A
C122   C126    1.402   .     A
C122   C651    1.425   1_554 S
C122   C654    1.420   1_554 S
C123   C124    1.391   .     A
C123   C653    1.420   .     S
C123   C673    1.403   .     S
C124   C125    1.386   .     A
C124   H155    1.084   .     S
C125   H161    1.079   .     S
C126   H157    1.076   .     S
C126   C143    1.398   .     A
C127   C143    1.399   .     A
C127   C142    1.392   .     A
C127   H149    1.081   .     S
C128   C144    1.403   .     A
C128   C130    1.475   .     S
C129   H162    1.083   .     S
C129   C135    1.401   .     A
C129   C308    1.384   .     S
C130   O168    1.296   .     A
C130   O167    1.301   .     A
C131   H150    1.083   .     S
C131   C132    1.401   .     A
C131   C483    1.384   1_545 S
C132   C140    1.450   .     S
C132   C133    1.401   .     A
C133   H151    1.083   .     S
C133   C488    1.383   1_545 S
C134   H152    1.083   .     S
C134   C135    1.401   .     A
C134   C310    1.383   .     S
C136   H153    1.082   .     S
C136   N164    1.367   .     A
C136   C19     1.417   1_655 S
C137   N163    1.367   .     A
C137   H154    1.082   .     S
C138   N163    1.368   .     A
C138   N173    1.432   .     S
C139   C176    1.441   .     S
C139   N164    1.373   .     A
C139   C20     1.425   1_655 S
C140   O169    1.293   .     A
C140   O170    1.293   .     A
C141   O171    1.294   .     A
C141   C143    1.464   .     S
C141   O172    1.298   .     A
C142   C654    1.403   1_554 S
C142   H687    1.084   1_554 S
C144   H158    1.083   .     S
C144   C145    1.386   .     A
C145   C677    1.390   .     S
C145   H691    1.083   .     S
C146   H159    1.077   .     S
C146   C676    1.390   1_554 S
C146   C651    1.418   1_554 S
Cu147  O167    1.956   .     S
Cu147  Cu148   2.683   .     S
Cu147  O165    1.965   .     S
Cu147  O169    1.965   .     S
Cu147  N163    2.016   .     S
Cu147  O171    1.943   .     S
Cu148  O168    1.943   .     S
Cu148  O172    1.956   .     S
Cu148  O166    1.965   .     S
Cu148  N164    2.016   .     S
Cu148  O170    1.965   .     S
H156   C673    1.084   .     S
H160   C676    1.083   1_554 S
N173   H174    1.046   .     S
N173   H175    1.045   .     S
C176   N177    1.158   .     T
C178   O225    1.293   .     A
C178   O224    1.293   .     A
C178   C194    1.450   .     S
C179   C180    1.419   .     A
C179   C712    1.425   .     S
C179   C736    1.418   .     S
C180   C187    1.422   .     A
C180   C184    1.413   .     A
C181   C185    1.402   .     A
C181   C710    1.425   1_554 S
C181   C713    1.420   1_554 S
C182   C183    1.391   .     A
C182   C712    1.420   .     S
C182   C732    1.403   .     S
C183   C184    1.386   .     A
C183   H214    1.084   .     S
C184   H220    1.079   .     S
C185   H216    1.076   .     S
C185   C202    1.398   .     A
C186   C202    1.399   .     A
C186   C201    1.392   .     A
C186   H208    1.081   .     S
C187   C203    1.403   .     A
C187   C189    1.475   .     S
C188   H221    1.083   .     S
C188   C194    1.401   .     A
C188   C367    1.384   .     S
C189   O227    1.296   .     A
C189   O226    1.301   .     A
C190   H209    1.083   .     S
C190   C191    1.401   .     A
C191   C199    1.450   .     S
C191   C192    1.401   .     A
C192   H210    1.083   .     S
C193   H211    1.083   .     S
C193   C194    1.401   .     A
C193   C369    1.383   .     S
C195   H212    1.082   .     S
C195   N223    1.367   .     A
C195   C255    1.417   .     S
C196   N222    1.367   .     A
C196   H213    1.082   .     S
C196   C313    1.417   1_455 S
C197   N222    1.368   .     A
C197   N232    1.432   .     S
C197   C316    1.425   1_455 S
C198   C235    1.441   .     S
C198   N223    1.373   .     A
C198   C256    1.425   .     S
C199   O228    1.293   .     A
C199   O229    1.293   .     A
C200   O230    1.294   .     A
C200   C202    1.464   .     S
C200   O231    1.298   .     A
C201   C713    1.403   1_554 S
C201   H746    1.084   1_554 S
C203   H217    1.083   .     S
C203   C204    1.386   .     A
C204   C736    1.390   .     S
C204   H750    1.083   .     S
C205   H218    1.077   .     S
C205   C735    1.390   1_554 S
C205   C710    1.418   1_554 S
Cu206  O226    1.956   .     S
Cu206  Cu207   2.683   .     S
Cu206  O224    1.965   .     S
Cu206  O228    1.965   .     S
Cu206  N222    2.016   .     S
Cu206  O230    1.943   .     S
Cu207  O227    1.943   .     S
Cu207  O231    1.956   .     S
Cu207  O225    1.965   .     S
Cu207  N223    2.016   .     S
Cu207  O229    1.965   .     S
H215   C732    1.084   .     S
H219   C735    1.083   1_554 S
N232   H233    1.046   .     S
N232   H234    1.045   .     S
C235   N236    1.158   .     T
C237   O284    1.293   .     A
C237   O283    1.293   .     A
C237   C253    1.450   .     S
C238   C239    1.419   .     A
C238   C771    1.425   .     S
C238   C795    1.418   .     S
C239   C246    1.422   .     A
C239   C243    1.413   .     A
C240   C244    1.402   .     A
C240   C769    1.425   1_554 S
C240   C772    1.420   1_554 S
C241   C242    1.391   .     A
C241   C771    1.420   .     S
C241   C791    1.403   .     S
C242   C243    1.386   .     A
C242   H273    1.084   .     S
C243   H279    1.079   .     S
C244   H275    1.076   .     S
C244   C261    1.398   .     A
C245   C261    1.399   .     A
C245   C260    1.392   .     A
C245   H267    1.081   .     S
C246   C262    1.403   .     A
C246   C248    1.475   .     S
C247   H280    1.083   .     S
C247   C253    1.401   .     A
C247   C426    1.384   .     S
C248   O286    1.296   .     A
C248   O285    1.301   .     A
C249   H268    1.083   .     S
C249   C250    1.401   .     A
C250   C258    1.450   .     S
C250   C251    1.401   .     A
C251   H269    1.083   .     S
C252   H270    1.083   .     S
C252   C253    1.401   .     A
C252   C428    1.383   .     S
C254   H271    1.082   .     S
C254   N282    1.367   .     A
C254   C314    1.417   .     S
C255   N281    1.367   .     A
C255   H272    1.082   .     S
C256   N281    1.368   .     A
C256   N291    1.432   .     S
C257   C294    1.441   .     S
C257   N282    1.373   .     A
C257   C315    1.425   .     S
C258   O287    1.293   .     A
C258   O288    1.293   .     A
C259   O289    1.294   .     A
C259   C261    1.464   .     S
C259   O290    1.298   .     A
C260   C772    1.403   1_554 S
C260   H805    1.084   1_554 S
C262   H276    1.083   .     S
C262   C263    1.386   .     A
C263   C795    1.390   .     S
C263   H809    1.083   .     S
C264   H277    1.077   .     S
C264   C794    1.390   1_554 S
C264   C769    1.418   1_554 S
Cu265  O285    1.956   .     S
Cu265  Cu266   2.683   .     S
Cu265  O283    1.965   .     S
Cu265  O287    1.965   .     S
Cu265  N281    2.016   .     S
Cu265  O289    1.943   .     S
Cu266  O286    1.943   .     S
Cu266  O290    1.956   .     S
Cu266  O284    1.965   .     S
Cu266  N282    2.016   .     S
Cu266  O288    1.965   .     S
H274   C791    1.084   .     S
H278   C794    1.083   1_554 S
N291   H292    1.046   .     S
N291   H293    1.045   .     S
C294   N295    1.158   .     T
C296   O343    1.293   .     A
C296   O342    1.293   .     A
C296   C312    1.450   .     S
C297   C298    1.419   .     A
C297   C830    1.425   .     S
C297   C854    1.418   .     S
C298   C305    1.422   .     A
C298   C302    1.413   .     A
C299   C303    1.402   .     A
C299   C828    1.425   1_554 S
C299   C831    1.420   1_554 S
C300   C301    1.391   .     A
C300   C830    1.420   .     S
C300   C850    1.403   .     S
C301   C302    1.386   .     A
C301   H332    1.084   .     S
C302   H338    1.079   .     S
C303   H334    1.076   .     S
C303   C320    1.398   .     A
C304   C320    1.399   .     A
C304   C319    1.392   .     A
C304   H326    1.081   .     S
C305   C321    1.403   .     A
C305   C307    1.475   .     S
C306   H339    1.083   .     S
C306   C312    1.401   .     A
C306   C485    1.384   .     S
C307   O345    1.296   .     A
C307   O344    1.301   .     A
C308   H327    1.083   .     S
C308   C309    1.401   .     A
C309   C317    1.450   .     S
C309   C310    1.401   .     A
C310   H328    1.083   .     S
C311   H329    1.083   .     S
C311   C312    1.401   .     A
C311   C487    1.383   .     S
C313   H330    1.082   .     S
C313   N341    1.367   .     A
C313   C196    1.417   1_655 S
C314   N340    1.367   .     A
C314   H331    1.082   .     S
C315   N340    1.368   .     A
C315   N350    1.432   .     S
C316   C353    1.441   .     S
C316   N341    1.373   .     A
C316   C197    1.425   1_655 S
C317   O346    1.293   .     A
C317   O347    1.293   .     A
C318   O348    1.294   .     A
C318   C320    1.464   .     S
C318   O349    1.298   .     A
C319   C831    1.403   1_554 S
C319   H864    1.084   1_554 S
C321   H335    1.083   .     S
C321   C322    1.386   .     A
C322   C854    1.390   .     S
C322   H868    1.083   .     S
C323   H336    1.077   .     S
C323   C853    1.390   1_554 S
C323   C828    1.418   1_554 S
Cu324  O344    1.956   .     S
Cu324  Cu325   2.683   .     S
Cu324  O342    1.965   .     S
Cu324  O346    1.965   .     S
Cu324  N340    2.016   .     S
Cu324  O348    1.943   .     S
Cu325  O345    1.943   .     S
Cu325  O349    1.956   .     S
Cu325  O343    1.965   .     S
Cu325  N341    2.016   .     S
Cu325  O347    1.965   .     S
H333   C850    1.084   .     S
H337   C853    1.083   1_554 S
N350   H351    1.046   .     S
N350   H352    1.045   .     S
C353   N354    1.158   .     T
C355   O402    1.293   .     A
C355   O401    1.293   .     A
C355   C371    1.450   .     S
C356   C357    1.419   .     A
C356   C889    1.425   .     S
C356   C913    1.418   .     S
C357   C364    1.422   .     A
C357   C361    1.413   .     A
C358   C362    1.402   .     A
C358   C887    1.425   1_554 S
C358   C890    1.420   1_554 S
C359   C360    1.391   .     A
C359   C889    1.420   .     S
C359   C909    1.403   .     S
C360   C361    1.386   .     A
C360   H391    1.084   .     S
C361   H397    1.079   .     S
C362   H393    1.076   .     S
C362   C379    1.398   .     A
C363   C379    1.399   .     A
C363   C378    1.392   .     A
C363   H385    1.081   .     S
C364   C380    1.403   .     A
C364   C366    1.475   .     S
C365   H398    1.083   .     S
C365   C371    1.401   .     A
C365   C13     1.384   1_565 S
C366   O404    1.296   .     A
C366   O403    1.301   .     A
C367   H386    1.083   .     S
C367   C368    1.401   .     A
C368   C376    1.450   .     S
C368   C369    1.401   .     A
C369   H387    1.083   .     S
C370   H388    1.083   .     S
C370   C371    1.401   .     A
C370   C15     1.383   1_565 S
C372   H389    1.082   .     S
C372   N400    1.367   .     A
C372   C432    1.417   .     S
C373   N399    1.367   .     A
C373   H390    1.082   .     S
C373   C490    1.417   1_455 S
C374   N399    1.368   .     A
C374   N409    1.432   .     S
C374   C493    1.425   1_455 S
C375   C412    1.441   .     S
C375   N400    1.373   .     A
C375   C433    1.425   .     S
C376   O405    1.293   .     A
C376   O406    1.293   .     A
C377   O407    1.294   .     A
C377   C379    1.464   .     S
C377   O408    1.298   .     A
C378   C890    1.403   1_554 S
C378   H923    1.084   1_554 S
C380   H394    1.083   .     S
C380   C381    1.386   .     A
C381   C913    1.390   .     S
C381   H927    1.083   .     S
C382   H395    1.077   .     S
C382   C912    1.390   1_554 S
C382   C887    1.418   1_554 S
Cu383  O403    1.956   .     S
Cu383  Cu384   2.683   .     S
Cu383  O401    1.965   .     S
Cu383  O405    1.965   .     S
Cu383  N399    2.016   .     S
Cu383  O407    1.943   .     S
Cu384  O404    1.943   .     S
Cu384  O408    1.956   .     S
Cu384  O402    1.965   .     S
Cu384  N400    2.016   .     S
Cu384  O406    1.965   .     S
H392   C909    1.084   .     S
H396   C912    1.083   1_554 S
N409   H410    1.046   .     S
N409   H411    1.045   .     S
C412   N413    1.158   .     T
C414   O461    1.293   .     A
C414   O460    1.293   .     A
C414   C430    1.450   .     S
C415   C416    1.419   .     A
C415   C948    1.425   .     S
C415   C972    1.418   .     S
C416   C423    1.422   .     A
C416   C420    1.413   .     A
C417   C421    1.402   .     A
C417   C946    1.425   1_554 S
C417   C949    1.420   1_554 S
C418   C419    1.391   .     A
C418   C948    1.420   .     S
C418   C968    1.403   .     S
C419   C420    1.386   .     A
C419   H450    1.084   .     S
C420   H456    1.079   .     S
C421   H452    1.076   .     S
C421   C438    1.398   .     A
C422   C438    1.399   .     A
C422   C437    1.392   .     A
C422   H444    1.081   .     S
C423   C439    1.403   .     A
C423   C425    1.475   .     S
C424   H457    1.083   .     S
C424   C430    1.401   .     A
C424   C72     1.384   1_565 S
C425   O463    1.296   .     A
C425   O462    1.301   .     A
C426   H445    1.083   .     S
C426   C427    1.401   .     A
C427   C435    1.450   .     S
C427   C428    1.401   .     A
C428   H446    1.083   .     S
C429   H447    1.083   .     S
C429   C430    1.401   .     A
C429   C74     1.383   1_565 S
C431   H448    1.082   .     S
C431   N459    1.367   .     A
C431   C491    1.417   .     S
C432   N458    1.367   .     A
C432   H449    1.082   .     S
C433   N458    1.368   .     A
C433   N468    1.432   .     S
C434   C471    1.441   .     S
C434   N459    1.373   .     A
C434   C492    1.425   .     S
C435   O464    1.293   .     A
C435   O465    1.293   .     A
C436   O466    1.294   .     A
C436   C438    1.464   .     S
C436   O467    1.298   .     A
C437   C949    1.403   1_554 S
C437   H982    1.084   1_554 S
C439   H453    1.083   .     S
C439   C440    1.386   .     A
C440   C972    1.390   .     S
C440   H986    1.083   .     S
C441   H454    1.077   .     S
C441   C971    1.390   1_554 S
C441   C946    1.418   1_554 S
Cu442  O462    1.956   .     S
Cu442  Cu443   2.683   .     S
Cu442  O460    1.965   .     S
Cu442  O464    1.965   .     S
Cu442  N458    2.016   .     S
Cu442  O466    1.943   .     S
Cu443  O463    1.943   .     S
Cu443  O467    1.956   .     S
Cu443  O461    1.965   .     S
Cu443  N459    2.016   .     S
Cu443  O465    1.965   .     S
H451   C968    1.084   .     S
H455   C971    1.083   1_554 S
N468   H469    1.046   .     S
N468   H470    1.045   .     S
C471   N472    1.158   .     T
C473   O520    1.293   .     A
C473   O519    1.293   .     A
C473   C489    1.450   .     S
C474   C475    1.419   .     A
C474   C1007   1.425   .     S
C474   C1031   1.418   .     S
C475   C482    1.422   .     A
C475   C479    1.413   .     A
C476   C480    1.402   .     A
C476   C1005   1.425   1_554 S
C476   C1008   1.420   1_554 S
C477   C478    1.391   .     A
C477   C1007   1.420   .     S
C477   C1027   1.403   .     S
C478   C479    1.386   .     A
C478   H509    1.084   .     S
C479   H515    1.079   .     S
C480   H511    1.076   .     S
C480   C497    1.398   .     A
C481   C497    1.399   .     A
C481   C496    1.392   .     A
C481   H503    1.081   .     S
C482   C498    1.403   .     A
C482   C484    1.475   .     S
C483   H516    1.083   .     S
C483   C489    1.401   .     A
C483   C131    1.384   1_565 S
C484   O522    1.296   .     A
C484   O521    1.301   .     A
C485   H504    1.083   .     S
C485   C486    1.401   .     A
C486   C494    1.450   .     S
C486   C487    1.401   .     A
C487   H505    1.083   .     S
C488   H506    1.083   .     S
C488   C489    1.401   .     A
C488   C133    1.383   1_565 S
C490   H507    1.082   .     S
C490   N518    1.367   .     A
C490   C373    1.417   1_655 S
C491   N517    1.367   .     A
C491   H508    1.082   .     S
C492   N517    1.368   .     A
C492   N527    1.432   .     S
C493   C530    1.441   .     S
C493   N518    1.373   .     A
C493   C374    1.425   1_655 S
C494   O523    1.293   .     A
C494   O524    1.293   .     A
C495   O525    1.294   .     A
C495   C497    1.464   .     S
C495   O526    1.298   .     A
C496   C1008   1.403   1_554 S
C496   H1041   1.084   1_554 S
C498   H512    1.083   .     S
C498   C499    1.386   .     A
C499   C1031   1.390   .     S
C499   H1045   1.083   .     S
C500   H513    1.077   .     S
C500   C1030   1.390   1_554 S
C500   C1005   1.418   1_554 S
Cu501  O521    1.956   .     S
Cu501  Cu502   2.683   .     S
Cu501  O519    1.965   .     S
Cu501  O523    1.965   .     S
Cu501  N517    2.016   .     S
Cu501  O525    1.943   .     S
Cu502  O522    1.943   .     S
Cu502  O526    1.956   .     S
Cu502  O520    1.965   .     S
Cu502  N518    2.016   .     S
Cu502  O524    1.965   .     S
H510   C1027   1.084   .     S
H514   C1030   1.083   1_554 S
N527   H528    1.046   .     S
N527   H529    1.045   .     S
C530   N531    1.158   .     T
C532   O579    1.293   .     A
C532   O578    1.293   .     A
C532   C548    1.450   .     S
C533   C534    1.419   .     A
C533   C4      1.425   1_556 S
C533   C28     1.418   1_556 S
C534   C541    1.422   .     A
C534   C538    1.413   .     A
C535   C539    1.402   .     A
C536   C537    1.391   .     A
C536   C4      1.420   1_556 S
C536   C24     1.403   1_556 S
C537   C538    1.386   .     A
C537   H568    1.084   .     S
C538   H574    1.079   .     S
C539   H570    1.076   .     S
C539   C556    1.398   .     A
C540   C556    1.399   .     A
C540   C555    1.392   .     A
C540   H562    1.081   .     S
C541   C557    1.403   .     A
C541   C543    1.475   .     S
C542   H575    1.083   .     S
C542   C548    1.401   .     A
C542   C721    1.384   .     S
C543   O581    1.296   .     A
C543   O580    1.301   .     A
C544   H563    1.083   .     S
C544   C545    1.401   .     A
C544   C896    1.384   1_545 S
C545   C553    1.450   .     S
C545   C546    1.401   .     A
C546   H564    1.083   .     S
C546   C901    1.383   1_545 S
C547   H565    1.083   .     S
C547   C548    1.401   .     A
C547   C723    1.383   .     S
C549   H566    1.082   .     S
C549   N577    1.367   .     A
C549   C609    1.417   .     S
C550   N576    1.367   .     A
C550   H567    1.082   .     S
C550   C667    1.417   1_455 S
C551   N576    1.368   .     A
C551   N586    1.432   .     S
C551   C670    1.425   1_455 S
C552   C589    1.441   .     S
C552   N577    1.373   .     A
C552   C610    1.425   .     S
C553   O582    1.293   .     A
C553   O583    1.293   .     A
C554   O584    1.294   .     A
C554   C556    1.464   .     S
C554   O585    1.298   .     A
C557   H571    1.083   .     S
C557   C558    1.386   .     A
C558   C28     1.390   1_556 S
C558   H42     1.083   1_556 S
C559   H572    1.077   .     S
Cu560  O580    1.956   .     S
Cu560  Cu561   2.683   .     S
Cu560  O578    1.965   .     S
Cu560  O582    1.965   .     S
Cu560  N576    2.016   .     S
Cu560  O584    1.943   .     S
Cu561  O581    1.943   .     S
Cu561  O585    1.956   .     S
Cu561  O579    1.965   .     S
Cu561  N577    2.016   .     S
Cu561  O583    1.965   .     S
H569   C24     1.084   1_556 S
N586   H587    1.046   .     S
N586   H588    1.045   .     S
C589   N590    1.158   .     T
C591   O638    1.293   .     A
C591   O637    1.293   .     A
C591   C607    1.450   .     S
C592   C593    1.419   .     A
C592   C63     1.425   1_556 S
C592   C87     1.418   1_556 S
C593   C600    1.422   .     A
C593   C597    1.413   .     A
C594   C598    1.402   .     A
C595   C596    1.391   .     A
C595   C63     1.420   1_556 S
C595   C83     1.403   1_556 S
C596   C597    1.386   .     A
C596   H627    1.084   .     S
C597   H633    1.079   .     S
C598   H629    1.076   .     S
C598   C615    1.398   .     A
C599   C615    1.399   .     A
C599   C614    1.392   .     A
C599   H621    1.081   .     S
C600   C616    1.403   .     A
C600   C602    1.475   .     S
C601   H634    1.083   .     S
C601   C607    1.401   .     A
C601   C780    1.384   .     S
C602   O640    1.296   .     A
C602   O639    1.301   .     A
C603   H622    1.083   .     S
C603   C604    1.401   .     A
C603   C955    1.384   1_545 S
C604   C612    1.450   .     S
C604   C605    1.401   .     A
C605   H623    1.083   .     S
C605   C960    1.383   1_545 S
C606   H624    1.083   .     S
C606   C607    1.401   .     A
C606   C782    1.383   .     S
C608   H625    1.082   .     S
C608   N636    1.367   .     A
C608   C668    1.417   .     S
C609   N635    1.367   .     A
C609   H626    1.082   .     S
C610   N635    1.368   .     A
C610   N645    1.432   .     S
C611   C648    1.441   .     S
C611   N636    1.373   .     A
C611   C669    1.425   .     S
C612   O641    1.293   .     A
C612   O642    1.293   .     A
C613   O643    1.294   .     A
C613   C615    1.464   .     S
C613   O644    1.298   .     A
C616   H630    1.083   .     S
C616   C617    1.386   .     A
C617   C87     1.390   1_556 S
C617   H101    1.083   1_556 S
C618   H631    1.077   .     S
Cu619  O639    1.956   .     S
Cu619  Cu620   2.683   .     S
Cu619  O637    1.965   .     S
Cu619  O641    1.965   .     S
Cu619  N635    2.016   .     S
Cu619  O643    1.943   .     S
Cu620  O640    1.943   .     S
Cu620  O644    1.956   .     S
Cu620  O638    1.965   .     S
Cu620  N636    2.016   .     S
Cu620  O642    1.965   .     S
H628   C83     1.084   1_556 S
N645   H646    1.046   .     S
N645   H647    1.045   .     S
C648   N649    1.158   .     T
C650   O697    1.293   .     A
C650   O696    1.293   .     A
C650   C666    1.450   .     S
C651   C652    1.419   .     A
C651   C122    1.425   1_556 S
C651   C146    1.418   1_556 S
C652   C659    1.422   .     A
C652   C656    1.413   .     A
C653   C657    1.402   .     A
C654   C655    1.391   .     A
C654   C122    1.420   1_556 S
C654   C142    1.403   1_556 S
C655   C656    1.386   .     A
C655   H686    1.084   .     S
C656   H692    1.079   .     S
C657   H688    1.076   .     S
C657   C674    1.398   .     A
C658   C674    1.399   .     A
C658   C673    1.392   .     A
C658   H680    1.081   .     S
C659   C675    1.403   .     A
C659   C661    1.475   .     S
C660   H693    1.083   .     S
C660   C666    1.401   .     A
C660   C839    1.384   .     S
C661   O699    1.296   .     A
C661   O698    1.301   .     A
C662   H681    1.083   .     S
C662   C663    1.401   .     A
C662   C1014   1.384   1_545 S
C663   C671    1.450   .     S
C663   C664    1.401   .     A
C664   H682    1.083   .     S
C664   C1019   1.383   1_545 S
C665   H683    1.083   .     S
C665   C666    1.401   .     A
C665   C841    1.383   .     S
C667   H684    1.082   .     S
C667   N695    1.367   .     A
C667   C550    1.417   1_655 S
C668   N694    1.367   .     A
C668   H685    1.082   .     S
C669   N694    1.368   .     A
C669   N704    1.432   .     S
C670   C707    1.441   .     S
C670   N695    1.373   .     A
C670   C551    1.425   1_655 S
C671   O700    1.293   .     A
C671   O701    1.293   .     A
C672   O702    1.294   .     A
C672   C674    1.464   .     S
C672   O703    1.298   .     A
C675   H689    1.083   .     S
C675   C676    1.386   .     A
C676   C146    1.390   1_556 S
C676   H160    1.083   1_556 S
C677   H690    1.077   .     S
Cu678  O698    1.956   .     S
Cu678  Cu679   2.683   .     S
Cu678  O696    1.965   .     S
Cu678  O700    1.965   .     S
Cu678  N694    2.016   .     S
Cu678  O702    1.943   .     S
Cu679  O699    1.943   .     S
Cu679  O703    1.956   .     S
Cu679  O697    1.965   .     S
Cu679  N695    2.016   .     S
Cu679  O701    1.965   .     S
H687   C142    1.084   1_556 S
N704   H705    1.046   .     S
N704   H706    1.045   .     S
C707   N708    1.158   .     T
C709   O756    1.293   .     A
C709   O755    1.293   .     A
C709   C725    1.450   .     S
C710   C711    1.419   .     A
C710   C181    1.425   1_556 S
C710   C205    1.418   1_556 S
C711   C718    1.422   .     A
C711   C715    1.413   .     A
C712   C716    1.402   .     A
C713   C714    1.391   .     A
C713   C181    1.420   1_556 S
C713   C201    1.403   1_556 S
C714   C715    1.386   .     A
C714   H745    1.084   .     S
C715   H751    1.079   .     S
C716   H747    1.076   .     S
C716   C733    1.398   .     A
C717   C733    1.399   .     A
C717   C732    1.392   .     A
C717   H739    1.081   .     S
C718   C734    1.403   .     A
C718   C720    1.475   .     S
C719   H752    1.083   .     S
C719   C725    1.401   .     A
C719   C898    1.384   .     S
C720   O758    1.296   .     A
C720   O757    1.301   .     A
C721   H740    1.083   .     S
C721   C722    1.401   .     A
C722   C730    1.450   .     S
C722   C723    1.401   .     A
C723   H741    1.083   .     S
C724   H742    1.083   .     S
C724   C725    1.401   .     A
C724   C900    1.383   .     S
C726   H743    1.082   .     S
C726   N754    1.367   .     A
C726   C786    1.417   .     S
C727   N753    1.367   .     A
C727   H744    1.082   .     S
C727   C844    1.417   1_455 S
C728   N753    1.368   .     A
C728   N763    1.432   .     S
C728   C847    1.425   1_455 S
C729   C766    1.441   .     S
C729   N754    1.373   .     A
C729   C787    1.425   .     S
C730   O759    1.293   .     A
C730   O760    1.293   .     A
C731   O761    1.294   .     A
C731   C733    1.464   .     S
C731   O762    1.298   .     A
C734   H748    1.083   .     S
C734   C735    1.386   .     A
C735   C205    1.390   1_556 S
C735   H219    1.083   1_556 S
C736   H749    1.077   .     S
Cu737  O757    1.956   .     S
Cu737  Cu738   2.683   .     S
Cu737  O755    1.965   .     S
Cu737  O759    1.965   .     S
Cu737  N753    2.016   .     S
Cu737  O761    1.943   .     S
Cu738  O758    1.943   .     S
Cu738  O762    1.956   .     S
Cu738  O756    1.965   .     S
Cu738  N754    2.016   .     S
Cu738  O760    1.965   .     S
H746   C201    1.084   1_556 S
N763   H764    1.046   .     S
N763   H765    1.045   .     S
C766   N767    1.158   .     T
C768   O815    1.293   .     A
C768   O814    1.293   .     A
C768   C784    1.450   .     S
C769   C770    1.419   .     A
C769   C240    1.425   1_556 S
C769   C264    1.418   1_556 S
C770   C777    1.422   .     A
C770   C774    1.413   .     A
C771   C775    1.402   .     A
C772   C773    1.391   .     A
C772   C240    1.420   1_556 S
C772   C260    1.403   1_556 S
C773   C774    1.386   .     A
C773   H804    1.084   .     S
C774   H810    1.079   .     S
C775   H806    1.076   .     S
C775   C792    1.398   .     A
C776   C792    1.399   .     A
C776   C791    1.392   .     A
C776   H798    1.081   .     S
C777   C793    1.403   .     A
C777   C779    1.475   .     S
C778   H811    1.083   .     S
C778   C784    1.401   .     A
C778   C957    1.384   .     S
C779   O817    1.296   .     A
C779   O816    1.301   .     A
C780   H799    1.083   .     S
C780   C781    1.401   .     A
C781   C789    1.450   .     S
C781   C782    1.401   .     A
C782   H800    1.083   .     S
C783   H801    1.083   .     S
C783   C784    1.401   .     A
C783   C959    1.383   .     S
C785   H802    1.082   .     S
C785   N813    1.367   .     A
C785   C845    1.417   .     S
C786   N812    1.367   .     A
C786   H803    1.082   .     S
C787   N812    1.368   .     A
C787   N822    1.432   .     S
C788   C825    1.441   .     S
C788   N813    1.373   .     A
C788   C846    1.425   .     S
C789   O818    1.293   .     A
C789   O819    1.293   .     A
C790   O820    1.294   .     A
C790   C792    1.464   .     S
C790   O821    1.298   .     A
C793   H807    1.083   .     S
C793   C794    1.386   .     A
C794   C264    1.390   1_556 S
C794   H278    1.083   1_556 S
C795   H808    1.077   .     S
Cu796  O816    1.956   .     S
Cu796  Cu797   2.683   .     S
Cu796  O814    1.965   .     S
Cu796  O818    1.965   .     S
Cu796  N812    2.016   .     S
Cu796  O820    1.943   .     S
Cu797  O817    1.943   .     S
Cu797  O821    1.956   .     S
Cu797  O815    1.965   .     S
Cu797  N813    2.016   .     S
Cu797  O819    1.965   .     S
H805   C260    1.084   1_556 S
N822   H823    1.046   .     S
N822   H824    1.045   .     S
C825   N826    1.158   .     T
C827   O874    1.293   .     A
C827   O873    1.293   .     A
C827   C843    1.450   .     S
C828   C829    1.419   .     A
C828   C299    1.425   1_556 S
C828   C323    1.418   1_556 S
C829   C836    1.422   .     A
C829   C833    1.413   .     A
C830   C834    1.402   .     A
C831   C832    1.391   .     A
C831   C299    1.420   1_556 S
C831   C319    1.403   1_556 S
C832   C833    1.386   .     A
C832   H863    1.084   .     S
C833   H869    1.079   .     S
C834   H865    1.076   .     S
C834   C851    1.398   .     A
C835   C851    1.399   .     A
C835   C850    1.392   .     A
C835   H857    1.081   .     S
C836   C852    1.403   .     A
C836   C838    1.475   .     S
C837   H870    1.083   .     S
C837   C843    1.401   .     A
C837   C1016   1.384   .     S
C838   O876    1.296   .     A
C838   O875    1.301   .     A
C839   H858    1.083   .     S
C839   C840    1.401   .     A
C840   C848    1.450   .     S
C840   C841    1.401   .     A
C841   H859    1.083   .     S
C842   H860    1.083   .     S
C842   C843    1.401   .     A
C842   C1018   1.383   .     S
C844   H861    1.082   .     S
C844   N872    1.367   .     A
C844   C727    1.417   1_655 S
C845   N871    1.367   .     A
C845   H862    1.082   .     S
C846   N871    1.368   .     A
C846   N881    1.432   .     S
C847   C884    1.441   .     S
C847   N872    1.373   .     A
C847   C728    1.425   1_655 S
C848   O877    1.293   .     A
C848   O878    1.293   .     A
C849   O879    1.294   .     A
C849   C851    1.464   .     S
C849   O880    1.298   .     A
C852   H866    1.083   .     S
C852   C853    1.386   .     A
C853   C323    1.390   1_556 S
C853   H337    1.083   1_556 S
C854   H867    1.077   .     S
Cu855  O875    1.956   .     S
Cu855  Cu856   2.683   .     S
Cu855  O873    1.965   .     S
Cu855  O877    1.965   .     S
Cu855  N871    2.016   .     S
Cu855  O879    1.943   .     S
Cu856  O876    1.943   .     S
Cu856  O880    1.956   .     S
Cu856  O874    1.965   .     S
Cu856  N872    2.016   .     S
Cu856  O878    1.965   .     S
H864   C319    1.084   1_556 S
N881   H882    1.046   .     S
N881   H883    1.045   .     S
C884   N885    1.158   .     T
C886   O933    1.293   .     A
C886   O932    1.293   .     A
C886   C902    1.450   .     S
C887   C888    1.419   .     A
C887   C358    1.425   1_556 S
C887   C382    1.418   1_556 S
C888   C895    1.422   .     A
C888   C892    1.413   .     A
C889   C893    1.402   .     A
C890   C891    1.391   .     A
C890   C358    1.420   1_556 S
C890   C378    1.403   1_556 S
C891   C892    1.386   .     A
C891   H922    1.084   .     S
C892   H928    1.079   .     S
C893   H924    1.076   .     S
C893   C910    1.398   .     A
C894   C910    1.399   .     A
C894   C909    1.392   .     A
C894   H916    1.081   .     S
C895   C911    1.403   .     A
C895   C897    1.475   .     S
C896   H929    1.083   .     S
C896   C902    1.401   .     A
C896   C544    1.384   1_565 S
C897   O935    1.296   .     A
C897   O934    1.301   .     A
C898   H917    1.083   .     S
C898   C899    1.401   .     A
C899   C907    1.450   .     S
C899   C900    1.401   .     A
C900   H918    1.083   .     S
C901   H919    1.083   .     S
C901   C902    1.401   .     A
C901   C546    1.383   1_565 S
C903   H920    1.082   .     S
C903   N931    1.367   .     A
C903   C963    1.417   .     S
C904   N930    1.367   .     A
C904   H921    1.082   .     S
C904   C1021   1.417   1_455 S
C905   N930    1.368   .     A
C905   N940    1.432   .     S
C905   C1024   1.425   1_455 S
C906   C943    1.441   .     S
C906   N931    1.373   .     A
C906   C964    1.425   .     S
C907   O936    1.293   .     A
C907   O937    1.293   .     A
C908   O938    1.294   .     A
C908   C910    1.464   .     S
C908   O939    1.298   .     A
C911   H925    1.083   .     S
C911   C912    1.386   .     A
C912   C382    1.390   1_556 S
C912   H396    1.083   1_556 S
C913   H926    1.077   .     S
Cu914  O934    1.956   .     S
Cu914  Cu915   2.683   .     S
Cu914  O932    1.965   .     S
Cu914  O936    1.965   .     S
Cu914  N930    2.016   .     S
Cu914  O938    1.943   .     S
Cu915  O935    1.943   .     S
Cu915  O939    1.956   .     S
Cu915  O933    1.965   .     S
Cu915  N931    2.016   .     S
Cu915  O937    1.965   .     S
H923   C378    1.084   1_556 S
N940   H941    1.046   .     S
N940   H942    1.045   .     S
C943   N944    1.158   .     T
C945   O992    1.293   .     A
C945   O991    1.293   .     A
C945   C961    1.450   .     S
C946   C947    1.419   .     A
C946   C417    1.425   1_556 S
C946   C441    1.418   1_556 S
C947   C954    1.422   .     A
C947   C951    1.413   .     A
C948   C952    1.402   .     A
C949   C950    1.391   .     A
C949   C417    1.420   1_556 S
C949   C437    1.403   1_556 S
C950   C951    1.386   .     A
C950   H981    1.084   .     S
C951   H987    1.079   .     S
C952   H983    1.076   .     S
C952   C969    1.398   .     A
C953   C969    1.399   .     A
C953   C968    1.392   .     A
C953   H975    1.081   .     S
C954   C970    1.403   .     A
C954   C956    1.475   .     S
C955   H988    1.083   .     S
C955   C961    1.401   .     A
C955   C603    1.384   1_565 S
C956   O994    1.296   .     A
C956   O993    1.301   .     A
C957   H976    1.083   .     S
C957   C958    1.401   .     A
C958   C966    1.450   .     S
C958   C959    1.401   .     A
C959   H977    1.083   .     S
C960   H978    1.083   .     S
C960   C961    1.401   .     A
C960   C605    1.383   1_565 S
C962   H979    1.082   .     S
C962   N990    1.367   .     A
C962   C1022   1.417   .     S
C963   N989    1.367   .     A
C963   H980    1.082   .     S
C964   N989    1.368   .     A
C964   N999    1.432   .     S
C965   C1002   1.441   .     S
C965   N990    1.373   .     A
C965   C1023   1.425   .     S
C966   O995    1.293   .     A
C966   O996    1.293   .     A
C967   O997    1.294   .     A
C967   C969    1.464   .     S
C967   O998    1.298   .     A
C970   H984    1.083   .     S
C970   C971    1.386   .     A
C971   C441    1.390   1_556 S
C971   H455    1.083   1_556 S
C972   H985    1.077   .     S
Cu973  O993    1.956   .     S
Cu973  Cu974   2.683   .     S
Cu973  O991    1.965   .     S
Cu973  O995    1.965   .     S
Cu973  N989    2.016   .     S
Cu973  O997    1.943   .     S
Cu974  O994    1.943   .     S
Cu974  O998    1.956   .     S
Cu974  O992    1.965   .     S
Cu974  N990    2.016   .     S
Cu974  O996    1.965   .     S
H982   C437    1.084   1_556 S
N999   H1000   1.046   .     S
N999   H1001   1.045   .     S
C1002  N1003   1.158   .     T
C1004  O1051   1.293   .     A
C1004  O1050   1.293   .     A
C1004  C1020   1.450   .     S
C1005  C1006   1.419   .     A
C1005  C476    1.425   1_556 S
C1005  C500    1.418   1_556 S
C1006  C1013   1.422   .     A
C1006  C1010   1.413   .     A
C1007  C1011   1.402   .     A
C1008  C1009   1.391   .     A
C1008  C476    1.420   1_556 S
C1008  C496    1.403   1_556 S
C1009  C1010   1.386   .     A
C1009  H1040   1.084   .     S
C1010  H1046   1.079   .     S
C1011  H1042   1.076   .     S
C1011  C1028   1.398   .     A
C1012  C1028   1.399   .     A
C1012  C1027   1.392   .     A
C1012  H1034   1.081   .     S
C1013  C1029   1.403   .     A
C1013  C1015   1.475   .     S
C1014  H1047   1.083   .     S
C1014  C1020   1.401   .     A
C1014  C662    1.384   1_565 S
C1015  O1053   1.296   .     A
C1015  O1052   1.301   .     A
C1016  H1035   1.083   .     S
C1016  C1017   1.401   .     A
C1017  C1025   1.450   .     S
C1017  C1018   1.401   .     A
C1018  H1036   1.083   .     S
C1019  H1037   1.083   .     S
C1019  C1020   1.401   .     A
C1019  C664    1.383   1_565 S
C1021  H1038   1.082   .     S
C1021  N1049   1.367   .     A
C1021  C904    1.417   1_655 S
C1022  N1048   1.367   .     A
C1022  H1039   1.082   .     S
C1023  N1048   1.368   .     A
C1023  N1058   1.432   .     S
C1024  C1061   1.441   .     S
C1024  N1049   1.373   .     A
C1024  C905    1.425   1_655 S
C1025  O1054   1.293   .     A
C1025  O1055   1.293   .     A
C1026  O1056   1.294   .     A
C1026  C1028   1.464   .     S
C1026  O1057   1.298   .     A
C1029  H1043   1.083   .     S
C1029  C1030   1.386   .     A
C1030  C500    1.390   1_556 S
C1030  H514    1.083   1_556 S
C1031  H1044   1.077   .     S
Cu1032 O1052   1.956   .     S
Cu1032 Cu1033  2.683   .     S
Cu1032 O1050   1.965   .     S
Cu1032 O1054   1.965   .     S
Cu1032 N1048   2.016   .     S
Cu1032 O1056   1.943   .     S
Cu1033 O1053   1.943   .     S
Cu1033 O1057   1.956   .     S
Cu1033 O1051   1.965   .     S
Cu1033 N1049   2.016   .     S
Cu1033 O1055   1.965   .     S
H1041  C496    1.084   1_556 S
N1058  H1059   1.046   .     S
N1058  H1060   1.045   .     S
C1061  N1062   1.158   .     T
