data_str_m2_o1_o18_pcu_sym.53
_audit_creation_date              2020-01-03
_audit_creation_method            'Materials Studio'
_symmetry_space_group_name_H-M    'P1'
_symmetry_Int_Tables_number       1
_symmetry_cell_setting            triclinic
loop_
_symmetry_equiv_pos_as_xyz
  x,y,z
_cell_length_a                    28.5906
_cell_length_b                    32.4994
_cell_length_c                    30.9476
_cell_angle_alpha                 89.6721
_cell_angle_beta                  74.2614
_cell_angle_gamma                 90.1772
loop_
_atom_site_label
_atom_site_type_symbol
_atom_site_fract_x
_atom_site_fract_y
_atom_site_fract_z
_atom_site_U_iso_or_equiv
_atom_site_adp_type
_atom_site_occupancy
Br1    Br    0.19051   0.18446   0.10549   0.00000  Uiso   1.00
Br2    Br    0.14282   0.14888   0.39451   0.00000  Uiso   1.00
C3     C     0.33327   0.08737   0.25004   0.00000  Uiso   1.00
C4     C     0.04232   0.02141   0.25052   0.00000  Uiso   1.00
C5     C     0.00007   0.29059   0.24995   0.00000  Uiso   1.00
C6     C     0.33326   0.04275   0.25005   0.00000  Uiso   1.00
C7     C     0.18419   0.13782   0.27399   0.00000  Uiso   1.00
C8     C     0.14914   0.19551   0.22601   0.00000  Uiso   1.00
C9     C     0.13463   0.13793   0.27403   0.00000  Uiso   1.00
C10    C     0.19870   0.19541   0.22597   0.00000  Uiso   1.00
C11    C     0.30602   0.16587   0.33611   0.00000  Uiso   1.00
C12    C     0.02731   0.16746   0.16389   0.00000  Uiso   1.00
C13    C     0.29081   0.16101   0.38516   0.00000  Uiso   1.00
C14    C     0.00007   0.24597   0.24996   0.00000  Uiso   1.00
C15    C     0.04252   0.17232   0.11484   0.00000  Uiso   1.00
C16    C     0.30364   0.13466   0.45438   0.00000  Uiso   1.00
C17    C     0.02969   0.19868   0.04562   0.00000  Uiso   1.00
C18    C     0.32009   0.14048   0.40803   0.00000  Uiso   1.00
C19    C     0.01324   0.19286   0.09197   0.00000  Uiso   1.00
C20    C     0.24434   0.17395   0.40882   0.00000  Uiso   1.00
C21    C     0.08899   0.15938   0.09118   0.00000  Uiso   1.00
C22    C     0.22411   0.16162   0.45365   0.00000  Uiso   1.00
C23    C     0.10923   0.17172   0.04635   0.00000  Uiso   1.00
C24    C     0.25611   0.14631   0.47773   0.00000  Uiso   1.00
C25    C     0.19555   0.16127   0.04717   0.00000  Uiso   1.00
C26    C     0.07722   0.18702   0.02227   0.00000  Uiso   1.00
C27    C     0.17402   0.16702   0.47611   0.00000  Uiso   1.00
C28    C     0.15931   0.16631   0.02389   0.00000  Uiso   1.00
C29    C     0.13779   0.17207   0.45283   0.00000  Uiso   1.00
C30    C     0.24140   0.14662   0.02467   0.00000  Uiso   1.00
C31    C     0.09193   0.18672   0.47533   0.00000  Uiso   1.00
C32    C     0.29094   0.02116   0.24954   0.00000  Uiso   1.00
C33    C     0.04239   0.31218   0.25046   0.00000  Uiso   1.00
C34    C     0.29101   0.31192   0.24948   0.00000  Uiso   1.00
Cu35   Cu    0.04689   0.16667   0.25000   0.00000  Uiso   1.00
Cu36   Cu    0.28645   0.16666   0.25000   0.00000  Uiso   1.00
F37    F     0.27342   0.13754   0.04870   0.00000  Uiso   1.00
F38    F     0.13336   0.22454   0.20177   0.00000  Uiso   1.00
F39    F     0.05992   0.19579   0.45130   0.00000  Uiso   1.00
F40    F     0.11187   0.13098   0.11054   0.00000  Uiso   1.00
F41    F     0.22147   0.20235   0.38946   0.00000  Uiso   1.00
F42    F     0.30185   0.20676   0.11421   0.00000  Uiso   1.00
F43    F     0.03148   0.12658   0.38579   0.00000  Uiso   1.00
F44    F     0.00077   0.11725   0.47606   0.00000  Uiso   1.00
F45    F     0.33256   0.21608   0.02394   0.00000  Uiso   1.00
F46    F     0.19998   0.10879   0.29823   0.00000  Uiso   1.00
H47    H     0.25781   0.03706   0.24915   0.00000  Uiso   1.00
H48    H     0.07552   0.29628   0.25085   0.00000  Uiso   1.00
H49    H     0.25792   0.29581   0.24905   0.00000  Uiso   1.00
H50    H     0.07542   0.03752   0.25095   0.00000  Uiso   1.00
H51    H     0.11014   0.11498   0.29342   0.00000  Uiso   1.00
H52    H     0.22319   0.21835   0.20658   0.00000  Uiso   1.00
N53    N     0.11736   0.16668   0.24999   0.00000  Uiso   1.00
N54    N     0.21597   0.16666   0.25001   0.00000  Uiso   1.00
O55    O     0.03958   0.10655   0.25000   0.00000  Uiso   1.00
O56    O     0.29375   0.22678   0.25000   0.00000  Uiso   1.00
O57    O     0.29372   0.10654   0.25001   0.00000  Uiso   1.00
O58    O     0.03961   0.22679   0.25000   0.00000  Uiso   1.00
O59    O     0.01852   0.16668   0.31492   0.00000  Uiso   1.00
O60    O     0.31481   0.16666   0.18509   0.00000  Uiso   1.00
O61    O     0.27267   0.16667   0.31492   0.00000  Uiso   1.00
O62    O     0.06067   0.16667   0.18508   0.00000  Uiso   1.00
Br63   Br    0.52384   0.18446   0.10549   0.00000  Uiso   1.00
Br64   Br    0.47616   0.14888   0.39451   0.00000  Uiso   1.00
C65    C     0.66660   0.08737   0.25004   0.00000  Uiso   1.00
C66    C     0.37565   0.02141   0.25052   0.00000  Uiso   1.00
C67    C     0.33341   0.29059   0.24995   0.00000  Uiso   1.00
C68    C     0.66659   0.04275   0.25005   0.00000  Uiso   1.00
C69    C     0.51752   0.13782   0.27399   0.00000  Uiso   1.00
C70    C     0.48248   0.19551   0.22601   0.00000  Uiso   1.00
C71    C     0.46796   0.13793   0.27403   0.00000  Uiso   1.00
C72    C     0.53204   0.19541   0.22597   0.00000  Uiso   1.00
C73    C     0.63936   0.16587   0.33611   0.00000  Uiso   1.00
C74    C     0.36064   0.16746   0.16389   0.00000  Uiso   1.00
C75    C     0.62414   0.16101   0.38516   0.00000  Uiso   1.00
C76    C     0.33340   0.24597   0.24996   0.00000  Uiso   1.00
C77    C     0.37586   0.17232   0.11484   0.00000  Uiso   1.00
C78    C     0.63698   0.13466   0.45438   0.00000  Uiso   1.00
C79    C     0.36302   0.19868   0.04562   0.00000  Uiso   1.00
C80    C     0.65343   0.14048   0.40803   0.00000  Uiso   1.00
C81    C     0.34657   0.19286   0.09197   0.00000  Uiso   1.00
C82    C     0.57768   0.17395   0.40882   0.00000  Uiso   1.00
C83    C     0.42232   0.15938   0.09118   0.00000  Uiso   1.00
C84    C     0.55744   0.16162   0.45365   0.00000  Uiso   1.00
C85    C     0.44256   0.17172   0.04635   0.00000  Uiso   1.00
C86    C     0.58945   0.14631   0.47773   0.00000  Uiso   1.00
C87    C     0.52888   0.16127   0.04717   0.00000  Uiso   1.00
C88    C     0.41055   0.18702   0.02227   0.00000  Uiso   1.00
C89    C     0.50736   0.16702   0.47611   0.00000  Uiso   1.00
C90    C     0.49264   0.16631   0.02389   0.00000  Uiso   1.00
C91    C     0.47112   0.17207   0.45283   0.00000  Uiso   1.00
C92    C     0.57474   0.14662   0.02467   0.00000  Uiso   1.00
C93    C     0.42526   0.18672   0.47533   0.00000  Uiso   1.00
C94    C     0.62427   0.02116   0.24954   0.00000  Uiso   1.00
C95    C     0.37573   0.31218   0.25046   0.00000  Uiso   1.00
C96    C     0.62435   0.31192   0.24948   0.00000  Uiso   1.00
Cu97   Cu    0.38022   0.16667   0.25000   0.00000  Uiso   1.00
Cu98   Cu    0.61978   0.16666   0.25000   0.00000  Uiso   1.00
F99    F     0.60675   0.13754   0.04870   0.00000  Uiso   1.00
F100   F     0.46669   0.22454   0.20177   0.00000  Uiso   1.00
F101   F     0.39325   0.19579   0.45130   0.00000  Uiso   1.00
F102   F     0.44520   0.13098   0.11054   0.00000  Uiso   1.00
F103   F     0.55480   0.20235   0.38946   0.00000  Uiso   1.00
F104   F     0.63518   0.20676   0.11421   0.00000  Uiso   1.00
F105   F     0.36482   0.12658   0.38579   0.00000  Uiso   1.00
F106   F     0.33411   0.11725   0.47606   0.00000  Uiso   1.00
F107   F     0.66589   0.21608   0.02394   0.00000  Uiso   1.00
F108   F     0.53331   0.10879   0.29823   0.00000  Uiso   1.00
H109   H     0.59115   0.03706   0.24915   0.00000  Uiso   1.00
H110   H     0.40885   0.29628   0.25085   0.00000  Uiso   1.00
H111   H     0.59125   0.29581   0.24905   0.00000  Uiso   1.00
H112   H     0.40875   0.03752   0.25095   0.00000  Uiso   1.00
H113   H     0.44347   0.11498   0.29342   0.00000  Uiso   1.00
H114   H     0.55653   0.21835   0.20658   0.00000  Uiso   1.00
N115   N     0.45069   0.16668   0.24999   0.00000  Uiso   1.00
N116   N     0.54931   0.16666   0.25001   0.00000  Uiso   1.00
O117   O     0.37291   0.10655   0.25000   0.00000  Uiso   1.00
O118   O     0.62709   0.22678   0.25000   0.00000  Uiso   1.00
O119   O     0.62706   0.10654   0.25001   0.00000  Uiso   1.00
O120   O     0.37294   0.22679   0.25000   0.00000  Uiso   1.00
O121   O     0.35186   0.16668   0.31492   0.00000  Uiso   1.00
O122   O     0.64814   0.16666   0.18509   0.00000  Uiso   1.00
O123   O     0.60600   0.16667   0.31492   0.00000  Uiso   1.00
O124   O     0.39400   0.16667   0.18508   0.00000  Uiso   1.00
Br125  Br    0.85718   0.18446   0.10549   0.00000  Uiso   1.00
Br126  Br    0.80949   0.14888   0.39451   0.00000  Uiso   1.00
C127   C     0.99993   0.08737   0.25004   0.00000  Uiso   1.00
C128   C     0.70899   0.02141   0.25052   0.00000  Uiso   1.00
C129   C     0.66674   0.29059   0.24995   0.00000  Uiso   1.00
C130   C     0.99993   0.04275   0.25005   0.00000  Uiso   1.00
C131   C     0.85086   0.13782   0.27399   0.00000  Uiso   1.00
C132   C     0.81581   0.19551   0.22601   0.00000  Uiso   1.00
C133   C     0.80130   0.13793   0.27403   0.00000  Uiso   1.00
C134   C     0.86537   0.19541   0.22597   0.00000  Uiso   1.00
C135   C     0.97269   0.16587   0.33611   0.00000  Uiso   1.00
C136   C     0.69398   0.16746   0.16389   0.00000  Uiso   1.00
C137   C     0.95748   0.16101   0.38516   0.00000  Uiso   1.00
C138   C     0.66673   0.24597   0.24996   0.00000  Uiso   1.00
C139   C     0.70919   0.17232   0.11484   0.00000  Uiso   1.00
C140   C     0.97031   0.13466   0.45438   0.00000  Uiso   1.00
C141   C     0.69636   0.19868   0.04562   0.00000  Uiso   1.00
C142   C     0.98676   0.14048   0.40803   0.00000  Uiso   1.00
C143   C     0.67991   0.19286   0.09197   0.00000  Uiso   1.00
C144   C     0.91101   0.17395   0.40882   0.00000  Uiso   1.00
C145   C     0.75566   0.15938   0.09118   0.00000  Uiso   1.00
C146   C     0.89077   0.16162   0.45365   0.00000  Uiso   1.00
C147   C     0.77589   0.17172   0.04635   0.00000  Uiso   1.00
C148   C     0.92278   0.14631   0.47773   0.00000  Uiso   1.00
C149   C     0.86221   0.16127   0.04717   0.00000  Uiso   1.00
C150   C     0.74389   0.18702   0.02227   0.00000  Uiso   1.00
C151   C     0.84069   0.16702   0.47611   0.00000  Uiso   1.00
C152   C     0.82598   0.16631   0.02389   0.00000  Uiso   1.00
C153   C     0.80445   0.17207   0.45283   0.00000  Uiso   1.00
C154   C     0.90807   0.14662   0.02467   0.00000  Uiso   1.00
C155   C     0.75860   0.18672   0.47533   0.00000  Uiso   1.00
C156   C     0.95761   0.02116   0.24954   0.00000  Uiso   1.00
C157   C     0.70906   0.31218   0.25046   0.00000  Uiso   1.00
C158   C     0.95768   0.31192   0.24948   0.00000  Uiso   1.00
Cu159  Cu    0.71355   0.16667   0.25000   0.00000  Uiso   1.00
Cu160  Cu    0.95311   0.16666   0.25000   0.00000  Uiso   1.00
F161   F     0.94008   0.13754   0.04870   0.00000  Uiso   1.00
F162   F     0.80002   0.22454   0.20177   0.00000  Uiso   1.00
F163   F     0.72658   0.19579   0.45130   0.00000  Uiso   1.00
F164   F     0.77853   0.13098   0.11054   0.00000  Uiso   1.00
F165   F     0.88813   0.20235   0.38946   0.00000  Uiso   1.00
F166   F     0.96852   0.20676   0.11421   0.00000  Uiso   1.00
F167   F     0.69815   0.12658   0.38579   0.00000  Uiso   1.00
F168   F     0.66744   0.11725   0.47606   0.00000  Uiso   1.00
F169   F     0.99923   0.21608   0.02394   0.00000  Uiso   1.00
F170   F     0.86664   0.10879   0.29823   0.00000  Uiso   1.00
H171   H     0.92448   0.03706   0.24915   0.00000  Uiso   1.00
H172   H     0.74219   0.29628   0.25085   0.00000  Uiso   1.00
H173   H     0.92458   0.29581   0.24905   0.00000  Uiso   1.00
H174   H     0.74208   0.03752   0.25095   0.00000  Uiso   1.00
H175   H     0.77681   0.11498   0.29342   0.00000  Uiso   1.00
H176   H     0.88986   0.21835   0.20658   0.00000  Uiso   1.00
N177   N     0.78403   0.16668   0.24999   0.00000  Uiso   1.00
N178   N     0.88264   0.16666   0.25001   0.00000  Uiso   1.00
O179   O     0.70625   0.10655   0.25000   0.00000  Uiso   1.00
O180   O     0.96042   0.22678   0.25000   0.00000  Uiso   1.00
O181   O     0.96039   0.10654   0.25001   0.00000  Uiso   1.00
O182   O     0.70628   0.22679   0.25000   0.00000  Uiso   1.00
O183   O     0.68519   0.16668   0.31492   0.00000  Uiso   1.00
O184   O     0.98148   0.16666   0.18509   0.00000  Uiso   1.00
O185   O     0.93933   0.16667   0.31492   0.00000  Uiso   1.00
O186   O     0.72733   0.16667   0.18508   0.00000  Uiso   1.00
Br187  Br    0.19051   0.51779   0.10549   0.00000  Uiso   1.00
Br188  Br    0.14282   0.48221   0.39451   0.00000  Uiso   1.00
C189   C     0.33327   0.42070   0.25004   0.00000  Uiso   1.00
C190   C     0.04232   0.35475   0.25052   0.00000  Uiso   1.00
C191   C     0.00007   0.62392   0.24995   0.00000  Uiso   1.00
C192   C     0.33326   0.37608   0.25005   0.00000  Uiso   1.00
C193   C     0.18419   0.47115   0.27399   0.00000  Uiso   1.00
C194   C     0.14914   0.52885   0.22601   0.00000  Uiso   1.00
C195   C     0.13463   0.47126   0.27403   0.00000  Uiso   1.00
C196   C     0.19870   0.52874   0.22597   0.00000  Uiso   1.00
C197   C     0.30602   0.49921   0.33611   0.00000  Uiso   1.00
C198   C     0.02731   0.50079   0.16389   0.00000  Uiso   1.00
C199   C     0.29081   0.49435   0.38516   0.00000  Uiso   1.00
C200   C     0.00007   0.57930   0.24996   0.00000  Uiso   1.00
C201   C     0.04252   0.50565   0.11484   0.00000  Uiso   1.00
C202   C     0.30364   0.46799   0.45438   0.00000  Uiso   1.00
C203   C     0.02969   0.53201   0.04562   0.00000  Uiso   1.00
C204   C     0.32009   0.47381   0.40803   0.00000  Uiso   1.00
C205   C     0.01324   0.52619   0.09197   0.00000  Uiso   1.00
C206   C     0.24434   0.50729   0.40882   0.00000  Uiso   1.00
C207   C     0.08899   0.49271   0.09118   0.00000  Uiso   1.00
C208   C     0.22411   0.49495   0.45365   0.00000  Uiso   1.00
C209   C     0.10923   0.50505   0.04635   0.00000  Uiso   1.00
C210   C     0.25611   0.47965   0.47773   0.00000  Uiso   1.00
C211   C     0.19555   0.49460   0.04717   0.00000  Uiso   1.00
C212   C     0.07722   0.52035   0.02227   0.00000  Uiso   1.00
C213   C     0.17402   0.50036   0.47611   0.00000  Uiso   1.00
C214   C     0.15931   0.49964   0.02389   0.00000  Uiso   1.00
C215   C     0.13779   0.50540   0.45283   0.00000  Uiso   1.00
C216   C     0.24140   0.47995   0.02467   0.00000  Uiso   1.00
C217   C     0.09193   0.52005   0.47533   0.00000  Uiso   1.00
C218   C     0.29094   0.35449   0.24954   0.00000  Uiso   1.00
C219   C     0.04239   0.64551   0.25046   0.00000  Uiso   1.00
C220   C     0.29101   0.64525   0.24948   0.00000  Uiso   1.00
Cu221  Cu    0.04689   0.50001   0.25000   0.00000  Uiso   1.00
Cu222  Cu    0.28645   0.49999   0.25000   0.00000  Uiso   1.00
F223   F     0.27342   0.47088   0.04870   0.00000  Uiso   1.00
F224   F     0.13336   0.55788   0.20177   0.00000  Uiso   1.00
F225   F     0.05992   0.52912   0.45130   0.00000  Uiso   1.00
F226   F     0.11187   0.46432   0.11054   0.00000  Uiso   1.00
F227   F     0.22147   0.53568   0.38946   0.00000  Uiso   1.00
F228   F     0.30185   0.54009   0.11421   0.00000  Uiso   1.00
F229   F     0.03148   0.45991   0.38579   0.00000  Uiso   1.00
F230   F     0.00077   0.45058   0.47606   0.00000  Uiso   1.00
F231   F     0.33256   0.54942   0.02394   0.00000  Uiso   1.00
F232   F     0.19998   0.44212   0.29823   0.00000  Uiso   1.00
H233   H     0.25781   0.37039   0.24915   0.00000  Uiso   1.00
H234   H     0.07552   0.62961   0.25085   0.00000  Uiso   1.00
H235   H     0.25792   0.62914   0.24905   0.00000  Uiso   1.00
H236   H     0.07542   0.37086   0.25095   0.00000  Uiso   1.00
H237   H     0.11014   0.44831   0.29342   0.00000  Uiso   1.00
H238   H     0.22319   0.55169   0.20658   0.00000  Uiso   1.00
N239   N     0.11736   0.50001   0.24999   0.00000  Uiso   1.00
N240   N     0.21597   0.49999   0.25001   0.00000  Uiso   1.00
O241   O     0.03958   0.43989   0.25000   0.00000  Uiso   1.00
O242   O     0.29375   0.56011   0.25000   0.00000  Uiso   1.00
O243   O     0.29372   0.43988   0.25001   0.00000  Uiso   1.00
O244   O     0.03961   0.56012   0.25000   0.00000  Uiso   1.00
O245   O     0.01852   0.50001   0.31492   0.00000  Uiso   1.00
O246   O     0.31481   0.49999   0.18509   0.00000  Uiso   1.00
O247   O     0.27267   0.50000   0.31492   0.00000  Uiso   1.00
O248   O     0.06067   0.50000   0.18508   0.00000  Uiso   1.00
Br249  Br    0.52384   0.51779   0.10549   0.00000  Uiso   1.00
Br250  Br    0.47616   0.48221   0.39451   0.00000  Uiso   1.00
C251   C     0.66660   0.42070   0.25004   0.00000  Uiso   1.00
C252   C     0.37565   0.35475   0.25052   0.00000  Uiso   1.00
C253   C     0.33341   0.62392   0.24995   0.00000  Uiso   1.00
C254   C     0.66659   0.37608   0.25005   0.00000  Uiso   1.00
C255   C     0.51752   0.47115   0.27399   0.00000  Uiso   1.00
C256   C     0.48248   0.52885   0.22601   0.00000  Uiso   1.00
C257   C     0.46796   0.47126   0.27403   0.00000  Uiso   1.00
C258   C     0.53204   0.52874   0.22597   0.00000  Uiso   1.00
C259   C     0.63936   0.49921   0.33611   0.00000  Uiso   1.00
C260   C     0.36064   0.50079   0.16389   0.00000  Uiso   1.00
C261   C     0.62414   0.49435   0.38516   0.00000  Uiso   1.00
C262   C     0.33340   0.57930   0.24996   0.00000  Uiso   1.00
C263   C     0.37586   0.50565   0.11484   0.00000  Uiso   1.00
C264   C     0.63698   0.46799   0.45438   0.00000  Uiso   1.00
C265   C     0.36302   0.53201   0.04562   0.00000  Uiso   1.00
C266   C     0.65343   0.47381   0.40803   0.00000  Uiso   1.00
C267   C     0.34657   0.52619   0.09197   0.00000  Uiso   1.00
C268   C     0.57768   0.50729   0.40882   0.00000  Uiso   1.00
C269   C     0.42232   0.49271   0.09118   0.00000  Uiso   1.00
C270   C     0.55744   0.49495   0.45365   0.00000  Uiso   1.00
C271   C     0.44256   0.50505   0.04635   0.00000  Uiso   1.00
C272   C     0.58945   0.47965   0.47773   0.00000  Uiso   1.00
C273   C     0.52888   0.49460   0.04717   0.00000  Uiso   1.00
C274   C     0.41055   0.52035   0.02227   0.00000  Uiso   1.00
C275   C     0.50736   0.50036   0.47611   0.00000  Uiso   1.00
C276   C     0.49264   0.49964   0.02389   0.00000  Uiso   1.00
C277   C     0.47112   0.50540   0.45283   0.00000  Uiso   1.00
C278   C     0.57474   0.47995   0.02467   0.00000  Uiso   1.00
C279   C     0.42526   0.52005   0.47533   0.00000  Uiso   1.00
C280   C     0.62427   0.35449   0.24954   0.00000  Uiso   1.00
C281   C     0.37573   0.64551   0.25046   0.00000  Uiso   1.00
C282   C     0.62435   0.64525   0.24948   0.00000  Uiso   1.00
Cu283  Cu    0.38022   0.50001   0.25000   0.00000  Uiso   1.00
Cu284  Cu    0.61978   0.49999   0.25000   0.00000  Uiso   1.00
F285   F     0.60675   0.47088   0.04870   0.00000  Uiso   1.00
F286   F     0.46669   0.55788   0.20177   0.00000  Uiso   1.00
F287   F     0.39325   0.52912   0.45130   0.00000  Uiso   1.00
F288   F     0.44520   0.46432   0.11054   0.00000  Uiso   1.00
F289   F     0.55480   0.53568   0.38946   0.00000  Uiso   1.00
F290   F     0.63518   0.54009   0.11421   0.00000  Uiso   1.00
F291   F     0.36482   0.45991   0.38579   0.00000  Uiso   1.00
F292   F     0.33411   0.45058   0.47606   0.00000  Uiso   1.00
F293   F     0.66589   0.54942   0.02394   0.00000  Uiso   1.00
F294   F     0.53331   0.44212   0.29823   0.00000  Uiso   1.00
H295   H     0.59115   0.37039   0.24915   0.00000  Uiso   1.00
H296   H     0.40885   0.62961   0.25085   0.00000  Uiso   1.00
H297   H     0.59125   0.62914   0.24905   0.00000  Uiso   1.00
H298   H     0.40875   0.37086   0.25095   0.00000  Uiso   1.00
H299   H     0.44347   0.44831   0.29342   0.00000  Uiso   1.00
H300   H     0.55653   0.55169   0.20658   0.00000  Uiso   1.00
N301   N     0.45069   0.50001   0.24999   0.00000  Uiso   1.00
N302   N     0.54931   0.49999   0.25001   0.00000  Uiso   1.00
O303   O     0.37291   0.43989   0.25000   0.00000  Uiso   1.00
O304   O     0.62709   0.56011   0.25000   0.00000  Uiso   1.00
O305   O     0.62706   0.43988   0.25001   0.00000  Uiso   1.00
O306   O     0.37294   0.56012   0.25000   0.00000  Uiso   1.00
O307   O     0.35186   0.50001   0.31492   0.00000  Uiso   1.00
O308   O     0.64814   0.49999   0.18509   0.00000  Uiso   1.00
O309   O     0.60600   0.50000   0.31492   0.00000  Uiso   1.00
O310   O     0.39400   0.50000   0.18508   0.00000  Uiso   1.00
Br311  Br    0.85718   0.51779   0.10549   0.00000  Uiso   1.00
Br312  Br    0.80949   0.48221   0.39451   0.00000  Uiso   1.00
C313   C     0.99993   0.42070   0.25004   0.00000  Uiso   1.00
C314   C     0.70899   0.35475   0.25052   0.00000  Uiso   1.00
C315   C     0.66674   0.62392   0.24995   0.00000  Uiso   1.00
C316   C     0.99993   0.37608   0.25005   0.00000  Uiso   1.00
C317   C     0.85086   0.47115   0.27399   0.00000  Uiso   1.00
C318   C     0.81581   0.52885   0.22601   0.00000  Uiso   1.00
C319   C     0.80130   0.47126   0.27403   0.00000  Uiso   1.00
C320   C     0.86537   0.52874   0.22597   0.00000  Uiso   1.00
C321   C     0.97269   0.49921   0.33611   0.00000  Uiso   1.00
C322   C     0.69398   0.50079   0.16389   0.00000  Uiso   1.00
C323   C     0.95748   0.49435   0.38516   0.00000  Uiso   1.00
C324   C     0.66673   0.57930   0.24996   0.00000  Uiso   1.00
C325   C     0.70919   0.50565   0.11484   0.00000  Uiso   1.00
C326   C     0.97031   0.46799   0.45438   0.00000  Uiso   1.00
C327   C     0.69636   0.53201   0.04562   0.00000  Uiso   1.00
C328   C     0.98676   0.47381   0.40803   0.00000  Uiso   1.00
C329   C     0.67991   0.52619   0.09197   0.00000  Uiso   1.00
C330   C     0.91101   0.50729   0.40882   0.00000  Uiso   1.00
C331   C     0.75566   0.49271   0.09118   0.00000  Uiso   1.00
C332   C     0.89077   0.49495   0.45365   0.00000  Uiso   1.00
C333   C     0.77589   0.50505   0.04635   0.00000  Uiso   1.00
C334   C     0.92278   0.47965   0.47773   0.00000  Uiso   1.00
C335   C     0.86221   0.49460   0.04717   0.00000  Uiso   1.00
C336   C     0.74389   0.52035   0.02227   0.00000  Uiso   1.00
C337   C     0.84069   0.50036   0.47611   0.00000  Uiso   1.00
C338   C     0.82598   0.49964   0.02389   0.00000  Uiso   1.00
C339   C     0.80445   0.50540   0.45283   0.00000  Uiso   1.00
C340   C     0.90807   0.47995   0.02467   0.00000  Uiso   1.00
C341   C     0.75860   0.52005   0.47533   0.00000  Uiso   1.00
C342   C     0.95761   0.35449   0.24954   0.00000  Uiso   1.00
C343   C     0.70906   0.64551   0.25046   0.00000  Uiso   1.00
C344   C     0.95768   0.64525   0.24948   0.00000  Uiso   1.00
Cu345  Cu    0.71355   0.50001   0.25000   0.00000  Uiso   1.00
Cu346  Cu    0.95311   0.49999   0.25000   0.00000  Uiso   1.00
F347   F     0.94008   0.47088   0.04870   0.00000  Uiso   1.00
F348   F     0.80002   0.55788   0.20177   0.00000  Uiso   1.00
F349   F     0.72658   0.52912   0.45130   0.00000  Uiso   1.00
F350   F     0.77853   0.46432   0.11054   0.00000  Uiso   1.00
F351   F     0.88813   0.53568   0.38946   0.00000  Uiso   1.00
F352   F     0.96852   0.54009   0.11421   0.00000  Uiso   1.00
F353   F     0.69815   0.45991   0.38579   0.00000  Uiso   1.00
F354   F     0.66744   0.45058   0.47606   0.00000  Uiso   1.00
F355   F     0.99923   0.54942   0.02394   0.00000  Uiso   1.00
F356   F     0.86664   0.44212   0.29823   0.00000  Uiso   1.00
H357   H     0.92448   0.37039   0.24915   0.00000  Uiso   1.00
H358   H     0.74219   0.62961   0.25085   0.00000  Uiso   1.00
H359   H     0.92458   0.62914   0.24905   0.00000  Uiso   1.00
H360   H     0.74208   0.37086   0.25095   0.00000  Uiso   1.00
H361   H     0.77681   0.44831   0.29342   0.00000  Uiso   1.00
H362   H     0.88986   0.55169   0.20658   0.00000  Uiso   1.00
N363   N     0.78403   0.50001   0.24999   0.00000  Uiso   1.00
N364   N     0.88264   0.49999   0.25001   0.00000  Uiso   1.00
O365   O     0.70625   0.43989   0.25000   0.00000  Uiso   1.00
O366   O     0.96042   0.56011   0.25000   0.00000  Uiso   1.00
O367   O     0.96039   0.43988   0.25001   0.00000  Uiso   1.00
O368   O     0.70628   0.56012   0.25000   0.00000  Uiso   1.00
O369   O     0.68519   0.50001   0.31492   0.00000  Uiso   1.00
O370   O     0.98148   0.49999   0.18509   0.00000  Uiso   1.00
O371   O     0.93933   0.50000   0.31492   0.00000  Uiso   1.00
O372   O     0.72733   0.50000   0.18508   0.00000  Uiso   1.00
Br373  Br    0.19051   0.85112   0.10549   0.00000  Uiso   1.00
Br374  Br    0.14282   0.81554   0.39451   0.00000  Uiso   1.00
C375   C     0.33327   0.75403   0.25004   0.00000  Uiso   1.00
C376   C     0.04232   0.68808   0.25052   0.00000  Uiso   1.00
C377   C     0.00007   0.95725   0.24995   0.00000  Uiso   1.00
C378   C     0.33326   0.70941   0.25005   0.00000  Uiso   1.00
C379   C     0.18419   0.80449   0.27399   0.00000  Uiso   1.00
C380   C     0.14914   0.86218   0.22601   0.00000  Uiso   1.00
C381   C     0.13463   0.80459   0.27403   0.00000  Uiso   1.00
C382   C     0.19870   0.86208   0.22597   0.00000  Uiso   1.00
C383   C     0.30602   0.83254   0.33611   0.00000  Uiso   1.00
C384   C     0.02731   0.83413   0.16389   0.00000  Uiso   1.00
C385   C     0.29081   0.82768   0.38516   0.00000  Uiso   1.00
C386   C     0.00007   0.91263   0.24996   0.00000  Uiso   1.00
C387   C     0.04252   0.83899   0.11484   0.00000  Uiso   1.00
C388   C     0.30364   0.80132   0.45438   0.00000  Uiso   1.00
C389   C     0.02969   0.86534   0.04562   0.00000  Uiso   1.00
C390   C     0.32009   0.80714   0.40803   0.00000  Uiso   1.00
C391   C     0.01324   0.85952   0.09197   0.00000  Uiso   1.00
C392   C     0.24434   0.84062   0.40882   0.00000  Uiso   1.00
C393   C     0.08899   0.82605   0.09118   0.00000  Uiso   1.00
C394   C     0.22411   0.82828   0.45365   0.00000  Uiso   1.00
C395   C     0.10923   0.83838   0.04635   0.00000  Uiso   1.00
C396   C     0.25611   0.81298   0.47773   0.00000  Uiso   1.00
C397   C     0.19555   0.82793   0.04717   0.00000  Uiso   1.00
C398   C     0.07722   0.85369   0.02227   0.00000  Uiso   1.00
C399   C     0.17402   0.83369   0.47611   0.00000  Uiso   1.00
C400   C     0.15931   0.83298   0.02389   0.00000  Uiso   1.00
C401   C     0.13779   0.83873   0.45283   0.00000  Uiso   1.00
C402   C     0.24140   0.81328   0.02467   0.00000  Uiso   1.00
C403   C     0.09193   0.85338   0.47533   0.00000  Uiso   1.00
C404   C     0.29094   0.68782   0.24954   0.00000  Uiso   1.00
C405   C     0.04239   0.97884   0.25046   0.00000  Uiso   1.00
C406   C     0.29101   0.97859   0.24948   0.00000  Uiso   1.00
Cu407  Cu    0.04689   0.83334   0.25000   0.00000  Uiso   1.00
Cu408  Cu    0.28645   0.83333   0.25000   0.00000  Uiso   1.00
F409   F     0.27342   0.80421   0.04870   0.00000  Uiso   1.00
F410   F     0.13336   0.89121   0.20177   0.00000  Uiso   1.00
F411   F     0.05992   0.86246   0.45130   0.00000  Uiso   1.00
F412   F     0.11187   0.79765   0.11054   0.00000  Uiso   1.00
F413   F     0.22147   0.86902   0.38946   0.00000  Uiso   1.00
F414   F     0.30185   0.87342   0.11421   0.00000  Uiso   1.00
F415   F     0.03148   0.79324   0.38579   0.00000  Uiso   1.00
F416   F     0.00077   0.78392   0.47606   0.00000  Uiso   1.00
F417   F     0.33256   0.88275   0.02394   0.00000  Uiso   1.00
F418   F     0.19998   0.77546   0.29823   0.00000  Uiso   1.00
H419   H     0.25781   0.70372   0.24915   0.00000  Uiso   1.00
H420   H     0.07552   0.96294   0.25085   0.00000  Uiso   1.00
H421   H     0.25792   0.96248   0.24905   0.00000  Uiso   1.00
H422   H     0.07542   0.70419   0.25095   0.00000  Uiso   1.00
H423   H     0.11014   0.78165   0.29342   0.00000  Uiso   1.00
H424   H     0.22319   0.88502   0.20658   0.00000  Uiso   1.00
N425   N     0.11736   0.83334   0.24999   0.00000  Uiso   1.00
N426   N     0.21597   0.83332   0.25001   0.00000  Uiso   1.00
O427   O     0.03958   0.77322   0.25000   0.00000  Uiso   1.00
O428   O     0.29375   0.89345   0.25000   0.00000  Uiso   1.00
O429   O     0.29372   0.77321   0.25001   0.00000  Uiso   1.00
O430   O     0.03961   0.89346   0.25000   0.00000  Uiso   1.00
O431   O     0.01852   0.83334   0.31492   0.00000  Uiso   1.00
O432   O     0.31481   0.83332   0.18509   0.00000  Uiso   1.00
O433   O     0.27267   0.83333   0.31492   0.00000  Uiso   1.00
O434   O     0.06067   0.83333   0.18508   0.00000  Uiso   1.00
Br435  Br    0.52384   0.85112   0.10549   0.00000  Uiso   1.00
Br436  Br    0.47616   0.81554   0.39451   0.00000  Uiso   1.00
C437   C     0.66660   0.75403   0.25004   0.00000  Uiso   1.00
C438   C     0.37565   0.68808   0.25052   0.00000  Uiso   1.00
C439   C     0.33341   0.95725   0.24995   0.00000  Uiso   1.00
C440   C     0.66659   0.70941   0.25005   0.00000  Uiso   1.00
C441   C     0.51752   0.80449   0.27399   0.00000  Uiso   1.00
C442   C     0.48248   0.86218   0.22601   0.00000  Uiso   1.00
C443   C     0.46796   0.80459   0.27403   0.00000  Uiso   1.00
C444   C     0.53204   0.86208   0.22597   0.00000  Uiso   1.00
C445   C     0.63936   0.83254   0.33611   0.00000  Uiso   1.00
C446   C     0.36064   0.83413   0.16389   0.00000  Uiso   1.00
C447   C     0.62414   0.82768   0.38516   0.00000  Uiso   1.00
C448   C     0.33340   0.91263   0.24996   0.00000  Uiso   1.00
C449   C     0.37586   0.83899   0.11484   0.00000  Uiso   1.00
C450   C     0.63698   0.80132   0.45438   0.00000  Uiso   1.00
C451   C     0.36302   0.86534   0.04562   0.00000  Uiso   1.00
C452   C     0.65343   0.80714   0.40803   0.00000  Uiso   1.00
C453   C     0.34657   0.85952   0.09197   0.00000  Uiso   1.00
C454   C     0.57768   0.84062   0.40882   0.00000  Uiso   1.00
C455   C     0.42232   0.82605   0.09118   0.00000  Uiso   1.00
C456   C     0.55744   0.82828   0.45365   0.00000  Uiso   1.00
C457   C     0.44256   0.83838   0.04635   0.00000  Uiso   1.00
C458   C     0.58945   0.81298   0.47773   0.00000  Uiso   1.00
C459   C     0.52888   0.82793   0.04717   0.00000  Uiso   1.00
C460   C     0.41055   0.85369   0.02227   0.00000  Uiso   1.00
C461   C     0.50736   0.83369   0.47611   0.00000  Uiso   1.00
C462   C     0.49264   0.83298   0.02389   0.00000  Uiso   1.00
C463   C     0.47112   0.83873   0.45283   0.00000  Uiso   1.00
C464   C     0.57474   0.81328   0.02467   0.00000  Uiso   1.00
C465   C     0.42526   0.85338   0.47533   0.00000  Uiso   1.00
C466   C     0.62427   0.68782   0.24954   0.00000  Uiso   1.00
C467   C     0.37573   0.97884   0.25046   0.00000  Uiso   1.00
C468   C     0.62435   0.97859   0.24948   0.00000  Uiso   1.00
Cu469  Cu    0.38022   0.83334   0.25000   0.00000  Uiso   1.00
Cu470  Cu    0.61978   0.83333   0.25000   0.00000  Uiso   1.00
F471   F     0.60675   0.80421   0.04870   0.00000  Uiso   1.00
F472   F     0.46669   0.89121   0.20177   0.00000  Uiso   1.00
F473   F     0.39325   0.86246   0.45130   0.00000  Uiso   1.00
F474   F     0.44520   0.79765   0.11054   0.00000  Uiso   1.00
F475   F     0.55480   0.86902   0.38946   0.00000  Uiso   1.00
F476   F     0.63518   0.87342   0.11421   0.00000  Uiso   1.00
F477   F     0.36482   0.79324   0.38579   0.00000  Uiso   1.00
F478   F     0.33411   0.78392   0.47606   0.00000  Uiso   1.00
F479   F     0.66589   0.88275   0.02394   0.00000  Uiso   1.00
F480   F     0.53331   0.77546   0.29823   0.00000  Uiso   1.00
H481   H     0.59115   0.70372   0.24915   0.00000  Uiso   1.00
H482   H     0.40885   0.96294   0.25085   0.00000  Uiso   1.00
H483   H     0.59125   0.96248   0.24905   0.00000  Uiso   1.00
H484   H     0.40875   0.70419   0.25095   0.00000  Uiso   1.00
H485   H     0.44347   0.78165   0.29342   0.00000  Uiso   1.00
H486   H     0.55653   0.88502   0.20658   0.00000  Uiso   1.00
N487   N     0.45069   0.83334   0.24999   0.00000  Uiso   1.00
N488   N     0.54931   0.83332   0.25001   0.00000  Uiso   1.00
O489   O     0.37291   0.77322   0.25000   0.00000  Uiso   1.00
O490   O     0.62709   0.89345   0.25000   0.00000  Uiso   1.00
O491   O     0.62706   0.77321   0.25001   0.00000  Uiso   1.00
O492   O     0.37294   0.89346   0.25000   0.00000  Uiso   1.00
O493   O     0.35186   0.83334   0.31492   0.00000  Uiso   1.00
O494   O     0.64814   0.83332   0.18509   0.00000  Uiso   1.00
O495   O     0.60600   0.83333   0.31492   0.00000  Uiso   1.00
O496   O     0.39400   0.83333   0.18508   0.00000  Uiso   1.00
Br497  Br    0.85718   0.85112   0.10549   0.00000  Uiso   1.00
Br498  Br    0.80949   0.81554   0.39451   0.00000  Uiso   1.00
C499   C     0.99993   0.75403   0.25004   0.00000  Uiso   1.00
C500   C     0.70899   0.68808   0.25052   0.00000  Uiso   1.00
C501   C     0.66674   0.95725   0.24995   0.00000  Uiso   1.00
C502   C     0.99993   0.70941   0.25005   0.00000  Uiso   1.00
C503   C     0.85086   0.80449   0.27399   0.00000  Uiso   1.00
C504   C     0.81581   0.86218   0.22601   0.00000  Uiso   1.00
C505   C     0.80130   0.80459   0.27403   0.00000  Uiso   1.00
C506   C     0.86537   0.86208   0.22597   0.00000  Uiso   1.00
C507   C     0.97269   0.83254   0.33611   0.00000  Uiso   1.00
C508   C     0.69398   0.83413   0.16389   0.00000  Uiso   1.00
C509   C     0.95748   0.82768   0.38516   0.00000  Uiso   1.00
C510   C     0.66673   0.91263   0.24996   0.00000  Uiso   1.00
C511   C     0.70919   0.83899   0.11484   0.00000  Uiso   1.00
C512   C     0.97031   0.80132   0.45438   0.00000  Uiso   1.00
C513   C     0.69636   0.86534   0.04562   0.00000  Uiso   1.00
C514   C     0.98676   0.80714   0.40803   0.00000  Uiso   1.00
C515   C     0.67991   0.85952   0.09197   0.00000  Uiso   1.00
C516   C     0.91101   0.84062   0.40882   0.00000  Uiso   1.00
C517   C     0.75566   0.82605   0.09118   0.00000  Uiso   1.00
C518   C     0.89077   0.82828   0.45365   0.00000  Uiso   1.00
C519   C     0.77589   0.83838   0.04635   0.00000  Uiso   1.00
C520   C     0.92278   0.81298   0.47773   0.00000  Uiso   1.00
C521   C     0.86221   0.82793   0.04717   0.00000  Uiso   1.00
C522   C     0.74389   0.85369   0.02227   0.00000  Uiso   1.00
C523   C     0.84069   0.83369   0.47611   0.00000  Uiso   1.00
C524   C     0.82598   0.83298   0.02389   0.00000  Uiso   1.00
C525   C     0.80445   0.83873   0.45283   0.00000  Uiso   1.00
C526   C     0.90807   0.81328   0.02467   0.00000  Uiso   1.00
C527   C     0.75860   0.85338   0.47533   0.00000  Uiso   1.00
C528   C     0.95761   0.68782   0.24954   0.00000  Uiso   1.00
C529   C     0.70906   0.97884   0.25046   0.00000  Uiso   1.00
C530   C     0.95768   0.97859   0.24948   0.00000  Uiso   1.00
Cu531  Cu    0.71355   0.83334   0.25000   0.00000  Uiso   1.00
Cu532  Cu    0.95311   0.83333   0.25000   0.00000  Uiso   1.00
F533   F     0.94008   0.80421   0.04870   0.00000  Uiso   1.00
F534   F     0.80002   0.89121   0.20177   0.00000  Uiso   1.00
F535   F     0.72658   0.86246   0.45130   0.00000  Uiso   1.00
F536   F     0.77853   0.79765   0.11054   0.00000  Uiso   1.00
F537   F     0.88813   0.86902   0.38946   0.00000  Uiso   1.00
F538   F     0.96852   0.87342   0.11421   0.00000  Uiso   1.00
F539   F     0.69815   0.79324   0.38579   0.00000  Uiso   1.00
F540   F     0.66744   0.78392   0.47606   0.00000  Uiso   1.00
F541   F     0.99923   0.88275   0.02394   0.00000  Uiso   1.00
F542   F     0.86664   0.77546   0.29823   0.00000  Uiso   1.00
H543   H     0.92448   0.70372   0.24915   0.00000  Uiso   1.00
H544   H     0.74219   0.96294   0.25085   0.00000  Uiso   1.00
H545   H     0.92458   0.96248   0.24905   0.00000  Uiso   1.00
H546   H     0.74208   0.70419   0.25095   0.00000  Uiso   1.00
H547   H     0.77681   0.78165   0.29342   0.00000  Uiso   1.00
H548   H     0.88986   0.88502   0.20658   0.00000  Uiso   1.00
N549   N     0.78403   0.83334   0.24999   0.00000  Uiso   1.00
N550   N     0.88264   0.83332   0.25001   0.00000  Uiso   1.00
O551   O     0.70625   0.77322   0.25000   0.00000  Uiso   1.00
O552   O     0.96042   0.89345   0.25000   0.00000  Uiso   1.00
O553   O     0.96039   0.77321   0.25001   0.00000  Uiso   1.00
O554   O     0.70628   0.89346   0.25000   0.00000  Uiso   1.00
O555   O     0.68519   0.83334   0.31492   0.00000  Uiso   1.00
O556   O     0.98148   0.83332   0.18509   0.00000  Uiso   1.00
O557   O     0.93933   0.83333   0.31492   0.00000  Uiso   1.00
O558   O     0.72733   0.83333   0.18508   0.00000  Uiso   1.00
Br559  Br    0.19051   0.18446   0.60549   0.00000  Uiso   1.00
Br560  Br    0.14282   0.14888   0.89451   0.00000  Uiso   1.00
C561   C     0.33327   0.08737   0.75004   0.00000  Uiso   1.00
C562   C     0.04232   0.02141   0.75052   0.00000  Uiso   1.00
C563   C     0.00007   0.29059   0.74995   0.00000  Uiso   1.00
C564   C     0.33326   0.04275   0.75005   0.00000  Uiso   1.00
C565   C     0.18419   0.13782   0.77399   0.00000  Uiso   1.00
C566   C     0.14914   0.19551   0.72601   0.00000  Uiso   1.00
C567   C     0.13463   0.13793   0.77403   0.00000  Uiso   1.00
C568   C     0.19870   0.19541   0.72597   0.00000  Uiso   1.00
C569   C     0.30602   0.16587   0.83611   0.00000  Uiso   1.00
C570   C     0.02731   0.16746   0.66389   0.00000  Uiso   1.00
C571   C     0.29081   0.16101   0.88516   0.00000  Uiso   1.00
C572   C     0.00007   0.24597   0.74996   0.00000  Uiso   1.00
C573   C     0.04252   0.17232   0.61484   0.00000  Uiso   1.00
C574   C     0.30364   0.13466   0.95438   0.00000  Uiso   1.00
C575   C     0.02969   0.19868   0.54562   0.00000  Uiso   1.00
C576   C     0.32009   0.14048   0.90803   0.00000  Uiso   1.00
C577   C     0.01324   0.19286   0.59197   0.00000  Uiso   1.00
C578   C     0.24434   0.17395   0.90882   0.00000  Uiso   1.00
C579   C     0.08899   0.15938   0.59118   0.00000  Uiso   1.00
C580   C     0.22411   0.16162   0.95365   0.00000  Uiso   1.00
C581   C     0.10923   0.17172   0.54635   0.00000  Uiso   1.00
C582   C     0.25611   0.14631   0.97773   0.00000  Uiso   1.00
C583   C     0.19555   0.16127   0.54717   0.00000  Uiso   1.00
C584   C     0.07722   0.18702   0.52227   0.00000  Uiso   1.00
C585   C     0.17402   0.16702   0.97611   0.00000  Uiso   1.00
C586   C     0.15931   0.16631   0.52389   0.00000  Uiso   1.00
C587   C     0.13779   0.17207   0.95283   0.00000  Uiso   1.00
C588   C     0.24140   0.14662   0.52467   0.00000  Uiso   1.00
C589   C     0.09193   0.18672   0.97533   0.00000  Uiso   1.00
C590   C     0.29094   0.02116   0.74954   0.00000  Uiso   1.00
C591   C     0.04239   0.31218   0.75046   0.00000  Uiso   1.00
C592   C     0.29101   0.31192   0.74948   0.00000  Uiso   1.00
Cu593  Cu    0.04689   0.16667   0.75000   0.00000  Uiso   1.00
Cu594  Cu    0.28645   0.16666   0.75000   0.00000  Uiso   1.00
F595   F     0.27342   0.13754   0.54870   0.00000  Uiso   1.00
F596   F     0.13336   0.22454   0.70177   0.00000  Uiso   1.00
F597   F     0.05992   0.19579   0.95130   0.00000  Uiso   1.00
F598   F     0.11187   0.13098   0.61054   0.00000  Uiso   1.00
F599   F     0.22147   0.20235   0.88946   0.00000  Uiso   1.00
F600   F     0.30185   0.20676   0.61421   0.00000  Uiso   1.00
F601   F     0.03148   0.12658   0.88579   0.00000  Uiso   1.00
F602   F     0.00077   0.11725   0.97606   0.00000  Uiso   1.00
F603   F     0.33256   0.21608   0.52394   0.00000  Uiso   1.00
F604   F     0.19998   0.10879   0.79823   0.00000  Uiso   1.00
H605   H     0.25781   0.03706   0.74915   0.00000  Uiso   1.00
H606   H     0.07552   0.29628   0.75085   0.00000  Uiso   1.00
H607   H     0.25792   0.29581   0.74905   0.00000  Uiso   1.00
H608   H     0.07542   0.03752   0.75095   0.00000  Uiso   1.00
H609   H     0.11014   0.11498   0.79342   0.00000  Uiso   1.00
H610   H     0.22319   0.21835   0.70658   0.00000  Uiso   1.00
N611   N     0.11736   0.16668   0.74999   0.00000  Uiso   1.00
N612   N     0.21597   0.16666   0.75001   0.00000  Uiso   1.00
O613   O     0.03958   0.10655   0.75000   0.00000  Uiso   1.00
O614   O     0.29375   0.22678   0.75000   0.00000  Uiso   1.00
O615   O     0.29372   0.10654   0.75001   0.00000  Uiso   1.00
O616   O     0.03961   0.22679   0.75000   0.00000  Uiso   1.00
O617   O     0.01852   0.16668   0.81492   0.00000  Uiso   1.00
O618   O     0.31481   0.16666   0.68509   0.00000  Uiso   1.00
O619   O     0.27267   0.16667   0.81492   0.00000  Uiso   1.00
O620   O     0.06067   0.16667   0.68508   0.00000  Uiso   1.00
Br621  Br    0.52384   0.18446   0.60549   0.00000  Uiso   1.00
Br622  Br    0.47616   0.14888   0.89451   0.00000  Uiso   1.00
C623   C     0.66660   0.08737   0.75004   0.00000  Uiso   1.00
C624   C     0.37565   0.02141   0.75052   0.00000  Uiso   1.00
C625   C     0.33341   0.29059   0.74995   0.00000  Uiso   1.00
C626   C     0.66659   0.04275   0.75005   0.00000  Uiso   1.00
C627   C     0.51752   0.13782   0.77399   0.00000  Uiso   1.00
C628   C     0.48248   0.19551   0.72601   0.00000  Uiso   1.00
C629   C     0.46796   0.13793   0.77403   0.00000  Uiso   1.00
C630   C     0.53204   0.19541   0.72597   0.00000  Uiso   1.00
C631   C     0.63936   0.16587   0.83611   0.00000  Uiso   1.00
C632   C     0.36064   0.16746   0.66389   0.00000  Uiso   1.00
C633   C     0.62414   0.16101   0.88516   0.00000  Uiso   1.00
C634   C     0.33340   0.24597   0.74996   0.00000  Uiso   1.00
C635   C     0.37586   0.17232   0.61484   0.00000  Uiso   1.00
C636   C     0.63698   0.13466   0.95438   0.00000  Uiso   1.00
C637   C     0.36302   0.19868   0.54562   0.00000  Uiso   1.00
C638   C     0.65343   0.14048   0.90803   0.00000  Uiso   1.00
C639   C     0.34657   0.19286   0.59197   0.00000  Uiso   1.00
C640   C     0.57768   0.17395   0.90882   0.00000  Uiso   1.00
C641   C     0.42232   0.15938   0.59118   0.00000  Uiso   1.00
C642   C     0.55744   0.16162   0.95365   0.00000  Uiso   1.00
C643   C     0.44256   0.17172   0.54635   0.00000  Uiso   1.00
C644   C     0.58945   0.14631   0.97773   0.00000  Uiso   1.00
C645   C     0.52888   0.16127   0.54717   0.00000  Uiso   1.00
C646   C     0.41055   0.18702   0.52227   0.00000  Uiso   1.00
C647   C     0.50736   0.16702   0.97611   0.00000  Uiso   1.00
C648   C     0.49264   0.16631   0.52389   0.00000  Uiso   1.00
C649   C     0.47112   0.17207   0.95283   0.00000  Uiso   1.00
C650   C     0.57474   0.14662   0.52467   0.00000  Uiso   1.00
C651   C     0.42526   0.18672   0.97533   0.00000  Uiso   1.00
C652   C     0.62427   0.02116   0.74954   0.00000  Uiso   1.00
C653   C     0.37573   0.31218   0.75046   0.00000  Uiso   1.00
C654   C     0.62435   0.31192   0.74948   0.00000  Uiso   1.00
Cu655  Cu    0.38022   0.16667   0.75000   0.00000  Uiso   1.00
Cu656  Cu    0.61978   0.16666   0.75000   0.00000  Uiso   1.00
F657   F     0.60675   0.13754   0.54870   0.00000  Uiso   1.00
F658   F     0.46669   0.22454   0.70177   0.00000  Uiso   1.00
F659   F     0.39325   0.19579   0.95130   0.00000  Uiso   1.00
F660   F     0.44520   0.13098   0.61054   0.00000  Uiso   1.00
F661   F     0.55480   0.20235   0.88946   0.00000  Uiso   1.00
F662   F     0.63518   0.20676   0.61421   0.00000  Uiso   1.00
F663   F     0.36482   0.12658   0.88579   0.00000  Uiso   1.00
F664   F     0.33411   0.11725   0.97606   0.00000  Uiso   1.00
F665   F     0.66589   0.21608   0.52394   0.00000  Uiso   1.00
F666   F     0.53331   0.10879   0.79823   0.00000  Uiso   1.00
H667   H     0.59115   0.03706   0.74915   0.00000  Uiso   1.00
H668   H     0.40885   0.29628   0.75085   0.00000  Uiso   1.00
H669   H     0.59125   0.29581   0.74905   0.00000  Uiso   1.00
H670   H     0.40875   0.03752   0.75095   0.00000  Uiso   1.00
H671   H     0.44347   0.11498   0.79342   0.00000  Uiso   1.00
H672   H     0.55653   0.21835   0.70658   0.00000  Uiso   1.00
N673   N     0.45069   0.16668   0.74999   0.00000  Uiso   1.00
N674   N     0.54931   0.16666   0.75001   0.00000  Uiso   1.00
O675   O     0.37291   0.10655   0.75000   0.00000  Uiso   1.00
O676   O     0.62709   0.22678   0.75000   0.00000  Uiso   1.00
O677   O     0.62706   0.10654   0.75001   0.00000  Uiso   1.00
O678   O     0.37294   0.22679   0.75000   0.00000  Uiso   1.00
O679   O     0.35186   0.16668   0.81492   0.00000  Uiso   1.00
O680   O     0.64814   0.16666   0.68509   0.00000  Uiso   1.00
O681   O     0.60600   0.16667   0.81492   0.00000  Uiso   1.00
O682   O     0.39400   0.16667   0.68508   0.00000  Uiso   1.00
Br683  Br    0.85718   0.18446   0.60549   0.00000  Uiso   1.00
Br684  Br    0.80949   0.14888   0.89451   0.00000  Uiso   1.00
C685   C     0.99993   0.08737   0.75004   0.00000  Uiso   1.00
C686   C     0.70899   0.02141   0.75052   0.00000  Uiso   1.00
C687   C     0.66674   0.29059   0.74995   0.00000  Uiso   1.00
C688   C     0.99993   0.04275   0.75005   0.00000  Uiso   1.00
C689   C     0.85086   0.13782   0.77399   0.00000  Uiso   1.00
C690   C     0.81581   0.19551   0.72601   0.00000  Uiso   1.00
C691   C     0.80130   0.13793   0.77403   0.00000  Uiso   1.00
C692   C     0.86537   0.19541   0.72597   0.00000  Uiso   1.00
C693   C     0.97269   0.16587   0.83611   0.00000  Uiso   1.00
C694   C     0.69398   0.16746   0.66389   0.00000  Uiso   1.00
C695   C     0.95748   0.16101   0.88516   0.00000  Uiso   1.00
C696   C     0.66673   0.24597   0.74996   0.00000  Uiso   1.00
C697   C     0.70919   0.17232   0.61484   0.00000  Uiso   1.00
C698   C     0.97031   0.13466   0.95438   0.00000  Uiso   1.00
C699   C     0.69636   0.19868   0.54562   0.00000  Uiso   1.00
C700   C     0.98676   0.14048   0.90803   0.00000  Uiso   1.00
C701   C     0.67991   0.19286   0.59197   0.00000  Uiso   1.00
C702   C     0.91101   0.17395   0.90882   0.00000  Uiso   1.00
C703   C     0.75566   0.15938   0.59118   0.00000  Uiso   1.00
C704   C     0.89077   0.16162   0.95365   0.00000  Uiso   1.00
C705   C     0.77589   0.17172   0.54635   0.00000  Uiso   1.00
C706   C     0.92278   0.14631   0.97773   0.00000  Uiso   1.00
C707   C     0.86221   0.16127   0.54717   0.00000  Uiso   1.00
C708   C     0.74389   0.18702   0.52227   0.00000  Uiso   1.00
C709   C     0.84069   0.16702   0.97611   0.00000  Uiso   1.00
C710   C     0.82598   0.16631   0.52389   0.00000  Uiso   1.00
C711   C     0.80445   0.17207   0.95283   0.00000  Uiso   1.00
C712   C     0.90807   0.14662   0.52467   0.00000  Uiso   1.00
C713   C     0.75860   0.18672   0.97533   0.00000  Uiso   1.00
C714   C     0.95761   0.02116   0.74954   0.00000  Uiso   1.00
C715   C     0.70906   0.31218   0.75046   0.00000  Uiso   1.00
C716   C     0.95768   0.31192   0.74948   0.00000  Uiso   1.00
Cu717  Cu    0.71355   0.16667   0.75000   0.00000  Uiso   1.00
Cu718  Cu    0.95311   0.16666   0.75000   0.00000  Uiso   1.00
F719   F     0.94008   0.13754   0.54870   0.00000  Uiso   1.00
F720   F     0.80002   0.22454   0.70177   0.00000  Uiso   1.00
F721   F     0.72658   0.19579   0.95130   0.00000  Uiso   1.00
F722   F     0.77853   0.13098   0.61054   0.00000  Uiso   1.00
F723   F     0.88813   0.20235   0.88946   0.00000  Uiso   1.00
F724   F     0.96852   0.20676   0.61421   0.00000  Uiso   1.00
F725   F     0.69815   0.12658   0.88579   0.00000  Uiso   1.00
F726   F     0.66744   0.11725   0.97606   0.00000  Uiso   1.00
F727   F     0.99923   0.21608   0.52394   0.00000  Uiso   1.00
F728   F     0.86664   0.10879   0.79823   0.00000  Uiso   1.00
H729   H     0.92448   0.03706   0.74915   0.00000  Uiso   1.00
H730   H     0.74219   0.29628   0.75085   0.00000  Uiso   1.00
H731   H     0.92458   0.29581   0.74905   0.00000  Uiso   1.00
H732   H     0.74208   0.03752   0.75095   0.00000  Uiso   1.00
H733   H     0.77681   0.11498   0.79342   0.00000  Uiso   1.00
H734   H     0.88986   0.21835   0.70658   0.00000  Uiso   1.00
N735   N     0.78403   0.16668   0.74999   0.00000  Uiso   1.00
N736   N     0.88264   0.16666   0.75001   0.00000  Uiso   1.00
O737   O     0.70625   0.10655   0.75000   0.00000  Uiso   1.00
O738   O     0.96042   0.22678   0.75000   0.00000  Uiso   1.00
O739   O     0.96039   0.10654   0.75001   0.00000  Uiso   1.00
O740   O     0.70628   0.22679   0.75000   0.00000  Uiso   1.00
O741   O     0.68519   0.16668   0.81492   0.00000  Uiso   1.00
O742   O     0.98148   0.16666   0.68509   0.00000  Uiso   1.00
O743   O     0.93933   0.16667   0.81492   0.00000  Uiso   1.00
O744   O     0.72733   0.16667   0.68508   0.00000  Uiso   1.00
Br745  Br    0.19051   0.51779   0.60549   0.00000  Uiso   1.00
Br746  Br    0.14282   0.48221   0.89451   0.00000  Uiso   1.00
C747   C     0.33327   0.42070   0.75004   0.00000  Uiso   1.00
C748   C     0.04232   0.35475   0.75052   0.00000  Uiso   1.00
C749   C     0.00007   0.62392   0.74995   0.00000  Uiso   1.00
C750   C     0.33326   0.37608   0.75005   0.00000  Uiso   1.00
C751   C     0.18419   0.47115   0.77399   0.00000  Uiso   1.00
C752   C     0.14914   0.52885   0.72601   0.00000  Uiso   1.00
C753   C     0.13463   0.47126   0.77403   0.00000  Uiso   1.00
C754   C     0.19870   0.52874   0.72597   0.00000  Uiso   1.00
C755   C     0.30602   0.49921   0.83611   0.00000  Uiso   1.00
C756   C     0.02731   0.50079   0.66389   0.00000  Uiso   1.00
C757   C     0.29081   0.49435   0.88516   0.00000  Uiso   1.00
C758   C     0.00007   0.57930   0.74996   0.00000  Uiso   1.00
C759   C     0.04252   0.50565   0.61484   0.00000  Uiso   1.00
C760   C     0.30364   0.46799   0.95438   0.00000  Uiso   1.00
C761   C     0.02969   0.53201   0.54562   0.00000  Uiso   1.00
C762   C     0.32009   0.47381   0.90803   0.00000  Uiso   1.00
C763   C     0.01324   0.52619   0.59197   0.00000  Uiso   1.00
C764   C     0.24434   0.50729   0.90882   0.00000  Uiso   1.00
C765   C     0.08899   0.49271   0.59118   0.00000  Uiso   1.00
C766   C     0.22411   0.49495   0.95365   0.00000  Uiso   1.00
C767   C     0.10923   0.50505   0.54635   0.00000  Uiso   1.00
C768   C     0.25611   0.47965   0.97773   0.00000  Uiso   1.00
C769   C     0.19555   0.49460   0.54717   0.00000  Uiso   1.00
C770   C     0.07722   0.52035   0.52227   0.00000  Uiso   1.00
C771   C     0.17402   0.50036   0.97611   0.00000  Uiso   1.00
C772   C     0.15931   0.49964   0.52389   0.00000  Uiso   1.00
C773   C     0.13779   0.50540   0.95283   0.00000  Uiso   1.00
C774   C     0.24140   0.47995   0.52467   0.00000  Uiso   1.00
C775   C     0.09193   0.52005   0.97533   0.00000  Uiso   1.00
C776   C     0.29094   0.35449   0.74954   0.00000  Uiso   1.00
C777   C     0.04239   0.64551   0.75046   0.00000  Uiso   1.00
C778   C     0.29101   0.64525   0.74948   0.00000  Uiso   1.00
Cu779  Cu    0.04689   0.50001   0.75000   0.00000  Uiso   1.00
Cu780  Cu    0.28645   0.49999   0.75000   0.00000  Uiso   1.00
F781   F     0.27342   0.47088   0.54870   0.00000  Uiso   1.00
F782   F     0.13336   0.55788   0.70177   0.00000  Uiso   1.00
F783   F     0.05992   0.52912   0.95130   0.00000  Uiso   1.00
F784   F     0.11187   0.46432   0.61054   0.00000  Uiso   1.00
F785   F     0.22147   0.53568   0.88946   0.00000  Uiso   1.00
F786   F     0.30185   0.54009   0.61421   0.00000  Uiso   1.00
F787   F     0.03148   0.45991   0.88579   0.00000  Uiso   1.00
F788   F     0.00077   0.45058   0.97606   0.00000  Uiso   1.00
F789   F     0.33256   0.54942   0.52394   0.00000  Uiso   1.00
F790   F     0.19998   0.44212   0.79823   0.00000  Uiso   1.00
H791   H     0.25781   0.37039   0.74915   0.00000  Uiso   1.00
H792   H     0.07552   0.62961   0.75085   0.00000  Uiso   1.00
H793   H     0.25792   0.62914   0.74905   0.00000  Uiso   1.00
H794   H     0.07542   0.37086   0.75095   0.00000  Uiso   1.00
H795   H     0.11014   0.44831   0.79342   0.00000  Uiso   1.00
H796   H     0.22319   0.55169   0.70658   0.00000  Uiso   1.00
N797   N     0.11736   0.50001   0.74999   0.00000  Uiso   1.00
N798   N     0.21597   0.49999   0.75001   0.00000  Uiso   1.00
O799   O     0.03958   0.43989   0.75000   0.00000  Uiso   1.00
O800   O     0.29375   0.56011   0.75000   0.00000  Uiso   1.00
O801   O     0.29372   0.43988   0.75001   0.00000  Uiso   1.00
O802   O     0.03961   0.56012   0.75000   0.00000  Uiso   1.00
O803   O     0.01852   0.50001   0.81492   0.00000  Uiso   1.00
O804   O     0.31481   0.49999   0.68509   0.00000  Uiso   1.00
O805   O     0.27267   0.50000   0.81492   0.00000  Uiso   1.00
O806   O     0.06067   0.50000   0.68508   0.00000  Uiso   1.00
Br807  Br    0.52384   0.51779   0.60549   0.00000  Uiso   1.00
Br808  Br    0.47616   0.48221   0.89451   0.00000  Uiso   1.00
C809   C     0.66660   0.42070   0.75004   0.00000  Uiso   1.00
C810   C     0.37565   0.35475   0.75052   0.00000  Uiso   1.00
C811   C     0.33341   0.62392   0.74995   0.00000  Uiso   1.00
C812   C     0.66659   0.37608   0.75005   0.00000  Uiso   1.00
C813   C     0.51752   0.47115   0.77399   0.00000  Uiso   1.00
C814   C     0.48248   0.52885   0.72601   0.00000  Uiso   1.00
C815   C     0.46796   0.47126   0.77403   0.00000  Uiso   1.00
C816   C     0.53204   0.52874   0.72597   0.00000  Uiso   1.00
C817   C     0.63936   0.49921   0.83611   0.00000  Uiso   1.00
C818   C     0.36064   0.50079   0.66389   0.00000  Uiso   1.00
C819   C     0.62414   0.49435   0.88516   0.00000  Uiso   1.00
C820   C     0.33340   0.57930   0.74996   0.00000  Uiso   1.00
C821   C     0.37586   0.50565   0.61484   0.00000  Uiso   1.00
C822   C     0.63698   0.46799   0.95438   0.00000  Uiso   1.00
C823   C     0.36302   0.53201   0.54562   0.00000  Uiso   1.00
C824   C     0.65343   0.47381   0.90803   0.00000  Uiso   1.00
C825   C     0.34657   0.52619   0.59197   0.00000  Uiso   1.00
C826   C     0.57768   0.50729   0.90882   0.00000  Uiso   1.00
C827   C     0.42232   0.49271   0.59118   0.00000  Uiso   1.00
C828   C     0.55744   0.49495   0.95365   0.00000  Uiso   1.00
C829   C     0.44256   0.50505   0.54635   0.00000  Uiso   1.00
C830   C     0.58945   0.47965   0.97773   0.00000  Uiso   1.00
C831   C     0.52888   0.49460   0.54717   0.00000  Uiso   1.00
C832   C     0.41055   0.52035   0.52227   0.00000  Uiso   1.00
C833   C     0.50736   0.50036   0.97611   0.00000  Uiso   1.00
C834   C     0.49264   0.49964   0.52389   0.00000  Uiso   1.00
C835   C     0.47112   0.50540   0.95283   0.00000  Uiso   1.00
C836   C     0.57474   0.47995   0.52467   0.00000  Uiso   1.00
C837   C     0.42526   0.52005   0.97533   0.00000  Uiso   1.00
C838   C     0.62427   0.35449   0.74954   0.00000  Uiso   1.00
C839   C     0.37573   0.64551   0.75046   0.00000  Uiso   1.00
C840   C     0.62435   0.64525   0.74948   0.00000  Uiso   1.00
Cu841  Cu    0.38022   0.50001   0.75000   0.00000  Uiso   1.00
Cu842  Cu    0.61978   0.49999   0.75000   0.00000  Uiso   1.00
F843   F     0.60675   0.47088   0.54870   0.00000  Uiso   1.00
F844   F     0.46669   0.55788   0.70177   0.00000  Uiso   1.00
F845   F     0.39325   0.52912   0.95130   0.00000  Uiso   1.00
F846   F     0.44520   0.46432   0.61054   0.00000  Uiso   1.00
F847   F     0.55480   0.53568   0.88946   0.00000  Uiso   1.00
F848   F     0.63518   0.54009   0.61421   0.00000  Uiso   1.00
F849   F     0.36482   0.45991   0.88579   0.00000  Uiso   1.00
F850   F     0.33411   0.45058   0.97606   0.00000  Uiso   1.00
F851   F     0.66589   0.54942   0.52394   0.00000  Uiso   1.00
F852   F     0.53331   0.44212   0.79823   0.00000  Uiso   1.00
H853   H     0.59115   0.37039   0.74915   0.00000  Uiso   1.00
H854   H     0.40885   0.62961   0.75085   0.00000  Uiso   1.00
H855   H     0.59125   0.62914   0.74905   0.00000  Uiso   1.00
H856   H     0.40875   0.37086   0.75095   0.00000  Uiso   1.00
H857   H     0.44347   0.44831   0.79342   0.00000  Uiso   1.00
H858   H     0.55653   0.55169   0.70658   0.00000  Uiso   1.00
N859   N     0.45069   0.50001   0.74999   0.00000  Uiso   1.00
N860   N     0.54931   0.49999   0.75001   0.00000  Uiso   1.00
O861   O     0.37291   0.43989   0.75000   0.00000  Uiso   1.00
O862   O     0.62709   0.56011   0.75000   0.00000  Uiso   1.00
O863   O     0.62706   0.43988   0.75001   0.00000  Uiso   1.00
O864   O     0.37294   0.56012   0.75000   0.00000  Uiso   1.00
O865   O     0.35186   0.50001   0.81492   0.00000  Uiso   1.00
O866   O     0.64814   0.49999   0.68509   0.00000  Uiso   1.00
O867   O     0.60600   0.50000   0.81492   0.00000  Uiso   1.00
O868   O     0.39400   0.50000   0.68508   0.00000  Uiso   1.00
Br869  Br    0.85718   0.51779   0.60549   0.00000  Uiso   1.00
Br870  Br    0.80949   0.48221   0.89451   0.00000  Uiso   1.00
C871   C     0.99993   0.42070   0.75004   0.00000  Uiso   1.00
C872   C     0.70899   0.35475   0.75052   0.00000  Uiso   1.00
C873   C     0.66674   0.62392   0.74995   0.00000  Uiso   1.00
C874   C     0.99993   0.37608   0.75005   0.00000  Uiso   1.00
C875   C     0.85086   0.47115   0.77399   0.00000  Uiso   1.00
C876   C     0.81581   0.52885   0.72601   0.00000  Uiso   1.00
C877   C     0.80130   0.47126   0.77403   0.00000  Uiso   1.00
C878   C     0.86537   0.52874   0.72597   0.00000  Uiso   1.00
C879   C     0.97269   0.49921   0.83611   0.00000  Uiso   1.00
C880   C     0.69398   0.50079   0.66389   0.00000  Uiso   1.00
C881   C     0.95748   0.49435   0.88516   0.00000  Uiso   1.00
C882   C     0.66673   0.57930   0.74996   0.00000  Uiso   1.00
C883   C     0.70919   0.50565   0.61484   0.00000  Uiso   1.00
C884   C     0.97031   0.46799   0.95438   0.00000  Uiso   1.00
C885   C     0.69636   0.53201   0.54562   0.00000  Uiso   1.00
C886   C     0.98676   0.47381   0.90803   0.00000  Uiso   1.00
C887   C     0.67991   0.52619   0.59197   0.00000  Uiso   1.00
C888   C     0.91101   0.50729   0.90882   0.00000  Uiso   1.00
C889   C     0.75566   0.49271   0.59118   0.00000  Uiso   1.00
C890   C     0.89077   0.49495   0.95365   0.00000  Uiso   1.00
C891   C     0.77589   0.50505   0.54635   0.00000  Uiso   1.00
C892   C     0.92278   0.47965   0.97773   0.00000  Uiso   1.00
C893   C     0.86221   0.49460   0.54717   0.00000  Uiso   1.00
C894   C     0.74389   0.52035   0.52227   0.00000  Uiso   1.00
C895   C     0.84069   0.50036   0.97611   0.00000  Uiso   1.00
C896   C     0.82598   0.49964   0.52389   0.00000  Uiso   1.00
C897   C     0.80445   0.50540   0.95283   0.00000  Uiso   1.00
C898   C     0.90807   0.47995   0.52467   0.00000  Uiso   1.00
C899   C     0.75860   0.52005   0.97533   0.00000  Uiso   1.00
C900   C     0.95761   0.35449   0.74954   0.00000  Uiso   1.00
C901   C     0.70906   0.64551   0.75046   0.00000  Uiso   1.00
C902   C     0.95768   0.64525   0.74948   0.00000  Uiso   1.00
Cu903  Cu    0.71355   0.50001   0.75000   0.00000  Uiso   1.00
Cu904  Cu    0.95311   0.49999   0.75000   0.00000  Uiso   1.00
F905   F     0.94008   0.47088   0.54870   0.00000  Uiso   1.00
F906   F     0.80002   0.55788   0.70177   0.00000  Uiso   1.00
F907   F     0.72658   0.52912   0.95130   0.00000  Uiso   1.00
F908   F     0.77853   0.46432   0.61054   0.00000  Uiso   1.00
F909   F     0.88813   0.53568   0.88946   0.00000  Uiso   1.00
F910   F     0.96852   0.54009   0.61421   0.00000  Uiso   1.00
F911   F     0.69815   0.45991   0.88579   0.00000  Uiso   1.00
F912   F     0.66744   0.45058   0.97606   0.00000  Uiso   1.00
F913   F     0.99923   0.54942   0.52394   0.00000  Uiso   1.00
F914   F     0.86664   0.44212   0.79823   0.00000  Uiso   1.00
H915   H     0.92448   0.37039   0.74915   0.00000  Uiso   1.00
H916   H     0.74219   0.62961   0.75085   0.00000  Uiso   1.00
H917   H     0.92458   0.62914   0.74905   0.00000  Uiso   1.00
H918   H     0.74208   0.37086   0.75095   0.00000  Uiso   1.00
H919   H     0.77681   0.44831   0.79342   0.00000  Uiso   1.00
H920   H     0.88986   0.55169   0.70658   0.00000  Uiso   1.00
N921   N     0.78403   0.50001   0.74999   0.00000  Uiso   1.00
N922   N     0.88264   0.49999   0.75001   0.00000  Uiso   1.00
O923   O     0.70625   0.43989   0.75000   0.00000  Uiso   1.00
O924   O     0.96042   0.56011   0.75000   0.00000  Uiso   1.00
O925   O     0.96039   0.43988   0.75001   0.00000  Uiso   1.00
O926   O     0.70628   0.56012   0.75000   0.00000  Uiso   1.00
O927   O     0.68519   0.50001   0.81492   0.00000  Uiso   1.00
O928   O     0.98148   0.49999   0.68509   0.00000  Uiso   1.00
O929   O     0.93933   0.50000   0.81492   0.00000  Uiso   1.00
O930   O     0.72733   0.50000   0.68508   0.00000  Uiso   1.00
Br931  Br    0.19051   0.85112   0.60549   0.00000  Uiso   1.00
Br932  Br    0.14282   0.81554   0.89451   0.00000  Uiso   1.00
C933   C     0.33327   0.75403   0.75004   0.00000  Uiso   1.00
C934   C     0.04232   0.68808   0.75052   0.00000  Uiso   1.00
C935   C     0.00007   0.95725   0.74995   0.00000  Uiso   1.00
C936   C     0.33326   0.70941   0.75005   0.00000  Uiso   1.00
C937   C     0.18419   0.80449   0.77399   0.00000  Uiso   1.00
C938   C     0.14914   0.86218   0.72601   0.00000  Uiso   1.00
C939   C     0.13463   0.80459   0.77403   0.00000  Uiso   1.00
C940   C     0.19870   0.86208   0.72597   0.00000  Uiso   1.00
C941   C     0.30602   0.83254   0.83611   0.00000  Uiso   1.00
C942   C     0.02731   0.83413   0.66389   0.00000  Uiso   1.00
C943   C     0.29081   0.82768   0.88516   0.00000  Uiso   1.00
C944   C     0.00007   0.91263   0.74996   0.00000  Uiso   1.00
C945   C     0.04252   0.83899   0.61484   0.00000  Uiso   1.00
C946   C     0.30364   0.80132   0.95438   0.00000  Uiso   1.00
C947   C     0.02969   0.86534   0.54562   0.00000  Uiso   1.00
C948   C     0.32009   0.80714   0.90803   0.00000  Uiso   1.00
C949   C     0.01324   0.85952   0.59197   0.00000  Uiso   1.00
C950   C     0.24434   0.84062   0.90882   0.00000  Uiso   1.00
C951   C     0.08899   0.82605   0.59118   0.00000  Uiso   1.00
C952   C     0.22411   0.82828   0.95365   0.00000  Uiso   1.00
C953   C     0.10923   0.83838   0.54635   0.00000  Uiso   1.00
C954   C     0.25611   0.81298   0.97773   0.00000  Uiso   1.00
C955   C     0.19555   0.82793   0.54717   0.00000  Uiso   1.00
C956   C     0.07722   0.85369   0.52227   0.00000  Uiso   1.00
C957   C     0.17402   0.83369   0.97611   0.00000  Uiso   1.00
C958   C     0.15931   0.83298   0.52389   0.00000  Uiso   1.00
C959   C     0.13779   0.83873   0.95283   0.00000  Uiso   1.00
C960   C     0.24140   0.81328   0.52467   0.00000  Uiso   1.00
C961   C     0.09193   0.85338   0.97533   0.00000  Uiso   1.00
C962   C     0.29094   0.68782   0.74954   0.00000  Uiso   1.00
C963   C     0.04239   0.97884   0.75046   0.00000  Uiso   1.00
C964   C     0.29101   0.97859   0.74948   0.00000  Uiso   1.00
Cu965  Cu    0.04689   0.83334   0.75000   0.00000  Uiso   1.00
Cu966  Cu    0.28645   0.83333   0.75000   0.00000  Uiso   1.00
F967   F     0.27342   0.80421   0.54870   0.00000  Uiso   1.00
F968   F     0.13336   0.89121   0.70177   0.00000  Uiso   1.00
F969   F     0.05992   0.86246   0.95130   0.00000  Uiso   1.00
F970   F     0.11187   0.79765   0.61054   0.00000  Uiso   1.00
F971   F     0.22147   0.86902   0.88946   0.00000  Uiso   1.00
F972   F     0.30185   0.87342   0.61421   0.00000  Uiso   1.00
F973   F     0.03148   0.79324   0.88579   0.00000  Uiso   1.00
F974   F     0.00077   0.78392   0.97606   0.00000  Uiso   1.00
F975   F     0.33256   0.88275   0.52394   0.00000  Uiso   1.00
F976   F     0.19998   0.77546   0.79823   0.00000  Uiso   1.00
H977   H     0.25781   0.70372   0.74915   0.00000  Uiso   1.00
H978   H     0.07552   0.96294   0.75085   0.00000  Uiso   1.00
H979   H     0.25792   0.96248   0.74905   0.00000  Uiso   1.00
H980   H     0.07542   0.70419   0.75095   0.00000  Uiso   1.00
H981   H     0.11014   0.78165   0.79342   0.00000  Uiso   1.00
H982   H     0.22319   0.88502   0.70658   0.00000  Uiso   1.00
N983   N     0.11736   0.83334   0.74999   0.00000  Uiso   1.00
N984   N     0.21597   0.83332   0.75001   0.00000  Uiso   1.00
O985   O     0.03958   0.77322   0.75000   0.00000  Uiso   1.00
O986   O     0.29375   0.89345   0.75000   0.00000  Uiso   1.00
O987   O     0.29372   0.77321   0.75001   0.00000  Uiso   1.00
O988   O     0.03961   0.89346   0.75000   0.00000  Uiso   1.00
O989   O     0.01852   0.83334   0.81492   0.00000  Uiso   1.00
O990   O     0.31481   0.83332   0.68509   0.00000  Uiso   1.00
O991   O     0.27267   0.83333   0.81492   0.00000  Uiso   1.00
O992   O     0.06067   0.83333   0.68508   0.00000  Uiso   1.00
Br993  Br    0.52384   0.85112   0.60549   0.00000  Uiso   1.00
Br994  Br    0.47616   0.81554   0.89451   0.00000  Uiso   1.00
C995   C     0.66660   0.75403   0.75004   0.00000  Uiso   1.00
C996   C     0.37565   0.68808   0.75052   0.00000  Uiso   1.00
C997   C     0.33341   0.95725   0.74995   0.00000  Uiso   1.00
C998   C     0.66659   0.70941   0.75005   0.00000  Uiso   1.00
C999   C     0.51752   0.80449   0.77399   0.00000  Uiso   1.00
C1000  C     0.48248   0.86218   0.72601   0.00000  Uiso   1.00
C1001  C     0.46796   0.80459   0.77403   0.00000  Uiso   1.00
C1002  C     0.53204   0.86208   0.72597   0.00000  Uiso   1.00
C1003  C     0.63936   0.83254   0.83611   0.00000  Uiso   1.00
C1004  C     0.36064   0.83413   0.66389   0.00000  Uiso   1.00
C1005  C     0.62414   0.82768   0.88516   0.00000  Uiso   1.00
C1006  C     0.33340   0.91263   0.74996   0.00000  Uiso   1.00
C1007  C     0.37586   0.83899   0.61484   0.00000  Uiso   1.00
C1008  C     0.63698   0.80132   0.95438   0.00000  Uiso   1.00
C1009  C     0.36302   0.86534   0.54562   0.00000  Uiso   1.00
C1010  C     0.65343   0.80714   0.90803   0.00000  Uiso   1.00
C1011  C     0.34657   0.85952   0.59197   0.00000  Uiso   1.00
C1012  C     0.57768   0.84062   0.90882   0.00000  Uiso   1.00
C1013  C     0.42232   0.82605   0.59118   0.00000  Uiso   1.00
C1014  C     0.55744   0.82828   0.95365   0.00000  Uiso   1.00
C1015  C     0.44256   0.83838   0.54635   0.00000  Uiso   1.00
C1016  C     0.58945   0.81298   0.97773   0.00000  Uiso   1.00
C1017  C     0.52888   0.82793   0.54717   0.00000  Uiso   1.00
C1018  C     0.41055   0.85369   0.52227   0.00000  Uiso   1.00
C1019  C     0.50736   0.83369   0.97611   0.00000  Uiso   1.00
C1020  C     0.49264   0.83298   0.52389   0.00000  Uiso   1.00
C1021  C     0.47112   0.83873   0.95283   0.00000  Uiso   1.00
C1022  C     0.57474   0.81328   0.52467   0.00000  Uiso   1.00
C1023  C     0.42526   0.85338   0.97533   0.00000  Uiso   1.00
C1024  C     0.62427   0.68782   0.74954   0.00000  Uiso   1.00
C1025  C     0.37573   0.97884   0.75046   0.00000  Uiso   1.00
C1026  C     0.62435   0.97859   0.74948   0.00000  Uiso   1.00
Cu1027 Cu    0.38022   0.83334   0.75000   0.00000  Uiso   1.00
Cu1028 Cu    0.61978   0.83333   0.75000   0.00000  Uiso   1.00
F1029  F     0.60675   0.80421   0.54870   0.00000  Uiso   1.00
F1030  F     0.46669   0.89121   0.70177   0.00000  Uiso   1.00
F1031  F     0.39325   0.86246   0.95130   0.00000  Uiso   1.00
F1032  F     0.44520   0.79765   0.61054   0.00000  Uiso   1.00
F1033  F     0.55480   0.86902   0.88946   0.00000  Uiso   1.00
F1034  F     0.63518   0.87342   0.61421   0.00000  Uiso   1.00
F1035  F     0.36482   0.79324   0.88579   0.00000  Uiso   1.00
F1036  F     0.33411   0.78392   0.97606   0.00000  Uiso   1.00
F1037  F     0.66589   0.88275   0.52394   0.00000  Uiso   1.00
F1038  F     0.53331   0.77546   0.79823   0.00000  Uiso   1.00
H1039  H     0.59115   0.70372   0.74915   0.00000  Uiso   1.00
H1040  H     0.40885   0.96294   0.75085   0.00000  Uiso   1.00
H1041  H     0.59125   0.96248   0.74905   0.00000  Uiso   1.00
H1042  H     0.40875   0.70419   0.75095   0.00000  Uiso   1.00
H1043  H     0.44347   0.78165   0.79342   0.00000  Uiso   1.00
H1044  H     0.55653   0.88502   0.70658   0.00000  Uiso   1.00
N1045  N     0.45069   0.83334   0.74999   0.00000  Uiso   1.00
N1046  N     0.54931   0.83332   0.75001   0.00000  Uiso   1.00
O1047  O     0.37291   0.77322   0.75000   0.00000  Uiso   1.00
O1048  O     0.62709   0.89345   0.75000   0.00000  Uiso   1.00
O1049  O     0.62706   0.77321   0.75001   0.00000  Uiso   1.00
O1050  O     0.37294   0.89346   0.75000   0.00000  Uiso   1.00
O1051  O     0.35186   0.83334   0.81492   0.00000  Uiso   1.00
O1052  O     0.64814   0.83332   0.68509   0.00000  Uiso   1.00
O1053  O     0.60600   0.83333   0.81492   0.00000  Uiso   1.00
O1054  O     0.39400   0.83333   0.68508   0.00000  Uiso   1.00
Br1055 Br    0.85718   0.85112   0.60549   0.00000  Uiso   1.00
Br1056 Br    0.80949   0.81554   0.89451   0.00000  Uiso   1.00
C1057  C     0.99993   0.75403   0.75004   0.00000  Uiso   1.00
C1058  C     0.70899   0.68808   0.75052   0.00000  Uiso   1.00
C1059  C     0.66674   0.95725   0.74995   0.00000  Uiso   1.00
C1060  C     0.99993   0.70941   0.75005   0.00000  Uiso   1.00
C1061  C     0.85086   0.80449   0.77399   0.00000  Uiso   1.00
C1062  C     0.81581   0.86218   0.72601   0.00000  Uiso   1.00
C1063  C     0.80130   0.80459   0.77403   0.00000  Uiso   1.00
C1064  C     0.86537   0.86208   0.72597   0.00000  Uiso   1.00
C1065  C     0.97269   0.83254   0.83611   0.00000  Uiso   1.00
C1066  C     0.69398   0.83413   0.66389   0.00000  Uiso   1.00
C1067  C     0.95748   0.82768   0.88516   0.00000  Uiso   1.00
C1068  C     0.66673   0.91263   0.74996   0.00000  Uiso   1.00
C1069  C     0.70919   0.83899   0.61484   0.00000  Uiso   1.00
C1070  C     0.97031   0.80132   0.95438   0.00000  Uiso   1.00
C1071  C     0.69636   0.86534   0.54562   0.00000  Uiso   1.00
C1072  C     0.98676   0.80714   0.90803   0.00000  Uiso   1.00
C1073  C     0.67991   0.85952   0.59197   0.00000  Uiso   1.00
C1074  C     0.91101   0.84062   0.90882   0.00000  Uiso   1.00
C1075  C     0.75566   0.82605   0.59118   0.00000  Uiso   1.00
C1076  C     0.89077   0.82828   0.95365   0.00000  Uiso   1.00
C1077  C     0.77589   0.83838   0.54635   0.00000  Uiso   1.00
C1078  C     0.92278   0.81298   0.97773   0.00000  Uiso   1.00
C1079  C     0.86221   0.82793   0.54717   0.00000  Uiso   1.00
C1080  C     0.74389   0.85369   0.52227   0.00000  Uiso   1.00
C1081  C     0.84069   0.83369   0.97611   0.00000  Uiso   1.00
C1082  C     0.82598   0.83298   0.52389   0.00000  Uiso   1.00
C1083  C     0.80445   0.83873   0.95283   0.00000  Uiso   1.00
C1084  C     0.90807   0.81328   0.52467   0.00000  Uiso   1.00
C1085  C     0.75860   0.85338   0.97533   0.00000  Uiso   1.00
C1086  C     0.95761   0.68782   0.74954   0.00000  Uiso   1.00
C1087  C     0.70906   0.97884   0.75046   0.00000  Uiso   1.00
C1088  C     0.95768   0.97859   0.74948   0.00000  Uiso   1.00
Cu1089 Cu    0.71355   0.83334   0.75000   0.00000  Uiso   1.00
Cu1090 Cu    0.95311   0.83333   0.75000   0.00000  Uiso   1.00
F1091  F     0.94008   0.80421   0.54870   0.00000  Uiso   1.00
F1092  F     0.80002   0.89121   0.70177   0.00000  Uiso   1.00
F1093  F     0.72658   0.86246   0.95130   0.00000  Uiso   1.00
F1094  F     0.77853   0.79765   0.61054   0.00000  Uiso   1.00
F1095  F     0.88813   0.86902   0.88946   0.00000  Uiso   1.00
F1096  F     0.96852   0.87342   0.61421   0.00000  Uiso   1.00
F1097  F     0.69815   0.79324   0.88579   0.00000  Uiso   1.00
F1098  F     0.66744   0.78392   0.97606   0.00000  Uiso   1.00
F1099  F     0.99923   0.88275   0.52394   0.00000  Uiso   1.00
F1100  F     0.86664   0.77546   0.79823   0.00000  Uiso   1.00
H1101  H     0.92448   0.70372   0.74915   0.00000  Uiso   1.00
H1102  H     0.74219   0.96294   0.75085   0.00000  Uiso   1.00
H1103  H     0.92458   0.96248   0.74905   0.00000  Uiso   1.00
H1104  H     0.74208   0.70419   0.75095   0.00000  Uiso   1.00
H1105  H     0.77681   0.78165   0.79342   0.00000  Uiso   1.00
H1106  H     0.88986   0.88502   0.70658   0.00000  Uiso   1.00
N1107  N     0.78403   0.83334   0.74999   0.00000  Uiso   1.00
N1108  N     0.88264   0.83332   0.75001   0.00000  Uiso   1.00
O1109  O     0.70625   0.77322   0.75000   0.00000  Uiso   1.00
O1110  O     0.96042   0.89345   0.75000   0.00000  Uiso   1.00
O1111  O     0.96039   0.77321   0.75001   0.00000  Uiso   1.00
O1112  O     0.70628   0.89346   0.75000   0.00000  Uiso   1.00
O1113  O     0.68519   0.83334   0.81492   0.00000  Uiso   1.00
O1114  O     0.98148   0.83332   0.68509   0.00000  Uiso   1.00
O1115  O     0.93933   0.83333   0.81492   0.00000  Uiso   1.00
O1116  O     0.72733   0.83333   0.68508   0.00000  Uiso   1.00
loop_
_geom_bond_atom_site_label_1
_geom_bond_atom_site_label_2
_geom_bond_distance
_geom_bond_site_symmetry_2
_ccdc_geom_bond_type
Br1    C25     1.929   .     S
Br2    C29     1.929   .     S
C3     C6      1.450   .     S
C3     O57     1.293   .     A
C3     O117    1.292   .     S
C4     H50     1.083   .     S
C4     C130    1.402   1_455 S
C4     C405    1.384   1_545 S
C5     C14     1.450   .     S
C5     C33     1.401   .     A
C5     C158    1.402   1_455 S
C6     C32     1.401   .     A
C6     C66     1.402   .     S
C7     F46     1.355   .     S
C7     C9      1.417   .     A
C7     N54     1.370   .     A
C8     N53     1.370   .     A
C8     F38     1.355   .     S
C8     C10     1.417   .     A
C9     N53     1.366   .     A
C9     H51     1.082   .     S
C10    H52     1.082   .     S
C10    N54     1.366   .     A
C11    C13     1.468   .     S
C11    O61     1.296   .     A
C11    O121    1.297   .     S
C12    O62     1.296   .     A
C12    C15     1.468   .     S
C12    O184    1.297   1_455 S
C13    C18     1.403   .     A
C13    C20     1.399   .     A
C14    O58     1.293   .     A
C14    O180    1.292   1_455 S
C15    C21     1.399   .     A
C15    C19     1.403   .     A
C16    C24     1.409   .     A
C16    C18     1.394   .     A
C16    F106    1.358   .     S
C17    C26     1.409   .     A
C17    C19     1.394   .     A
C17    F169    1.358   1_455 S
C18    F105    1.357   .     S
C19    F166    1.357   1_455 S
C20    F41     1.360   .     S
C20    C22     1.406   .     A
C21    F40     1.360   .     S
C21    C23     1.406   .     A
C22    C27     1.424   .     A
C22    C24     1.417   .     A
C23    C28     1.424   .     A
C23    C26     1.417   .     A
C24    C588    1.398   .     S
C25    C28     1.423   .     A
C25    C30     1.394   .     A
C26    C589    1.398   1_554 S
C27    C29     1.423   .     A
C27    C586    1.423   .     S
C28    C585    1.423   1_554 S
C29    C31     1.394   .     A
C30    F37     1.359   .     S
C30    C582    1.398   1_554 S
C31    F39     1.359   .     S
C31    C584    1.398   .     S
C32    H47     1.083   .     S
C32    C406    1.384   1_545 S
C33    H48     1.083   .     S
C33    C190    1.384   .     S
C34    H49     1.083   .     S
C34    C67     1.402   .     S
C34    C218    1.384   .     S
Cu35   N53     2.015   .     S
Cu35   O58     1.965   .     S
Cu35   O62     1.940   .     S
Cu35   O59     1.952   .     S
Cu35   O55     1.964   .     S
Cu35   Cu160   2.681   1_455 S
Cu36   O56     1.964   .     S
Cu36   N54     2.015   .     S
Cu36   O61     1.940   .     S
Cu36   O57     1.965   .     S
Cu36   O60     1.952   .     S
Cu36   Cu97    2.681   .     S
F42    C81     1.357   .     S
F43    C142    1.357   1_455 S
F44    C140    1.358   1_455 S
F45    C79     1.358   .     S
O55    C127    1.292   1_455 S
O56    C76     1.292   .     S
O59    C135    1.297   1_455 S
O60    C74     1.297   .     S
Br63   C87     1.929   .     S
Br64   C91     1.929   .     S
C65    C68     1.450   .     S
C65    O119    1.293   .     A
C65    O179    1.292   .     S
C66    H112    1.083   .     S
C66    C467    1.384   1_545 S
C67    C76     1.450   .     S
C67    C95     1.401   .     A
C68    C94     1.401   .     A
C68    C128    1.402   .     S
C69    F108    1.355   .     S
C69    C71     1.417   .     A
C69    N116    1.370   .     A
C70    N115    1.370   .     A
C70    F100    1.355   .     S
C70    C72     1.417   .     A
C71    N115    1.366   .     A
C71    H113    1.082   .     S
C72    H114    1.082   .     S
C72    N116    1.366   .     A
C73    C75     1.468   .     S
C73    O123    1.296   .     A
C73    O183    1.297   .     S
C74    O124    1.296   .     A
C74    C77     1.468   .     S
C75    C80     1.403   .     A
C75    C82     1.399   .     A
C76    O120    1.293   .     A
C77    C83     1.399   .     A
C77    C81     1.403   .     A
C78    C86     1.409   .     A
C78    C80     1.394   .     A
C78    F168    1.358   .     S
C79    C88     1.409   .     A
C79    C81     1.394   .     A
C80    F167    1.357   .     S
C82    F103    1.360   .     S
C82    C84     1.406   .     A
C83    F102    1.360   .     S
C83    C85     1.406   .     A
C84    C89     1.424   .     A
C84    C86     1.417   .     A
C85    C90     1.424   .     A
C85    C88     1.417   .     A
C86    C650    1.398   .     S
C87    C90     1.423   .     A
C87    C92     1.394   .     A
C88    C651    1.398   1_554 S
C89    C91     1.423   .     A
C89    C648    1.423   .     S
C90    C647    1.423   1_554 S
C91    C93     1.394   .     A
C92    F99     1.359   .     S
C92    C644    1.398   1_554 S
C93    F101    1.359   .     S
C93    C646    1.398   .     S
C94    H109    1.083   .     S
C94    C468    1.384   1_545 S
C95    H110    1.083   .     S
C95    C252    1.384   .     S
C96    H111    1.083   .     S
C96    C129    1.402   .     S
C96    C280    1.384   .     S
Cu97   N115    2.015   .     S
Cu97   O120    1.965   .     S
Cu97   O124    1.940   .     S
Cu97   O121    1.952   .     S
Cu97   O117    1.964   .     S
Cu98   O118    1.964   .     S
Cu98   N116    2.015   .     S
Cu98   O123    1.940   .     S
Cu98   O119    1.965   .     S
Cu98   O122    1.952   .     S
Cu98   Cu159   2.681   .     S
F104   C143    1.357   .     S
F107   C141    1.358   .     S
O118   C138    1.292   .     S
O122   C136    1.297   .     S
Br125  C149    1.929   .     S
Br126  C153    1.929   .     S
C127   C130    1.450   .     S
C127   O181    1.293   .     A
C127   O55     1.292   1_655 S
C128   H174    1.083   .     S
C128   C529    1.384   1_545 S
C129   C138    1.450   .     S
C129   C157    1.401   .     A
C130   C156    1.401   .     A
C130   C4      1.402   1_655 S
C131   F170    1.355   .     S
C131   C133    1.417   .     A
C131   N178    1.370   .     A
C132   N177    1.370   .     A
C132   F162    1.355   .     S
C132   C134    1.417   .     A
C133   N177    1.366   .     A
C133   H175    1.082   .     S
C134   H176    1.082   .     S
C134   N178    1.366   .     A
C135   C137    1.468   .     S
C135   O185    1.296   .     A
C135   O59     1.297   1_655 S
C136   O186    1.296   .     A
C136   C139    1.468   .     S
C137   C142    1.403   .     A
C137   C144    1.399   .     A
C138   O182    1.293   .     A
C139   C145    1.399   .     A
C139   C143    1.403   .     A
C140   C148    1.409   .     A
C140   C142    1.394   .     A
C140   F44     1.358   1_655 S
C141   C150    1.409   .     A
C141   C143    1.394   .     A
C142   F43     1.357   1_655 S
C144   F165    1.360   .     S
C144   C146    1.406   .     A
C145   F164    1.360   .     S
C145   C147    1.406   .     A
C146   C151    1.424   .     A
C146   C148    1.417   .     A
C147   C152    1.424   .     A
C147   C150    1.417   .     A
C148   C712    1.398   .     S
C149   C152    1.423   .     A
C149   C154    1.394   .     A
C150   C713    1.398   1_554 S
C151   C153    1.423   .     A
C151   C710    1.423   .     S
C152   C709    1.423   1_554 S
C153   C155    1.394   .     A
C154   F161    1.359   .     S
C154   C706    1.398   1_554 S
C155   F163    1.359   .     S
C155   C708    1.398   .     S
C156   H171    1.083   .     S
C156   C530    1.384   1_545 S
C157   H172    1.083   .     S
C157   C314    1.384   .     S
C158   H173    1.083   .     S
C158   C5      1.402   1_655 S
C158   C342    1.384   .     S
Cu159  N177    2.015   .     S
Cu159  O182    1.965   .     S
Cu159  O186    1.940   .     S
Cu159  O183    1.952   .     S
Cu159  O179    1.964   .     S
Cu160  O180    1.964   .     S
Cu160  N178    2.015   .     S
Cu160  O185    1.940   .     S
Cu160  O181    1.965   .     S
Cu160  O184    1.952   .     S
Cu160  Cu35    2.681   1_655 S
F166   C19     1.357   1_655 S
F169   C17     1.358   1_655 S
O180   C14     1.292   1_655 S
O184   C12     1.297   1_655 S
Br187  C211    1.929   .     S
Br188  C215    1.929   .     S
C189   C192    1.450   .     S
C189   O243    1.293   .     A
C189   O303    1.292   .     S
C190   H236    1.083   .     S
C190   C316    1.402   1_455 S
C191   C200    1.450   .     S
C191   C219    1.401   .     A
C191   C344    1.402   1_455 S
C192   C218    1.401   .     A
C192   C252    1.402   .     S
C193   F232    1.355   .     S
C193   C195    1.417   .     A
C193   N240    1.370   .     A
C194   N239    1.370   .     A
C194   F224    1.355   .     S
C194   C196    1.417   .     A
C195   N239    1.366   .     A
C195   H237    1.082   .     S
C196   H238    1.082   .     S
C196   N240    1.366   .     A
C197   C199    1.468   .     S
C197   O247    1.296   .     A
C197   O307    1.297   .     S
C198   O248    1.296   .     A
C198   C201    1.468   .     S
C198   O370    1.297   1_455 S
C199   C204    1.403   .     A
C199   C206    1.399   .     A
C200   O244    1.293   .     A
C200   O366    1.292   1_455 S
C201   C207    1.399   .     A
C201   C205    1.403   .     A
C202   C210    1.409   .     A
C202   C204    1.394   .     A
C202   F292    1.358   .     S
C203   C212    1.409   .     A
C203   C205    1.394   .     A
C203   F355    1.358   1_455 S
C204   F291    1.357   .     S
C205   F352    1.357   1_455 S
C206   F227    1.360   .     S
C206   C208    1.406   .     A
C207   F226    1.360   .     S
C207   C209    1.406   .     A
C208   C213    1.424   .     A
C208   C210    1.417   .     A
C209   C214    1.424   .     A
C209   C212    1.417   .     A
C210   C774    1.398   .     S
C211   C214    1.423   .     A
C211   C216    1.394   .     A
C212   C775    1.398   1_554 S
C213   C215    1.423   .     A
C213   C772    1.423   .     S
C214   C771    1.423   1_554 S
C215   C217    1.394   .     A
C216   F223    1.359   .     S
C216   C768    1.398   1_554 S
C217   F225    1.359   .     S
C217   C770    1.398   .     S
C218   H233    1.083   .     S
C219   H234    1.083   .     S
C219   C376    1.384   .     S
C220   H235    1.083   .     S
C220   C253    1.402   .     S
C220   C404    1.384   .     S
Cu221  N239    2.015   .     S
Cu221  O244    1.965   .     S
Cu221  O248    1.940   .     S
Cu221  O245    1.952   .     S
Cu221  O241    1.964   .     S
Cu221  Cu346   2.681   1_455 S
Cu222  O242    1.964   .     S
Cu222  N240    2.015   .     S
Cu222  O247    1.940   .     S
Cu222  O243    1.965   .     S
Cu222  O246    1.952   .     S
Cu222  Cu283   2.681   .     S
F228   C267    1.357   .     S
F229   C328    1.357   1_455 S
F230   C326    1.358   1_455 S
F231   C265    1.358   .     S
O241   C313    1.292   1_455 S
O242   C262    1.292   .     S
O245   C321    1.297   1_455 S
O246   C260    1.297   .     S
Br249  C273    1.929   .     S
Br250  C277    1.929   .     S
C251   C254    1.450   .     S
C251   O305    1.293   .     A
C251   O365    1.292   .     S
C252   H298    1.083   .     S
C253   C262    1.450   .     S
C253   C281    1.401   .     A
C254   C280    1.401   .     A
C254   C314    1.402   .     S
C255   F294    1.355   .     S
C255   C257    1.417   .     A
C255   N302    1.370   .     A
C256   N301    1.370   .     A
C256   F286    1.355   .     S
C256   C258    1.417   .     A
C257   N301    1.366   .     A
C257   H299    1.082   .     S
C258   H300    1.082   .     S
C258   N302    1.366   .     A
C259   C261    1.468   .     S
C259   O309    1.296   .     A
C259   O369    1.297   .     S
C260   O310    1.296   .     A
C260   C263    1.468   .     S
C261   C266    1.403   .     A
C261   C268    1.399   .     A
C262   O306    1.293   .     A
C263   C269    1.399   .     A
C263   C267    1.403   .     A
C264   C272    1.409   .     A
C264   C266    1.394   .     A
C264   F354    1.358   .     S
C265   C274    1.409   .     A
C265   C267    1.394   .     A
C266   F353    1.357   .     S
C268   F289    1.360   .     S
C268   C270    1.406   .     A
C269   F288    1.360   .     S
C269   C271    1.406   .     A
C270   C275    1.424   .     A
C270   C272    1.417   .     A
C271   C276    1.424   .     A
C271   C274    1.417   .     A
C272   C836    1.398   .     S
C273   C276    1.423   .     A
C273   C278    1.394   .     A
C274   C837    1.398   1_554 S
C275   C277    1.423   .     A
C275   C834    1.423   .     S
C276   C833    1.423   1_554 S
C277   C279    1.394   .     A
C278   F285    1.359   .     S
C278   C830    1.398   1_554 S
C279   F287    1.359   .     S
C279   C832    1.398   .     S
C280   H295    1.083   .     S
C281   H296    1.083   .     S
C281   C438    1.384   .     S
C282   H297    1.083   .     S
C282   C315    1.402   .     S
C282   C466    1.384   .     S
Cu283  N301    2.015   .     S
Cu283  O306    1.965   .     S
Cu283  O310    1.940   .     S
Cu283  O307    1.952   .     S
Cu283  O303    1.964   .     S
Cu284  O304    1.964   .     S
Cu284  N302    2.015   .     S
Cu284  O309    1.940   .     S
Cu284  O305    1.965   .     S
Cu284  O308    1.952   .     S
Cu284  Cu345   2.681   .     S
F290   C329    1.357   .     S
F293   C327    1.358   .     S
O304   C324    1.292   .     S
O308   C322    1.297   .     S
Br311  C335    1.929   .     S
Br312  C339    1.929   .     S
C313   C316    1.450   .     S
C313   O367    1.293   .     A
C313   O241    1.292   1_655 S
C314   H360    1.083   .     S
C315   C324    1.450   .     S
C315   C343    1.401   .     A
C316   C342    1.401   .     A
C316   C190    1.402   1_655 S
C317   F356    1.355   .     S
C317   C319    1.417   .     A
C317   N364    1.370   .     A
C318   N363    1.370   .     A
C318   F348    1.355   .     S
C318   C320    1.417   .     A
C319   N363    1.366   .     A
C319   H361    1.082   .     S
C320   H362    1.082   .     S
C320   N364    1.366   .     A
C321   C323    1.468   .     S
C321   O371    1.296   .     A
C321   O245    1.297   1_655 S
C322   O372    1.296   .     A
C322   C325    1.468   .     S
C323   C328    1.403   .     A
C323   C330    1.399   .     A
C324   O368    1.293   .     A
C325   C331    1.399   .     A
C325   C329    1.403   .     A
C326   C334    1.409   .     A
C326   C328    1.394   .     A
C326   F230    1.358   1_655 S
C327   C336    1.409   .     A
C327   C329    1.394   .     A
C328   F229    1.357   1_655 S
C330   F351    1.360   .     S
C330   C332    1.406   .     A
C331   F350    1.360   .     S
C331   C333    1.406   .     A
C332   C337    1.424   .     A
C332   C334    1.417   .     A
C333   C338    1.424   .     A
C333   C336    1.417   .     A
C334   C898    1.398   .     S
C335   C338    1.423   .     A
C335   C340    1.394   .     A
C336   C899    1.398   1_554 S
C337   C339    1.423   .     A
C337   C896    1.423   .     S
C338   C895    1.423   1_554 S
C339   C341    1.394   .     A
C340   F347    1.359   .     S
C340   C892    1.398   1_554 S
C341   F349    1.359   .     S
C341   C894    1.398   .     S
C342   H357    1.083   .     S
C343   H358    1.083   .     S
C343   C500    1.384   .     S
C344   H359    1.083   .     S
C344   C191    1.402   1_655 S
C344   C528    1.384   .     S
Cu345  N363    2.015   .     S
Cu345  O368    1.965   .     S
Cu345  O372    1.940   .     S
Cu345  O369    1.952   .     S
Cu345  O365    1.964   .     S
Cu346  O366    1.964   .     S
Cu346  N364    2.015   .     S
Cu346  O371    1.940   .     S
Cu346  O367    1.965   .     S
Cu346  O370    1.952   .     S
Cu346  Cu221   2.681   1_655 S
F352   C205    1.357   1_655 S
F355   C203    1.358   1_655 S
O366   C200    1.292   1_655 S
O370   C198    1.297   1_655 S
Br373  C397    1.929   .     S
Br374  C401    1.929   .     S
C375   C378    1.450   .     S
C375   O429    1.293   .     A
C375   O489    1.292   .     S
C376   H422    1.083   .     S
C376   C502    1.402   1_455 S
C377   C386    1.450   .     S
C377   C405    1.401   .     A
C377   C530    1.402   1_455 S
C378   C404    1.401   .     A
C378   C438    1.402   .     S
C379   F418    1.355   .     S
C379   C381    1.417   .     A
C379   N426    1.370   .     A
C380   N425    1.370   .     A
C380   F410    1.355   .     S
C380   C382    1.417   .     A
C381   N425    1.366   .     A
C381   H423    1.082   .     S
C382   H424    1.082   .     S
C382   N426    1.366   .     A
C383   C385    1.468   .     S
C383   O433    1.296   .     A
C383   O493    1.297   .     S
C384   O434    1.296   .     A
C384   C387    1.468   .     S
C384   O556    1.297   1_455 S
C385   C390    1.403   .     A
C385   C392    1.399   .     A
C386   O430    1.293   .     A
C386   O552    1.292   1_455 S
C387   C393    1.399   .     A
C387   C391    1.403   .     A
C388   C396    1.409   .     A
C388   C390    1.394   .     A
C388   F478    1.358   .     S
C389   C398    1.409   .     A
C389   C391    1.394   .     A
C389   F541    1.358   1_455 S
C390   F477    1.357   .     S
C391   F538    1.357   1_455 S
C392   F413    1.360   .     S
C392   C394    1.406   .     A
C393   F412    1.360   .     S
C393   C395    1.406   .     A
C394   C399    1.424   .     A
C394   C396    1.417   .     A
C395   C400    1.424   .     A
C395   C398    1.417   .     A
C396   C960    1.398   .     S
C397   C400    1.423   .     A
C397   C402    1.394   .     A
C398   C961    1.398   1_554 S
C399   C401    1.423   .     A
C399   C958    1.423   .     S
C400   C957    1.423   1_554 S
C401   C403    1.394   .     A
C402   F409    1.359   .     S
C402   C954    1.398   1_554 S
C403   F411    1.359   .     S
C403   C956    1.398   .     S
C404   H419    1.083   .     S
C405   H420    1.083   .     S
C405   C4      1.384   1_565 S
C406   H421    1.083   .     S
C406   C439    1.402   .     S
C406   C32     1.384   1_565 S
Cu407  N425    2.015   .     S
Cu407  O430    1.965   .     S
Cu407  O434    1.940   .     S
Cu407  O431    1.952   .     S
Cu407  O427    1.964   .     S
Cu407  Cu532   2.681   1_455 S
Cu408  O428    1.964   .     S
Cu408  N426    2.015   .     S
Cu408  O433    1.940   .     S
Cu408  O429    1.965   .     S
Cu408  O432    1.952   .     S
Cu408  Cu469   2.681   .     S
F414   C453    1.357   .     S
F415   C514    1.357   1_455 S
F416   C512    1.358   1_455 S
F417   C451    1.358   .     S
O427   C499    1.292   1_455 S
O428   C448    1.292   .     S
O431   C507    1.297   1_455 S
O432   C446    1.297   .     S
Br435  C459    1.929   .     S
Br436  C463    1.929   .     S
C437   C440    1.450   .     S
C437   O491    1.293   .     A
C437   O551    1.292   .     S
C438   H484    1.083   .     S
C439   C448    1.450   .     S
C439   C467    1.401   .     A
C440   C466    1.401   .     A
C440   C500    1.402   .     S
C441   F480    1.355   .     S
C441   C443    1.417   .     A
C441   N488    1.370   .     A
C442   N487    1.370   .     A
C442   F472    1.355   .     S
C442   C444    1.417   .     A
C443   N487    1.366   .     A
C443   H485    1.082   .     S
C444   H486    1.082   .     S
C444   N488    1.366   .     A
C445   C447    1.468   .     S
C445   O495    1.296   .     A
C445   O555    1.297   .     S
C446   O496    1.296   .     A
C446   C449    1.468   .     S
C447   C452    1.403   .     A
C447   C454    1.399   .     A
C448   O492    1.293   .     A
C449   C455    1.399   .     A
C449   C453    1.403   .     A
C450   C458    1.409   .     A
C450   C452    1.394   .     A
C450   F540    1.358   .     S
C451   C460    1.409   .     A
C451   C453    1.394   .     A
C452   F539    1.357   .     S
C454   F475    1.360   .     S
C454   C456    1.406   .     A
C455   F474    1.360   .     S
C455   C457    1.406   .     A
C456   C461    1.424   .     A
C456   C458    1.417   .     A
C457   C462    1.424   .     A
C457   C460    1.417   .     A
C458   C1022   1.398   .     S
C459   C462    1.423   .     A
C459   C464    1.394   .     A
C460   C1023   1.398   1_554 S
C461   C463    1.423   .     A
C461   C1020   1.423   .     S
C462   C1019   1.423   1_554 S
C463   C465    1.394   .     A
C464   F471    1.359   .     S
C464   C1016   1.398   1_554 S
C465   F473    1.359   .     S
C465   C1018   1.398   .     S
C466   H481    1.083   .     S
C467   H482    1.083   .     S
C467   C66     1.384   1_565 S
C468   H483    1.083   .     S
C468   C501    1.402   .     S
C468   C94     1.384   1_565 S
Cu469  N487    2.015   .     S
Cu469  O492    1.965   .     S
Cu469  O496    1.940   .     S
Cu469  O493    1.952   .     S
Cu469  O489    1.964   .     S
Cu470  O490    1.964   .     S
Cu470  N488    2.015   .     S
Cu470  O495    1.940   .     S
Cu470  O491    1.965   .     S
Cu470  O494    1.952   .     S
Cu470  Cu531   2.681   .     S
F476   C515    1.357   .     S
F479   C513    1.358   .     S
O490   C510    1.292   .     S
O494   C508    1.297   .     S
Br497  C521    1.929   .     S
Br498  C525    1.929   .     S
C499   C502    1.450   .     S
C499   O553    1.293   .     A
C499   O427    1.292   1_655 S
C500   H546    1.083   .     S
C501   C510    1.450   .     S
C501   C529    1.401   .     A
C502   C528    1.401   .     A
C502   C376    1.402   1_655 S
C503   F542    1.355   .     S
C503   C505    1.417   .     A
C503   N550    1.370   .     A
C504   N549    1.370   .     A
C504   F534    1.355   .     S
C504   C506    1.417   .     A
C505   N549    1.366   .     A
C505   H547    1.082   .     S
C506   H548    1.082   .     S
C506   N550    1.366   .     A
C507   C509    1.468   .     S
C507   O557    1.296   .     A
C507   O431    1.297   1_655 S
C508   O558    1.296   .     A
C508   C511    1.468   .     S
C509   C514    1.403   .     A
C509   C516    1.399   .     A
C510   O554    1.293   .     A
C511   C517    1.399   .     A
C511   C515    1.403   .     A
C512   C520    1.409   .     A
C512   C514    1.394   .     A
C512   F416    1.358   1_655 S
C513   C522    1.409   .     A
C513   C515    1.394   .     A
C514   F415    1.357   1_655 S
C516   F537    1.360   .     S
C516   C518    1.406   .     A
C517   F536    1.360   .     S
C517   C519    1.406   .     A
C518   C523    1.424   .     A
C518   C520    1.417   .     A
C519   C524    1.424   .     A
C519   C522    1.417   .     A
C520   C1084   1.398   .     S
C521   C524    1.423   .     A
C521   C526    1.394   .     A
C522   C1085   1.398   1_554 S
C523   C525    1.423   .     A
C523   C1082   1.423   .     S
C524   C1081   1.423   1_554 S
C525   C527    1.394   .     A
C526   F533    1.359   .     S
C526   C1078   1.398   1_554 S
C527   F535    1.359   .     S
C527   C1080   1.398   .     S
C528   H543    1.083   .     S
C529   H544    1.083   .     S
C529   C128    1.384   1_565 S
C530   H545    1.083   .     S
C530   C377    1.402   1_655 S
C530   C156    1.384   1_565 S
Cu531  N549    2.015   .     S
Cu531  O554    1.965   .     S
Cu531  O558    1.940   .     S
Cu531  O555    1.952   .     S
Cu531  O551    1.964   .     S
Cu532  O552    1.964   .     S
Cu532  N550    2.015   .     S
Cu532  O557    1.940   .     S
Cu532  O553    1.965   .     S
Cu532  O556    1.952   .     S
Cu532  Cu407   2.681   1_655 S
F538   C391    1.357   1_655 S
F541   C389    1.358   1_655 S
O552   C386    1.292   1_655 S
O556   C384    1.297   1_655 S
Br559  C583    1.929   .     S
Br560  C587    1.929   .     S
C561   C564    1.450   .     S
C561   O615    1.293   .     A
C561   O675    1.292   .     S
C562   H608    1.083   .     S
C562   C688    1.402   1_455 S
C562   C963    1.384   1_545 S
C563   C572    1.450   .     S
C563   C591    1.401   .     A
C563   C716    1.402   1_455 S
C564   C590    1.401   .     A
C564   C624    1.402   .     S
C565   F604    1.355   .     S
C565   C567    1.417   .     A
C565   N612    1.370   .     A
C566   N611    1.370   .     A
C566   F596    1.355   .     S
C566   C568    1.417   .     A
C567   N611    1.366   .     A
C567   H609    1.082   .     S
C568   H610    1.082   .     S
C568   N612    1.366   .     A
C569   C571    1.468   .     S
C569   O619    1.296   .     A
C569   O679    1.297   .     S
C570   O620    1.296   .     A
C570   C573    1.468   .     S
C570   O742    1.297   1_455 S
C571   C576    1.403   .     A
C571   C578    1.399   .     A
C572   O616    1.293   .     A
C572   O738    1.292   1_455 S
C573   C579    1.399   .     A
C573   C577    1.403   .     A
C574   C582    1.409   .     A
C574   C576    1.394   .     A
C574   F664    1.358   .     S
C575   C584    1.409   .     A
C575   C577    1.394   .     A
C575   F727    1.358   1_455 S
C576   F663    1.357   .     S
C577   F724    1.357   1_455 S
C578   F599    1.360   .     S
C578   C580    1.406   .     A
C579   F598    1.360   .     S
C579   C581    1.406   .     A
C580   C585    1.424   .     A
C580   C582    1.417   .     A
C581   C586    1.424   .     A
C581   C584    1.417   .     A
C582   C30     1.398   1_556 S
C583   C586    1.423   .     A
C583   C588    1.394   .     A
C585   C587    1.423   .     A
C585   C28     1.423   1_556 S
C587   C589    1.394   .     A
C588   F595    1.359   .     S
C589   F597    1.359   .     S
C589   C26     1.398   1_556 S
C590   H605    1.083   .     S
C590   C964    1.384   1_545 S
C591   H606    1.083   .     S
C591   C748    1.384   .     S
C592   H607    1.083   .     S
C592   C625    1.402   .     S
C592   C776    1.384   .     S
Cu593  N611    2.015   .     S
Cu593  O616    1.965   .     S
Cu593  O620    1.940   .     S
Cu593  O617    1.952   .     S
Cu593  O613    1.964   .     S
Cu593  Cu718   2.681   1_455 S
Cu594  O614    1.964   .     S
Cu594  N612    2.015   .     S
Cu594  O619    1.940   .     S
Cu594  O615    1.965   .     S
Cu594  O618    1.952   .     S
Cu594  Cu655   2.681   .     S
F600   C639    1.357   .     S
F601   C700    1.357   1_455 S
F602   C698    1.358   1_455 S
F603   C637    1.358   .     S
O613   C685    1.292   1_455 S
O614   C634    1.292   .     S
O617   C693    1.297   1_455 S
O618   C632    1.297   .     S
Br621  C645    1.929   .     S
Br622  C649    1.929   .     S
C623   C626    1.450   .     S
C623   O677    1.293   .     A
C623   O737    1.292   .     S
C624   H670    1.083   .     S
C624   C1025   1.384   1_545 S
C625   C634    1.450   .     S
C625   C653    1.401   .     A
C626   C652    1.401   .     A
C626   C686    1.402   .     S
C627   F666    1.355   .     S
C627   C629    1.417   .     A
C627   N674    1.370   .     A
C628   N673    1.370   .     A
C628   F658    1.355   .     S
C628   C630    1.417   .     A
C629   N673    1.366   .     A
C629   H671    1.082   .     S
C630   H672    1.082   .     S
C630   N674    1.366   .     A
C631   C633    1.468   .     S
C631   O681    1.296   .     A
C631   O741    1.297   .     S
C632   O682    1.296   .     A
C632   C635    1.468   .     S
C633   C638    1.403   .     A
C633   C640    1.399   .     A
C634   O678    1.293   .     A
C635   C641    1.399   .     A
C635   C639    1.403   .     A
C636   C644    1.409   .     A
C636   C638    1.394   .     A
C636   F726    1.358   .     S
C637   C646    1.409   .     A
C637   C639    1.394   .     A
C638   F725    1.357   .     S
C640   F661    1.360   .     S
C640   C642    1.406   .     A
C641   F660    1.360   .     S
C641   C643    1.406   .     A
C642   C647    1.424   .     A
C642   C644    1.417   .     A
C643   C648    1.424   .     A
C643   C646    1.417   .     A
C644   C92     1.398   1_556 S
C645   C648    1.423   .     A
C645   C650    1.394   .     A
C647   C649    1.423   .     A
C647   C90     1.423   1_556 S
C649   C651    1.394   .     A
C650   F657    1.359   .     S
C651   F659    1.359   .     S
C651   C88     1.398   1_556 S
C652   H667    1.083   .     S
C652   C1026   1.384   1_545 S
C653   H668    1.083   .     S
C653   C810    1.384   .     S
C654   H669    1.083   .     S
C654   C687    1.402   .     S
C654   C838    1.384   .     S
Cu655  N673    2.015   .     S
Cu655  O678    1.965   .     S
Cu655  O682    1.940   .     S
Cu655  O679    1.952   .     S
Cu655  O675    1.964   .     S
Cu656  O676    1.964   .     S
Cu656  N674    2.015   .     S
Cu656  O681    1.940   .     S
Cu656  O677    1.965   .     S
Cu656  O680    1.952   .     S
Cu656  Cu717   2.681   .     S
F662   C701    1.357   .     S
F665   C699    1.358   .     S
O676   C696    1.292   .     S
O680   C694    1.297   .     S
Br683  C707    1.929   .     S
Br684  C711    1.929   .     S
C685   C688    1.450   .     S
C685   O739    1.293   .     A
C685   O613    1.292   1_655 S
C686   H732    1.083   .     S
C686   C1087   1.384   1_545 S
C687   C696    1.450   .     S
C687   C715    1.401   .     A
C688   C714    1.401   .     A
C688   C562    1.402   1_655 S
C689   F728    1.355   .     S
C689   C691    1.417   .     A
C689   N736    1.370   .     A
C690   N735    1.370   .     A
C690   F720    1.355   .     S
C690   C692    1.417   .     A
C691   N735    1.366   .     A
C691   H733    1.082   .     S
C692   H734    1.082   .     S
C692   N736    1.366   .     A
C693   C695    1.468   .     S
C693   O743    1.296   .     A
C693   O617    1.297   1_655 S
C694   O744    1.296   .     A
C694   C697    1.468   .     S
C695   C700    1.403   .     A
C695   C702    1.399   .     A
C696   O740    1.293   .     A
C697   C703    1.399   .     A
C697   C701    1.403   .     A
C698   C706    1.409   .     A
C698   C700    1.394   .     A
C698   F602    1.358   1_655 S
C699   C708    1.409   .     A
C699   C701    1.394   .     A
C700   F601    1.357   1_655 S
C702   F723    1.360   .     S
C702   C704    1.406   .     A
C703   F722    1.360   .     S
C703   C705    1.406   .     A
C704   C709    1.424   .     A
C704   C706    1.417   .     A
C705   C710    1.424   .     A
C705   C708    1.417   .     A
C706   C154    1.398   1_556 S
C707   C710    1.423   .     A
C707   C712    1.394   .     A
C709   C711    1.423   .     A
C709   C152    1.423   1_556 S
C711   C713    1.394   .     A
C712   F719    1.359   .     S
C713   F721    1.359   .     S
C713   C150    1.398   1_556 S
C714   H729    1.083   .     S
C714   C1088   1.384   1_545 S
C715   H730    1.083   .     S
C715   C872    1.384   .     S
C716   H731    1.083   .     S
C716   C563    1.402   1_655 S
C716   C900    1.384   .     S
Cu717  N735    2.015   .     S
Cu717  O740    1.965   .     S
Cu717  O744    1.940   .     S
Cu717  O741    1.952   .     S
Cu717  O737    1.964   .     S
Cu718  O738    1.964   .     S
Cu718  N736    2.015   .     S
Cu718  O743    1.940   .     S
Cu718  O739    1.965   .     S
Cu718  O742    1.952   .     S
Cu718  Cu593   2.681   1_655 S
F724   C577    1.357   1_655 S
F727   C575    1.358   1_655 S
O738   C572    1.292   1_655 S
O742   C570    1.297   1_655 S
Br745  C769    1.929   .     S
Br746  C773    1.929   .     S
C747   C750    1.450   .     S
C747   O801    1.293   .     A
C747   O861    1.292   .     S
C748   H794    1.083   .     S
C748   C874    1.402   1_455 S
C749   C758    1.450   .     S
C749   C777    1.401   .     A
C749   C902    1.402   1_455 S
C750   C776    1.401   .     A
C750   C810    1.402   .     S
C751   F790    1.355   .     S
C751   C753    1.417   .     A
C751   N798    1.370   .     A
C752   N797    1.370   .     A
C752   F782    1.355   .     S
C752   C754    1.417   .     A
C753   N797    1.366   .     A
C753   H795    1.082   .     S
C754   H796    1.082   .     S
C754   N798    1.366   .     A
C755   C757    1.468   .     S
C755   O805    1.296   .     A
C755   O865    1.297   .     S
C756   O806    1.296   .     A
C756   C759    1.468   .     S
C756   O928    1.297   1_455 S
C757   C762    1.403   .     A
C757   C764    1.399   .     A
C758   O802    1.293   .     A
C758   O924    1.292   1_455 S
C759   C765    1.399   .     A
C759   C763    1.403   .     A
C760   C768    1.409   .     A
C760   C762    1.394   .     A
C760   F850    1.358   .     S
C761   C770    1.409   .     A
C761   C763    1.394   .     A
C761   F913    1.358   1_455 S
C762   F849    1.357   .     S
C763   F910    1.357   1_455 S
C764   F785    1.360   .     S
C764   C766    1.406   .     A
C765   F784    1.360   .     S
C765   C767    1.406   .     A
C766   C771    1.424   .     A
C766   C768    1.417   .     A
C767   C772    1.424   .     A
C767   C770    1.417   .     A
C768   C216    1.398   1_556 S
C769   C772    1.423   .     A
C769   C774    1.394   .     A
C771   C773    1.423   .     A
C771   C214    1.423   1_556 S
C773   C775    1.394   .     A
C774   F781    1.359   .     S
C775   F783    1.359   .     S
C775   C212    1.398   1_556 S
C776   H791    1.083   .     S
C777   H792    1.083   .     S
C777   C934    1.384   .     S
C778   H793    1.083   .     S
C778   C811    1.402   .     S
C778   C962    1.384   .     S
Cu779  N797    2.015   .     S
Cu779  O802    1.965   .     S
Cu779  O806    1.940   .     S
Cu779  O803    1.952   .     S
Cu779  O799    1.964   .     S
Cu779  Cu904   2.681   1_455 S
Cu780  O800    1.964   .     S
Cu780  N798    2.015   .     S
Cu780  O805    1.940   .     S
Cu780  O801    1.965   .     S
Cu780  O804    1.952   .     S
Cu780  Cu841   2.681   .     S
F786   C825    1.357   .     S
F787   C886    1.357   1_455 S
F788   C884    1.358   1_455 S
F789   C823    1.358   .     S
O799   C871    1.292   1_455 S
O800   C820    1.292   .     S
O803   C879    1.297   1_455 S
O804   C818    1.297   .     S
Br807  C831    1.929   .     S
Br808  C835    1.929   .     S
C809   C812    1.450   .     S
C809   O863    1.293   .     A
C809   O923    1.292   .     S
C810   H856    1.083   .     S
C811   C820    1.450   .     S
C811   C839    1.401   .     A
C812   C838    1.401   .     A
C812   C872    1.402   .     S
C813   F852    1.355   .     S
C813   C815    1.417   .     A
C813   N860    1.370   .     A
C814   N859    1.370   .     A
C814   F844    1.355   .     S
C814   C816    1.417   .     A
C815   N859    1.366   .     A
C815   H857    1.082   .     S
C816   H858    1.082   .     S
C816   N860    1.366   .     A
C817   C819    1.468   .     S
C817   O867    1.296   .     A
C817   O927    1.297   .     S
C818   O868    1.296   .     A
C818   C821    1.468   .     S
C819   C824    1.403   .     A
C819   C826    1.399   .     A
C820   O864    1.293   .     A
C821   C827    1.399   .     A
C821   C825    1.403   .     A
C822   C830    1.409   .     A
C822   C824    1.394   .     A
C822   F912    1.358   .     S
C823   C832    1.409   .     A
C823   C825    1.394   .     A
C824   F911    1.357   .     S
C826   F847    1.360   .     S
C826   C828    1.406   .     A
C827   F846    1.360   .     S
C827   C829    1.406   .     A
C828   C833    1.424   .     A
C828   C830    1.417   .     A
C829   C834    1.424   .     A
C829   C832    1.417   .     A
C830   C278    1.398   1_556 S
C831   C834    1.423   .     A
C831   C836    1.394   .     A
C833   C835    1.423   .     A
C833   C276    1.423   1_556 S
C835   C837    1.394   .     A
C836   F843    1.359   .     S
C837   F845    1.359   .     S
C837   C274    1.398   1_556 S
C838   H853    1.083   .     S
C839   H854    1.083   .     S
C839   C996    1.384   .     S
C840   H855    1.083   .     S
C840   C873    1.402   .     S
C840   C1024   1.384   .     S
Cu841  N859    2.015   .     S
Cu841  O864    1.965   .     S
Cu841  O868    1.940   .     S
Cu841  O865    1.952   .     S
Cu841  O861    1.964   .     S
Cu842  O862    1.964   .     S
Cu842  N860    2.015   .     S
Cu842  O867    1.940   .     S
Cu842  O863    1.965   .     S
Cu842  O866    1.952   .     S
Cu842  Cu903   2.681   .     S
F848   C887    1.357   .     S
F851   C885    1.358   .     S
O862   C882    1.292   .     S
O866   C880    1.297   .     S
Br869  C893    1.929   .     S
Br870  C897    1.929   .     S
C871   C874    1.450   .     S
C871   O925    1.293   .     A
C871   O799    1.292   1_655 S
C872   H918    1.083   .     S
C873   C882    1.450   .     S
C873   C901    1.401   .     A
C874   C900    1.401   .     A
C874   C748    1.402   1_655 S
C875   F914    1.355   .     S
C875   C877    1.417   .     A
C875   N922    1.370   .     A
C876   N921    1.370   .     A
C876   F906    1.355   .     S
C876   C878    1.417   .     A
C877   N921    1.366   .     A
C877   H919    1.082   .     S
C878   H920    1.082   .     S
C878   N922    1.366   .     A
C879   C881    1.468   .     S
C879   O929    1.296   .     A
C879   O803    1.297   1_655 S
C880   O930    1.296   .     A
C880   C883    1.468   .     S
C881   C886    1.403   .     A
C881   C888    1.399   .     A
C882   O926    1.293   .     A
C883   C889    1.399   .     A
C883   C887    1.403   .     A
C884   C892    1.409   .     A
C884   C886    1.394   .     A
C884   F788    1.358   1_655 S
C885   C894    1.409   .     A
C885   C887    1.394   .     A
C886   F787    1.357   1_655 S
C888   F909    1.360   .     S
C888   C890    1.406   .     A
C889   F908    1.360   .     S
C889   C891    1.406   .     A
C890   C895    1.424   .     A
C890   C892    1.417   .     A
C891   C896    1.424   .     A
C891   C894    1.417   .     A
C892   C340    1.398   1_556 S
C893   C896    1.423   .     A
C893   C898    1.394   .     A
C895   C897    1.423   .     A
C895   C338    1.423   1_556 S
C897   C899    1.394   .     A
C898   F905    1.359   .     S
C899   F907    1.359   .     S
C899   C336    1.398   1_556 S
C900   H915    1.083   .     S
C901   H916    1.083   .     S
C901   C1058   1.384   .     S
C902   H917    1.083   .     S
C902   C749    1.402   1_655 S
C902   C1086   1.384   .     S
Cu903  N921    2.015   .     S
Cu903  O926    1.965   .     S
Cu903  O930    1.940   .     S
Cu903  O927    1.952   .     S
Cu903  O923    1.964   .     S
Cu904  O924    1.964   .     S
Cu904  N922    2.015   .     S
Cu904  O929    1.940   .     S
Cu904  O925    1.965   .     S
Cu904  O928    1.952   .     S
Cu904  Cu779   2.681   1_655 S
F910   C763    1.357   1_655 S
F913   C761    1.358   1_655 S
O924   C758    1.292   1_655 S
O928   C756    1.297   1_655 S
Br931  C955    1.929   .     S
Br932  C959    1.929   .     S
C933   C936    1.450   .     S
C933   O987    1.293   .     A
C933   O1047   1.292   .     S
C934   H980    1.083   .     S
C934   C1060   1.402   1_455 S
C935   C944    1.450   .     S
C935   C963    1.401   .     A
C935   C1088   1.402   1_455 S
C936   C962    1.401   .     A
C936   C996    1.402   .     S
C937   F976    1.355   .     S
C937   C939    1.417   .     A
C937   N984    1.370   .     A
C938   N983    1.370   .     A
C938   F968    1.355   .     S
C938   C940    1.417   .     A
C939   N983    1.366   .     A
C939   H981    1.082   .     S
C940   H982    1.082   .     S
C940   N984    1.366   .     A
C941   C943    1.468   .     S
C941   O991    1.296   .     A
C941   O1051   1.297   .     S
C942   O992    1.296   .     A
C942   C945    1.468   .     S
C942   O1114   1.297   1_455 S
C943   C948    1.403   .     A
C943   C950    1.399   .     A
C944   O988    1.293   .     A
C944   O1110   1.292   1_455 S
C945   C951    1.399   .     A
C945   C949    1.403   .     A
C946   C954    1.409   .     A
C946   C948    1.394   .     A
C946   F1036   1.358   .     S
C947   C956    1.409   .     A
C947   C949    1.394   .     A
C947   F1099   1.358   1_455 S
C948   F1035   1.357   .     S
C949   F1096   1.357   1_455 S
C950   F971    1.360   .     S
C950   C952    1.406   .     A
C951   F970    1.360   .     S
C951   C953    1.406   .     A
C952   C957    1.424   .     A
C952   C954    1.417   .     A
C953   C958    1.424   .     A
C953   C956    1.417   .     A
C954   C402    1.398   1_556 S
C955   C958    1.423   .     A
C955   C960    1.394   .     A
C957   C959    1.423   .     A
C957   C400    1.423   1_556 S
C959   C961    1.394   .     A
C960   F967    1.359   .     S
C961   F969    1.359   .     S
C961   C398    1.398   1_556 S
C962   H977    1.083   .     S
C963   H978    1.083   .     S
C963   C562    1.384   1_565 S
C964   H979    1.083   .     S
C964   C997    1.402   .     S
C964   C590    1.384   1_565 S
Cu965  N983    2.015   .     S
Cu965  O988    1.965   .     S
Cu965  O992    1.940   .     S
Cu965  O989    1.952   .     S
Cu965  O985    1.964   .     S
Cu965  Cu1090  2.681   1_455 S
Cu966  O986    1.964   .     S
Cu966  N984    2.015   .     S
Cu966  O991    1.940   .     S
Cu966  O987    1.965   .     S
Cu966  O990    1.952   .     S
Cu966  Cu1027  2.681   .     S
F972   C1011   1.357   .     S
F973   C1072   1.357   1_455 S
F974   C1070   1.358   1_455 S
F975   C1009   1.358   .     S
O985   C1057   1.292   1_455 S
O986   C1006   1.292   .     S
O989   C1065   1.297   1_455 S
O990   C1004   1.297   .     S
Br993  C1017   1.929   .     S
Br994  C1021   1.929   .     S
C995   C998    1.450   .     S
C995   O1049   1.293   .     A
C995   O1109   1.292   .     S
C996   H1042   1.083   .     S
C997   C1006   1.450   .     S
C997   C1025   1.401   .     A
C998   C1024   1.401   .     A
C998   C1058   1.402   .     S
C999   F1038   1.355   .     S
C999   C1001   1.417   .     A
C999   N1046   1.370   .     A
C1000  N1045   1.370   .     A
C1000  F1030   1.355   .     S
C1000  C1002   1.417   .     A
C1001  N1045   1.366   .     A
C1001  H1043   1.082   .     S
C1002  H1044   1.082   .     S
C1002  N1046   1.366   .     A
C1003  C1005   1.468   .     S
C1003  O1053   1.296   .     A
C1003  O1113   1.297   .     S
C1004  O1054   1.296   .     A
C1004  C1007   1.468   .     S
C1005  C1010   1.403   .     A
C1005  C1012   1.399   .     A
C1006  O1050   1.293   .     A
C1007  C1013   1.399   .     A
C1007  C1011   1.403   .     A
C1008  C1016   1.409   .     A
C1008  C1010   1.394   .     A
C1008  F1098   1.358   .     S
C1009  C1018   1.409   .     A
C1009  C1011   1.394   .     A
C1010  F1097   1.357   .     S
C1012  F1033   1.360   .     S
C1012  C1014   1.406   .     A
C1013  F1032   1.360   .     S
C1013  C1015   1.406   .     A
C1014  C1019   1.424   .     A
C1014  C1016   1.417   .     A
C1015  C1020   1.424   .     A
C1015  C1018   1.417   .     A
C1016  C464    1.398   1_556 S
C1017  C1020   1.423   .     A
C1017  C1022   1.394   .     A
C1019  C1021   1.423   .     A
C1019  C462    1.423   1_556 S
C1021  C1023   1.394   .     A
C1022  F1029   1.359   .     S
C1023  F1031   1.359   .     S
C1023  C460    1.398   1_556 S
C1024  H1039   1.083   .     S
C1025  H1040   1.083   .     S
C1025  C624    1.384   1_565 S
C1026  H1041   1.083   .     S
C1026  C1059   1.402   .     S
C1026  C652    1.384   1_565 S
Cu1027 N1045   2.015   .     S
Cu1027 O1050   1.965   .     S
Cu1027 O1054   1.940   .     S
Cu1027 O1051   1.952   .     S
Cu1027 O1047   1.964   .     S
Cu1028 O1048   1.964   .     S
Cu1028 N1046   2.015   .     S
Cu1028 O1053   1.940   .     S
Cu1028 O1049   1.965   .     S
Cu1028 O1052   1.952   .     S
Cu1028 Cu1089  2.681   .     S
F1034  C1073   1.357   .     S
F1037  C1071   1.358   .     S
O1048  C1068   1.292   .     S
O1052  C1066   1.297   .     S
Br1055 C1079   1.929   .     S
Br1056 C1083   1.929   .     S
C1057  C1060   1.450   .     S
C1057  O1111   1.293   .     A
C1057  O985    1.292   1_655 S
C1058  H1104   1.083   .     S
C1059  C1068   1.450   .     S
C1059  C1087   1.401   .     A
C1060  C1086   1.401   .     A
C1060  C934    1.402   1_655 S
C1061  F1100   1.355   .     S
C1061  C1063   1.417   .     A
C1061  N1108   1.370   .     A
C1062  N1107   1.370   .     A
C1062  F1092   1.355   .     S
C1062  C1064   1.417   .     A
C1063  N1107   1.366   .     A
C1063  H1105   1.082   .     S
C1064  H1106   1.082   .     S
C1064  N1108   1.366   .     A
C1065  C1067   1.468   .     S
C1065  O1115   1.296   .     A
C1065  O989    1.297   1_655 S
C1066  O1116   1.296   .     A
C1066  C1069   1.468   .     S
C1067  C1072   1.403   .     A
C1067  C1074   1.399   .     A
C1068  O1112   1.293   .     A
C1069  C1075   1.399   .     A
C1069  C1073   1.403   .     A
C1070  C1078   1.409   .     A
C1070  C1072   1.394   .     A
C1070  F974    1.358   1_655 S
C1071  C1080   1.409   .     A
C1071  C1073   1.394   .     A
C1072  F973    1.357   1_655 S
C1074  F1095   1.360   .     S
C1074  C1076   1.406   .     A
C1075  F1094   1.360   .     S
C1075  C1077   1.406   .     A
C1076  C1081   1.424   .     A
C1076  C1078   1.417   .     A
C1077  C1082   1.424   .     A
C1077  C1080   1.417   .     A
C1078  C526    1.398   1_556 S
C1079  C1082   1.423   .     A
C1079  C1084   1.394   .     A
C1081  C1083   1.423   .     A
C1081  C524    1.423   1_556 S
C1083  C1085   1.394   .     A
C1084  F1091   1.359   .     S
C1085  F1093   1.359   .     S
C1085  C522    1.398   1_556 S
C1086  H1101   1.083   .     S
C1087  H1102   1.083   .     S
C1087  C686    1.384   1_565 S
C1088  H1103   1.083   .     S
C1088  C935    1.402   1_655 S
C1088  C714    1.384   1_565 S
Cu1089 N1107   2.015   .     S
Cu1089 O1112   1.965   .     S
Cu1089 O1116   1.940   .     S
Cu1089 O1113   1.952   .     S
Cu1089 O1109   1.964   .     S
Cu1090 O1110   1.964   .     S
Cu1090 N1108   2.015   .     S
Cu1090 O1115   1.940   .     S
Cu1090 O1111   1.965   .     S
Cu1090 O1114   1.952   .     S
Cu1090 Cu965   2.681   1_655 S
F1096  C949    1.357   1_655 S
F1099  C947    1.358   1_655 S
O1110  C944    1.292   1_655 S
O1114  C942    1.297   1_655 S
