data_str_m2_o1_o5_pcu_sym.91
_audit_creation_date              2020-01-03
_audit_creation_method            'Materials Studio'
_symmetry_space_group_name_H-M    'P1'
_symmetry_Int_Tables_number       1
_symmetry_cell_setting            triclinic
loop_
_symmetry_equiv_pos_as_xyz
  x,y,z
_cell_length_a                    32.4866
_cell_length_b                    28.9415
_cell_length_c                    27.2065
_cell_angle_alpha                 90.0016
_cell_angle_beta                  92.8349
_cell_angle_gamma                 90.0001
loop_
_atom_site_label
_atom_site_type_symbol
_atom_site_fract_x
_atom_site_fract_y
_atom_site_fract_z
_atom_site_U_iso_or_equiv
_atom_site_adp_type
_atom_site_occupancy
C1     C     0.08748   0.16665   0.16663   0.00000  Uiso   1.00
C2     C     0.02129   0.20850   0.16693   0.00000  Uiso   1.00
C3     C     0.29054   0.16656   0.16662   0.00000  Uiso   1.00
C4     C     0.04280   0.16656   0.16672   0.00000  Uiso   1.00
C5     C     0.14190   0.02472   0.13355   0.00000  Uiso   1.00
C6     C     0.19402   0.30871   0.19686   0.00000  Uiso   1.00
C7     C     0.19143   0.02472   0.19978   0.00000  Uiso   1.00
C8     C     0.13931   0.30871   0.13648   0.00000  Uiso   1.00
C9     C     0.11906   0.04884   0.09261   0.00000  Uiso   1.00
C10    C     0.22806   0.28488   0.22515   0.00000  Uiso   1.00
C11    C     0.21426   0.04886   0.24072   0.00000  Uiso   1.00
C12    C     0.24586   0.16665   0.16671   0.00000  Uiso   1.00
C13    C     0.10527   0.28488   0.10821   0.00000  Uiso   1.00
C14    C     0.16656   0.16666   0.07366   0.00000  Uiso   1.00
C15    C     0.16677   0.16666   0.25967   0.00000  Uiso   1.00
C16    C     0.16663   0.16665   0.02188   0.00000  Uiso   1.00
C17    C     0.16671   0.16665   0.31146   0.00000  Uiso   1.00
C18    C     0.02130   0.12457   0.16657   0.00000  Uiso   1.00
C19    C     0.31205   0.20850   0.16652   0.00000  Uiso   1.00
C20    C     0.31203   0.12457   0.16667   0.00000  Uiso   1.00
Cu21   Cu    0.16667   0.21355   0.16667   0.00000  Uiso   1.00
Cu22   Cu    0.16667   0.11978   0.16667   0.00000  Uiso   1.00
H23    H     0.03729   0.09173   0.16645   0.00000  Uiso   1.00
H24    H     0.29610   0.24132   0.16608   0.00000  Uiso   1.00
H25    H     0.29603   0.09173   0.16671   0.00000  Uiso   1.00
H26    H     0.03724   0.24132   0.16745   0.00000  Uiso   1.00
H27    H     0.10086   0.07918   0.09869   0.00000  Uiso   1.00
H28    H     0.22364   0.25259   0.24362   0.00000  Uiso   1.00
H29    H     0.23259   0.07910   0.23460   0.00000  Uiso   1.00
H30    H     0.10971   0.25266   0.08962   0.00000  Uiso   1.00
N31    N     0.16667   0.28402   0.16667   0.00000  Uiso   1.00
N32    N     0.16667   0.04931   0.16667   0.00000  Uiso   1.00
O33    O     0.10655   0.20625   0.16666   0.00000  Uiso   1.00
O34    O     0.26259   0.30165   0.22789   0.00000  Uiso   1.00
O35    O     0.21263   0.03460   0.28283   0.00000  Uiso   1.00
O36    O     0.07071   0.30160   0.10560   0.00000  Uiso   1.00
O37    O     0.22679   0.12709   0.16667   0.00000  Uiso   1.00
O38    O     0.22679   0.20625   0.16667   0.00000  Uiso   1.00
O39    O     0.10655   0.12709   0.16666   0.00000  Uiso   1.00
O40    O     0.16667   0.20625   0.09613   0.00000  Uiso   1.00
O41    O     0.16667   0.12708   0.23720   0.00000  Uiso   1.00
O42    O     0.16667   0.20625   0.23720   0.00000  Uiso   1.00
O43    O     0.16667   0.12708   0.09613   0.00000  Uiso   1.00
O44    O     0.12053   0.03447   0.05053   0.00000  Uiso   1.00
C45    C     0.42081   0.16665   0.16663   0.00000  Uiso   1.00
C46    C     0.35462   0.20850   0.16693   0.00000  Uiso   1.00
C47    C     0.62387   0.16656   0.16662   0.00000  Uiso   1.00
C48    C     0.37613   0.16656   0.16672   0.00000  Uiso   1.00
C49    C     0.47523   0.02472   0.13355   0.00000  Uiso   1.00
C50    C     0.52735   0.30871   0.19686   0.00000  Uiso   1.00
C51    C     0.52476   0.02472   0.19978   0.00000  Uiso   1.00
C52    C     0.47265   0.30871   0.13648   0.00000  Uiso   1.00
C53    C     0.45239   0.04884   0.09261   0.00000  Uiso   1.00
C54    C     0.56139   0.28488   0.22515   0.00000  Uiso   1.00
C55    C     0.54760   0.04886   0.24072   0.00000  Uiso   1.00
C56    C     0.57919   0.16665   0.16671   0.00000  Uiso   1.00
C57    C     0.43860   0.28488   0.10821   0.00000  Uiso   1.00
C58    C     0.49989   0.16666   0.07366   0.00000  Uiso   1.00
C59    C     0.50011   0.16666   0.25967   0.00000  Uiso   1.00
C60    C     0.49996   0.16665   0.02188   0.00000  Uiso   1.00
C61    C     0.50004   0.16665   0.31146   0.00000  Uiso   1.00
C62    C     0.35464   0.12457   0.16657   0.00000  Uiso   1.00
C63    C     0.64538   0.20850   0.16652   0.00000  Uiso   1.00
C64    C     0.64536   0.12457   0.16667   0.00000  Uiso   1.00
Cu65   Cu    0.50000   0.21355   0.16667   0.00000  Uiso   1.00
Cu66   Cu    0.50000   0.11978   0.16667   0.00000  Uiso   1.00
H67    H     0.37063   0.09173   0.16645   0.00000  Uiso   1.00
H68    H     0.62943   0.24132   0.16608   0.00000  Uiso   1.00
H69    H     0.62937   0.09173   0.16671   0.00000  Uiso   1.00
H70    H     0.37057   0.24132   0.16745   0.00000  Uiso   1.00
H71    H     0.43419   0.07918   0.09869   0.00000  Uiso   1.00
H72    H     0.55697   0.25259   0.24362   0.00000  Uiso   1.00
H73    H     0.56592   0.07910   0.23460   0.00000  Uiso   1.00
H74    H     0.44305   0.25266   0.08962   0.00000  Uiso   1.00
N75    N     0.50000   0.28402   0.16667   0.00000  Uiso   1.00
N76    N     0.50000   0.04931   0.16667   0.00000  Uiso   1.00
O77    O     0.43988   0.20625   0.16666   0.00000  Uiso   1.00
O78    O     0.59593   0.30165   0.22789   0.00000  Uiso   1.00
O79    O     0.54597   0.03460   0.28283   0.00000  Uiso   1.00
O80    O     0.40404   0.30160   0.10560   0.00000  Uiso   1.00
O81    O     0.56012   0.12709   0.16667   0.00000  Uiso   1.00
O82    O     0.56012   0.20625   0.16667   0.00000  Uiso   1.00
O83    O     0.43988   0.12709   0.16666   0.00000  Uiso   1.00
O84    O     0.50000   0.20625   0.09613   0.00000  Uiso   1.00
O85    O     0.50000   0.12708   0.23720   0.00000  Uiso   1.00
O86    O     0.50000   0.20625   0.23720   0.00000  Uiso   1.00
O87    O     0.50000   0.12708   0.09613   0.00000  Uiso   1.00
O88    O     0.45387   0.03447   0.05053   0.00000  Uiso   1.00
C89    C     0.75414   0.16665   0.16663   0.00000  Uiso   1.00
C90    C     0.68796   0.20850   0.16693   0.00000  Uiso   1.00
C91    C     0.95720   0.16656   0.16662   0.00000  Uiso   1.00
C92    C     0.70946   0.16656   0.16672   0.00000  Uiso   1.00
C93    C     0.80857   0.02472   0.13355   0.00000  Uiso   1.00
C94    C     0.86068   0.30871   0.19686   0.00000  Uiso   1.00
C95    C     0.85810   0.02472   0.19978   0.00000  Uiso   1.00
C96    C     0.80598   0.30871   0.13648   0.00000  Uiso   1.00
C97    C     0.78572   0.04884   0.09261   0.00000  Uiso   1.00
C98    C     0.89472   0.28488   0.22515   0.00000  Uiso   1.00
C99    C     0.88093   0.04886   0.24072   0.00000  Uiso   1.00
C100   C     0.91252   0.16665   0.16671   0.00000  Uiso   1.00
C101   C     0.77194   0.28488   0.10821   0.00000  Uiso   1.00
C102   C     0.83323   0.16666   0.07366   0.00000  Uiso   1.00
C103   C     0.83344   0.16666   0.25967   0.00000  Uiso   1.00
C104   C     0.83329   0.16665   0.02188   0.00000  Uiso   1.00
C105   C     0.83337   0.16665   0.31146   0.00000  Uiso   1.00
C106   C     0.68797   0.12457   0.16657   0.00000  Uiso   1.00
C107   C     0.97871   0.20850   0.16652   0.00000  Uiso   1.00
C108   C     0.97870   0.12457   0.16667   0.00000  Uiso   1.00
Cu109  Cu    0.83333   0.21355   0.16667   0.00000  Uiso   1.00
Cu110  Cu    0.83333   0.11978   0.16667   0.00000  Uiso   1.00
H111   H     0.70396   0.09173   0.16645   0.00000  Uiso   1.00
H112   H     0.96277   0.24132   0.16608   0.00000  Uiso   1.00
H113   H     0.96270   0.09173   0.16671   0.00000  Uiso   1.00
H114   H     0.70390   0.24132   0.16745   0.00000  Uiso   1.00
H115   H     0.76753   0.07918   0.09869   0.00000  Uiso   1.00
H116   H     0.89030   0.25259   0.24362   0.00000  Uiso   1.00
H117   H     0.89925   0.07910   0.23460   0.00000  Uiso   1.00
H118   H     0.77638   0.25266   0.08962   0.00000  Uiso   1.00
N119   N     0.83333   0.28402   0.16667   0.00000  Uiso   1.00
N120   N     0.83333   0.04931   0.16667   0.00000  Uiso   1.00
O121   O     0.77321   0.20625   0.16666   0.00000  Uiso   1.00
O122   O     0.92926   0.30165   0.22789   0.00000  Uiso   1.00
O123   O     0.87930   0.03460   0.28283   0.00000  Uiso   1.00
O124   O     0.73738   0.30160   0.10560   0.00000  Uiso   1.00
O125   O     0.89345   0.12709   0.16667   0.00000  Uiso   1.00
O126   O     0.89345   0.20625   0.16667   0.00000  Uiso   1.00
O127   O     0.77321   0.12709   0.16666   0.00000  Uiso   1.00
O128   O     0.83333   0.20625   0.09613   0.00000  Uiso   1.00
O129   O     0.83333   0.12708   0.23720   0.00000  Uiso   1.00
O130   O     0.83333   0.20625   0.23720   0.00000  Uiso   1.00
O131   O     0.83333   0.12708   0.09613   0.00000  Uiso   1.00
O132   O     0.78720   0.03447   0.05053   0.00000  Uiso   1.00
C133   C     0.08748   0.49998   0.16663   0.00000  Uiso   1.00
C134   C     0.02129   0.54183   0.16693   0.00000  Uiso   1.00
C135   C     0.29054   0.49990   0.16662   0.00000  Uiso   1.00
C136   C     0.04280   0.49990   0.16672   0.00000  Uiso   1.00
C137   C     0.14190   0.35805   0.13355   0.00000  Uiso   1.00
C138   C     0.19402   0.64205   0.19686   0.00000  Uiso   1.00
C139   C     0.19143   0.35806   0.19978   0.00000  Uiso   1.00
C140   C     0.13931   0.64204   0.13648   0.00000  Uiso   1.00
C141   C     0.11906   0.38217   0.09261   0.00000  Uiso   1.00
C142   C     0.22806   0.61822   0.22515   0.00000  Uiso   1.00
C143   C     0.21426   0.38219   0.24072   0.00000  Uiso   1.00
C144   C     0.24586   0.49998   0.16671   0.00000  Uiso   1.00
C145   C     0.10527   0.61821   0.10821   0.00000  Uiso   1.00
C146   C     0.16656   0.50000   0.07366   0.00000  Uiso   1.00
C147   C     0.16677   0.50000   0.25967   0.00000  Uiso   1.00
C148   C     0.16663   0.49999   0.02188   0.00000  Uiso   1.00
C149   C     0.16671   0.49999   0.31146   0.00000  Uiso   1.00
C150   C     0.02130   0.45790   0.16657   0.00000  Uiso   1.00
C151   C     0.31205   0.54183   0.16652   0.00000  Uiso   1.00
C152   C     0.31203   0.45790   0.16667   0.00000  Uiso   1.00
Cu153  Cu    0.16667   0.54689   0.16667   0.00000  Uiso   1.00
Cu154  Cu    0.16667   0.45311   0.16667   0.00000  Uiso   1.00
H155   H     0.03729   0.42506   0.16645   0.00000  Uiso   1.00
H156   H     0.29610   0.57465   0.16608   0.00000  Uiso   1.00
H157   H     0.29603   0.42506   0.16671   0.00000  Uiso   1.00
H158   H     0.03724   0.57465   0.16745   0.00000  Uiso   1.00
H159   H     0.10086   0.41251   0.09869   0.00000  Uiso   1.00
H160   H     0.22364   0.58593   0.24362   0.00000  Uiso   1.00
H161   H     0.23259   0.41244   0.23460   0.00000  Uiso   1.00
H162   H     0.10971   0.58599   0.08962   0.00000  Uiso   1.00
N163   N     0.16667   0.61736   0.16667   0.00000  Uiso   1.00
N164   N     0.16667   0.38264   0.16667   0.00000  Uiso   1.00
O165   O     0.10655   0.53958   0.16666   0.00000  Uiso   1.00
O166   O     0.26259   0.63499   0.22789   0.00000  Uiso   1.00
O167   O     0.21263   0.36794   0.28283   0.00000  Uiso   1.00
O168   O     0.07071   0.63493   0.10560   0.00000  Uiso   1.00
O169   O     0.22679   0.46042   0.16667   0.00000  Uiso   1.00
O170   O     0.22679   0.53958   0.16667   0.00000  Uiso   1.00
O171   O     0.10655   0.46042   0.16666   0.00000  Uiso   1.00
O172   O     0.16667   0.53959   0.09613   0.00000  Uiso   1.00
O173   O     0.16667   0.46041   0.23720   0.00000  Uiso   1.00
O174   O     0.16667   0.53959   0.23720   0.00000  Uiso   1.00
O175   O     0.16667   0.46041   0.09613   0.00000  Uiso   1.00
O176   O     0.12053   0.36780   0.05053   0.00000  Uiso   1.00
C177   C     0.42081   0.49998   0.16663   0.00000  Uiso   1.00
C178   C     0.35462   0.54183   0.16693   0.00000  Uiso   1.00
C179   C     0.62387   0.49990   0.16662   0.00000  Uiso   1.00
C180   C     0.37613   0.49990   0.16672   0.00000  Uiso   1.00
C181   C     0.47523   0.35805   0.13355   0.00000  Uiso   1.00
C182   C     0.52735   0.64205   0.19686   0.00000  Uiso   1.00
C183   C     0.52476   0.35806   0.19978   0.00000  Uiso   1.00
C184   C     0.47265   0.64204   0.13648   0.00000  Uiso   1.00
C185   C     0.45239   0.38217   0.09261   0.00000  Uiso   1.00
C186   C     0.56139   0.61822   0.22515   0.00000  Uiso   1.00
C187   C     0.54760   0.38219   0.24072   0.00000  Uiso   1.00
C188   C     0.57919   0.49998   0.16671   0.00000  Uiso   1.00
C189   C     0.43860   0.61821   0.10821   0.00000  Uiso   1.00
C190   C     0.49989   0.50000   0.07366   0.00000  Uiso   1.00
C191   C     0.50011   0.50000   0.25967   0.00000  Uiso   1.00
C192   C     0.49996   0.49999   0.02188   0.00000  Uiso   1.00
C193   C     0.50004   0.49999   0.31146   0.00000  Uiso   1.00
C194   C     0.35464   0.45790   0.16657   0.00000  Uiso   1.00
C195   C     0.64538   0.54183   0.16652   0.00000  Uiso   1.00
C196   C     0.64536   0.45790   0.16667   0.00000  Uiso   1.00
Cu197  Cu    0.50000   0.54689   0.16667   0.00000  Uiso   1.00
Cu198  Cu    0.50000   0.45311   0.16667   0.00000  Uiso   1.00
H199   H     0.37063   0.42506   0.16645   0.00000  Uiso   1.00
H200   H     0.62943   0.57465   0.16608   0.00000  Uiso   1.00
H201   H     0.62937   0.42506   0.16671   0.00000  Uiso   1.00
H202   H     0.37057   0.57465   0.16745   0.00000  Uiso   1.00
H203   H     0.43419   0.41251   0.09869   0.00000  Uiso   1.00
H204   H     0.55697   0.58593   0.24362   0.00000  Uiso   1.00
H205   H     0.56592   0.41244   0.23460   0.00000  Uiso   1.00
H206   H     0.44305   0.58599   0.08962   0.00000  Uiso   1.00
N207   N     0.50000   0.61736   0.16667   0.00000  Uiso   1.00
N208   N     0.50000   0.38264   0.16667   0.00000  Uiso   1.00
O209   O     0.43988   0.53958   0.16666   0.00000  Uiso   1.00
O210   O     0.59593   0.63499   0.22789   0.00000  Uiso   1.00
O211   O     0.54597   0.36794   0.28283   0.00000  Uiso   1.00
O212   O     0.40404   0.63493   0.10560   0.00000  Uiso   1.00
O213   O     0.56012   0.46042   0.16667   0.00000  Uiso   1.00
O214   O     0.56012   0.53958   0.16667   0.00000  Uiso   1.00
O215   O     0.43988   0.46042   0.16666   0.00000  Uiso   1.00
O216   O     0.50000   0.53959   0.09613   0.00000  Uiso   1.00
O217   O     0.50000   0.46041   0.23720   0.00000  Uiso   1.00
O218   O     0.50000   0.53959   0.23720   0.00000  Uiso   1.00
O219   O     0.50000   0.46041   0.09613   0.00000  Uiso   1.00
O220   O     0.45387   0.36780   0.05053   0.00000  Uiso   1.00
C221   C     0.75414   0.49998   0.16663   0.00000  Uiso   1.00
C222   C     0.68796   0.54183   0.16693   0.00000  Uiso   1.00
C223   C     0.95720   0.49990   0.16662   0.00000  Uiso   1.00
C224   C     0.70946   0.49990   0.16672   0.00000  Uiso   1.00
C225   C     0.80857   0.35805   0.13355   0.00000  Uiso   1.00
C226   C     0.86068   0.64205   0.19686   0.00000  Uiso   1.00
C227   C     0.85810   0.35806   0.19978   0.00000  Uiso   1.00
C228   C     0.80598   0.64204   0.13648   0.00000  Uiso   1.00
C229   C     0.78572   0.38217   0.09261   0.00000  Uiso   1.00
C230   C     0.89472   0.61822   0.22515   0.00000  Uiso   1.00
C231   C     0.88093   0.38219   0.24072   0.00000  Uiso   1.00
C232   C     0.91252   0.49998   0.16671   0.00000  Uiso   1.00
C233   C     0.77194   0.61821   0.10821   0.00000  Uiso   1.00
C234   C     0.83323   0.50000   0.07366   0.00000  Uiso   1.00
C235   C     0.83344   0.50000   0.25967   0.00000  Uiso   1.00
C236   C     0.83329   0.49999   0.02188   0.00000  Uiso   1.00
C237   C     0.83337   0.49999   0.31146   0.00000  Uiso   1.00
C238   C     0.68797   0.45790   0.16657   0.00000  Uiso   1.00
C239   C     0.97871   0.54183   0.16652   0.00000  Uiso   1.00
C240   C     0.97870   0.45790   0.16667   0.00000  Uiso   1.00
Cu241  Cu    0.83333   0.54689   0.16667   0.00000  Uiso   1.00
Cu242  Cu    0.83333   0.45311   0.16667   0.00000  Uiso   1.00
H243   H     0.70396   0.42506   0.16645   0.00000  Uiso   1.00
H244   H     0.96277   0.57465   0.16608   0.00000  Uiso   1.00
H245   H     0.96270   0.42506   0.16671   0.00000  Uiso   1.00
H246   H     0.70390   0.57465   0.16745   0.00000  Uiso   1.00
H247   H     0.76753   0.41251   0.09869   0.00000  Uiso   1.00
H248   H     0.89030   0.58593   0.24362   0.00000  Uiso   1.00
H249   H     0.89925   0.41244   0.23460   0.00000  Uiso   1.00
H250   H     0.77638   0.58599   0.08962   0.00000  Uiso   1.00
N251   N     0.83333   0.61736   0.16667   0.00000  Uiso   1.00
N252   N     0.83333   0.38264   0.16667   0.00000  Uiso   1.00
O253   O     0.77321   0.53958   0.16666   0.00000  Uiso   1.00
O254   O     0.92926   0.63499   0.22789   0.00000  Uiso   1.00
O255   O     0.87930   0.36794   0.28283   0.00000  Uiso   1.00
O256   O     0.73738   0.63493   0.10560   0.00000  Uiso   1.00
O257   O     0.89345   0.46042   0.16667   0.00000  Uiso   1.00
O258   O     0.89345   0.53958   0.16667   0.00000  Uiso   1.00
O259   O     0.77321   0.46042   0.16666   0.00000  Uiso   1.00
O260   O     0.83333   0.53959   0.09613   0.00000  Uiso   1.00
O261   O     0.83333   0.46041   0.23720   0.00000  Uiso   1.00
O262   O     0.83333   0.53959   0.23720   0.00000  Uiso   1.00
O263   O     0.83333   0.46041   0.09613   0.00000  Uiso   1.00
O264   O     0.78720   0.36780   0.05053   0.00000  Uiso   1.00
C265   C     0.08748   0.83331   0.16663   0.00000  Uiso   1.00
C266   C     0.02129   0.87516   0.16693   0.00000  Uiso   1.00
C267   C     0.29054   0.83323   0.16662   0.00000  Uiso   1.00
C268   C     0.04280   0.83323   0.16672   0.00000  Uiso   1.00
C269   C     0.14190   0.69138   0.13355   0.00000  Uiso   1.00
C270   C     0.19402   0.97538   0.19686   0.00000  Uiso   1.00
C271   C     0.19143   0.69139   0.19978   0.00000  Uiso   1.00
C272   C     0.13931   0.97538   0.13648   0.00000  Uiso   1.00
C273   C     0.11906   0.71550   0.09261   0.00000  Uiso   1.00
C274   C     0.22806   0.95155   0.22515   0.00000  Uiso   1.00
C275   C     0.21426   0.71552   0.24072   0.00000  Uiso   1.00
C276   C     0.24586   0.83331   0.16671   0.00000  Uiso   1.00
C277   C     0.10527   0.95155   0.10821   0.00000  Uiso   1.00
C278   C     0.16656   0.83333   0.07366   0.00000  Uiso   1.00
C279   C     0.16677   0.83333   0.25967   0.00000  Uiso   1.00
C280   C     0.16663   0.83332   0.02188   0.00000  Uiso   1.00
C281   C     0.16671   0.83332   0.31146   0.00000  Uiso   1.00
C282   C     0.02130   0.79124   0.16657   0.00000  Uiso   1.00
C283   C     0.31205   0.87516   0.16652   0.00000  Uiso   1.00
C284   C     0.31203   0.79124   0.16667   0.00000  Uiso   1.00
Cu285  Cu    0.16667   0.88022   0.16667   0.00000  Uiso   1.00
Cu286  Cu    0.16667   0.78645   0.16667   0.00000  Uiso   1.00
H287   H     0.03729   0.75840   0.16645   0.00000  Uiso   1.00
H288   H     0.29610   0.90799   0.16608   0.00000  Uiso   1.00
H289   H     0.29603   0.75840   0.16671   0.00000  Uiso   1.00
H290   H     0.03724   0.90799   0.16745   0.00000  Uiso   1.00
H291   H     0.10086   0.74585   0.09869   0.00000  Uiso   1.00
H292   H     0.22364   0.91926   0.24362   0.00000  Uiso   1.00
H293   H     0.23259   0.74577   0.23460   0.00000  Uiso   1.00
H294   H     0.10971   0.91932   0.08962   0.00000  Uiso   1.00
N295   N     0.16667   0.95069   0.16667   0.00000  Uiso   1.00
N296   N     0.16667   0.71598   0.16667   0.00000  Uiso   1.00
O297   O     0.10655   0.87291   0.16666   0.00000  Uiso   1.00
O298   O     0.26259   0.96832   0.22789   0.00000  Uiso   1.00
O299   O     0.21263   0.70127   0.28283   0.00000  Uiso   1.00
O300   O     0.07071   0.96826   0.10560   0.00000  Uiso   1.00
O301   O     0.22679   0.79375   0.16667   0.00000  Uiso   1.00
O302   O     0.22679   0.87291   0.16667   0.00000  Uiso   1.00
O303   O     0.10655   0.79375   0.16666   0.00000  Uiso   1.00
O304   O     0.16667   0.87292   0.09613   0.00000  Uiso   1.00
O305   O     0.16667   0.79375   0.23720   0.00000  Uiso   1.00
O306   O     0.16667   0.87292   0.23720   0.00000  Uiso   1.00
O307   O     0.16667   0.79375   0.09613   0.00000  Uiso   1.00
O308   O     0.12053   0.70114   0.05053   0.00000  Uiso   1.00
C309   C     0.42081   0.83331   0.16663   0.00000  Uiso   1.00
C310   C     0.35462   0.87516   0.16693   0.00000  Uiso   1.00
C311   C     0.62387   0.83323   0.16662   0.00000  Uiso   1.00
C312   C     0.37613   0.83323   0.16672   0.00000  Uiso   1.00
C313   C     0.47523   0.69138   0.13355   0.00000  Uiso   1.00
C314   C     0.52735   0.97538   0.19686   0.00000  Uiso   1.00
C315   C     0.52476   0.69139   0.19978   0.00000  Uiso   1.00
C316   C     0.47265   0.97538   0.13648   0.00000  Uiso   1.00
C317   C     0.45239   0.71550   0.09261   0.00000  Uiso   1.00
C318   C     0.56139   0.95155   0.22515   0.00000  Uiso   1.00
C319   C     0.54760   0.71552   0.24072   0.00000  Uiso   1.00
C320   C     0.57919   0.83331   0.16671   0.00000  Uiso   1.00
C321   C     0.43860   0.95155   0.10821   0.00000  Uiso   1.00
C322   C     0.49989   0.83333   0.07366   0.00000  Uiso   1.00
C323   C     0.50011   0.83333   0.25967   0.00000  Uiso   1.00
C324   C     0.49996   0.83332   0.02188   0.00000  Uiso   1.00
C325   C     0.50004   0.83332   0.31146   0.00000  Uiso   1.00
C326   C     0.35464   0.79124   0.16657   0.00000  Uiso   1.00
C327   C     0.64538   0.87516   0.16652   0.00000  Uiso   1.00
C328   C     0.64536   0.79124   0.16667   0.00000  Uiso   1.00
Cu329  Cu    0.50000   0.88022   0.16667   0.00000  Uiso   1.00
Cu330  Cu    0.50000   0.78645   0.16667   0.00000  Uiso   1.00
H331   H     0.37063   0.75840   0.16645   0.00000  Uiso   1.00
H332   H     0.62943   0.90799   0.16608   0.00000  Uiso   1.00
H333   H     0.62937   0.75840   0.16671   0.00000  Uiso   1.00
H334   H     0.37057   0.90799   0.16745   0.00000  Uiso   1.00
H335   H     0.43419   0.74585   0.09869   0.00000  Uiso   1.00
H336   H     0.55697   0.91926   0.24362   0.00000  Uiso   1.00
H337   H     0.56592   0.74577   0.23460   0.00000  Uiso   1.00
H338   H     0.44305   0.91932   0.08962   0.00000  Uiso   1.00
N339   N     0.50000   0.95069   0.16667   0.00000  Uiso   1.00
N340   N     0.50000   0.71598   0.16667   0.00000  Uiso   1.00
O341   O     0.43988   0.87291   0.16666   0.00000  Uiso   1.00
O342   O     0.59593   0.96832   0.22789   0.00000  Uiso   1.00
O343   O     0.54597   0.70127   0.28283   0.00000  Uiso   1.00
O344   O     0.40404   0.96826   0.10560   0.00000  Uiso   1.00
O345   O     0.56012   0.79375   0.16667   0.00000  Uiso   1.00
O346   O     0.56012   0.87291   0.16667   0.00000  Uiso   1.00
O347   O     0.43988   0.79375   0.16666   0.00000  Uiso   1.00
O348   O     0.50000   0.87292   0.09613   0.00000  Uiso   1.00
O349   O     0.50000   0.79375   0.23720   0.00000  Uiso   1.00
O350   O     0.50000   0.87292   0.23720   0.00000  Uiso   1.00
O351   O     0.50000   0.79375   0.09613   0.00000  Uiso   1.00
O352   O     0.45387   0.70114   0.05053   0.00000  Uiso   1.00
C353   C     0.75414   0.83331   0.16663   0.00000  Uiso   1.00
C354   C     0.68796   0.87516   0.16693   0.00000  Uiso   1.00
C355   C     0.95720   0.83323   0.16662   0.00000  Uiso   1.00
C356   C     0.70946   0.83323   0.16672   0.00000  Uiso   1.00
C357   C     0.80857   0.69138   0.13355   0.00000  Uiso   1.00
C358   C     0.86068   0.97538   0.19686   0.00000  Uiso   1.00
C359   C     0.85810   0.69139   0.19978   0.00000  Uiso   1.00
C360   C     0.80598   0.97538   0.13648   0.00000  Uiso   1.00
C361   C     0.78572   0.71550   0.09261   0.00000  Uiso   1.00
C362   C     0.89472   0.95155   0.22515   0.00000  Uiso   1.00
C363   C     0.88093   0.71552   0.24072   0.00000  Uiso   1.00
C364   C     0.91252   0.83331   0.16671   0.00000  Uiso   1.00
C365   C     0.77194   0.95155   0.10821   0.00000  Uiso   1.00
C366   C     0.83323   0.83333   0.07366   0.00000  Uiso   1.00
C367   C     0.83344   0.83333   0.25967   0.00000  Uiso   1.00
C368   C     0.83329   0.83332   0.02188   0.00000  Uiso   1.00
C369   C     0.83337   0.83332   0.31146   0.00000  Uiso   1.00
C370   C     0.68797   0.79124   0.16657   0.00000  Uiso   1.00
C371   C     0.97871   0.87516   0.16652   0.00000  Uiso   1.00
C372   C     0.97870   0.79124   0.16667   0.00000  Uiso   1.00
Cu373  Cu    0.83333   0.88022   0.16667   0.00000  Uiso   1.00
Cu374  Cu    0.83333   0.78645   0.16667   0.00000  Uiso   1.00
H375   H     0.70396   0.75840   0.16645   0.00000  Uiso   1.00
H376   H     0.96277   0.90799   0.16608   0.00000  Uiso   1.00
H377   H     0.96270   0.75840   0.16671   0.00000  Uiso   1.00
H378   H     0.70390   0.90799   0.16745   0.00000  Uiso   1.00
H379   H     0.76753   0.74585   0.09869   0.00000  Uiso   1.00
H380   H     0.89030   0.91926   0.24362   0.00000  Uiso   1.00
H381   H     0.89925   0.74577   0.23460   0.00000  Uiso   1.00
H382   H     0.77638   0.91932   0.08962   0.00000  Uiso   1.00
N383   N     0.83333   0.95069   0.16667   0.00000  Uiso   1.00
N384   N     0.83333   0.71598   0.16667   0.00000  Uiso   1.00
O385   O     0.77321   0.87291   0.16666   0.00000  Uiso   1.00
O386   O     0.92926   0.96832   0.22789   0.00000  Uiso   1.00
O387   O     0.87930   0.70127   0.28283   0.00000  Uiso   1.00
O388   O     0.73738   0.96826   0.10560   0.00000  Uiso   1.00
O389   O     0.89345   0.79375   0.16667   0.00000  Uiso   1.00
O390   O     0.89345   0.87291   0.16667   0.00000  Uiso   1.00
O391   O     0.77321   0.79375   0.16666   0.00000  Uiso   1.00
O392   O     0.83333   0.87292   0.09613   0.00000  Uiso   1.00
O393   O     0.83333   0.79375   0.23720   0.00000  Uiso   1.00
O394   O     0.83333   0.87292   0.23720   0.00000  Uiso   1.00
O395   O     0.83333   0.79375   0.09613   0.00000  Uiso   1.00
O396   O     0.78720   0.70114   0.05053   0.00000  Uiso   1.00
C397   C     0.08748   0.16665   0.49996   0.00000  Uiso   1.00
C398   C     0.02129   0.20850   0.50026   0.00000  Uiso   1.00
C399   C     0.29054   0.16656   0.49995   0.00000  Uiso   1.00
C400   C     0.04280   0.16656   0.50005   0.00000  Uiso   1.00
C401   C     0.14190   0.02472   0.46688   0.00000  Uiso   1.00
C402   C     0.19402   0.30871   0.53019   0.00000  Uiso   1.00
C403   C     0.19143   0.02472   0.53311   0.00000  Uiso   1.00
C404   C     0.13931   0.30871   0.46981   0.00000  Uiso   1.00
C405   C     0.11906   0.04884   0.42594   0.00000  Uiso   1.00
C406   C     0.22806   0.28488   0.55849   0.00000  Uiso   1.00
C407   C     0.21426   0.04886   0.57405   0.00000  Uiso   1.00
C408   C     0.24586   0.16665   0.50004   0.00000  Uiso   1.00
C409   C     0.10527   0.28488   0.44154   0.00000  Uiso   1.00
C410   C     0.16656   0.16666   0.40700   0.00000  Uiso   1.00
C411   C     0.16677   0.16666   0.59300   0.00000  Uiso   1.00
C412   C     0.16663   0.16665   0.35521   0.00000  Uiso   1.00
C413   C     0.16671   0.16665   0.64479   0.00000  Uiso   1.00
C414   C     0.02130   0.12457   0.49991   0.00000  Uiso   1.00
C415   C     0.31205   0.20850   0.49985   0.00000  Uiso   1.00
C416   C     0.31203   0.12457   0.50000   0.00000  Uiso   1.00
Cu417  Cu    0.16667   0.21355   0.50000   0.00000  Uiso   1.00
Cu418  Cu    0.16667   0.11978   0.50000   0.00000  Uiso   1.00
H419   H     0.03729   0.09173   0.49978   0.00000  Uiso   1.00
H420   H     0.29610   0.24132   0.49941   0.00000  Uiso   1.00
H421   H     0.29603   0.09173   0.50005   0.00000  Uiso   1.00
H422   H     0.03724   0.24132   0.50078   0.00000  Uiso   1.00
H423   H     0.10086   0.07918   0.43202   0.00000  Uiso   1.00
H424   H     0.22364   0.25259   0.57695   0.00000  Uiso   1.00
H425   H     0.23259   0.07910   0.56793   0.00000  Uiso   1.00
H426   H     0.10971   0.25266   0.42295   0.00000  Uiso   1.00
N427   N     0.16667   0.28402   0.50000   0.00000  Uiso   1.00
N428   N     0.16667   0.04931   0.50000   0.00000  Uiso   1.00
O429   O     0.10655   0.20625   0.50000   0.00000  Uiso   1.00
O430   O     0.26259   0.30165   0.56123   0.00000  Uiso   1.00
O431   O     0.21263   0.03460   0.61616   0.00000  Uiso   1.00
O432   O     0.07071   0.30160   0.43893   0.00000  Uiso   1.00
O433   O     0.22679   0.12709   0.50000   0.00000  Uiso   1.00
O434   O     0.22679   0.20625   0.50000   0.00000  Uiso   1.00
O435   O     0.10655   0.12709   0.50000   0.00000  Uiso   1.00
O436   O     0.16667   0.20625   0.42946   0.00000  Uiso   1.00
O437   O     0.16667   0.12708   0.57054   0.00000  Uiso   1.00
O438   O     0.16667   0.20625   0.57054   0.00000  Uiso   1.00
O439   O     0.16667   0.12708   0.42946   0.00000  Uiso   1.00
O440   O     0.12053   0.03447   0.38387   0.00000  Uiso   1.00
C441   C     0.42081   0.16665   0.49996   0.00000  Uiso   1.00
C442   C     0.35462   0.20850   0.50026   0.00000  Uiso   1.00
C443   C     0.62387   0.16656   0.49995   0.00000  Uiso   1.00
C444   C     0.37613   0.16656   0.50005   0.00000  Uiso   1.00
C445   C     0.47523   0.02472   0.46688   0.00000  Uiso   1.00
C446   C     0.52735   0.30871   0.53019   0.00000  Uiso   1.00
C447   C     0.52476   0.02472   0.53311   0.00000  Uiso   1.00
C448   C     0.47265   0.30871   0.46981   0.00000  Uiso   1.00
C449   C     0.45239   0.04884   0.42594   0.00000  Uiso   1.00
C450   C     0.56139   0.28488   0.55849   0.00000  Uiso   1.00
C451   C     0.54760   0.04886   0.57405   0.00000  Uiso   1.00
C452   C     0.57919   0.16665   0.50004   0.00000  Uiso   1.00
C453   C     0.43860   0.28488   0.44154   0.00000  Uiso   1.00
C454   C     0.49989   0.16666   0.40700   0.00000  Uiso   1.00
C455   C     0.50011   0.16666   0.59300   0.00000  Uiso   1.00
C456   C     0.49996   0.16665   0.35521   0.00000  Uiso   1.00
C457   C     0.50004   0.16665   0.64479   0.00000  Uiso   1.00
C458   C     0.35464   0.12457   0.49991   0.00000  Uiso   1.00
C459   C     0.64538   0.20850   0.49985   0.00000  Uiso   1.00
C460   C     0.64536   0.12457   0.50000   0.00000  Uiso   1.00
Cu461  Cu    0.50000   0.21355   0.50000   0.00000  Uiso   1.00
Cu462  Cu    0.50000   0.11978   0.50000   0.00000  Uiso   1.00
H463   H     0.37063   0.09173   0.49978   0.00000  Uiso   1.00
H464   H     0.62943   0.24132   0.49941   0.00000  Uiso   1.00
H465   H     0.62937   0.09173   0.50005   0.00000  Uiso   1.00
H466   H     0.37057   0.24132   0.50078   0.00000  Uiso   1.00
H467   H     0.43419   0.07918   0.43202   0.00000  Uiso   1.00
H468   H     0.55697   0.25259   0.57695   0.00000  Uiso   1.00
H469   H     0.56592   0.07910   0.56793   0.00000  Uiso   1.00
H470   H     0.44305   0.25266   0.42295   0.00000  Uiso   1.00
N471   N     0.50000   0.28402   0.50000   0.00000  Uiso   1.00
N472   N     0.50000   0.04931   0.50000   0.00000  Uiso   1.00
O473   O     0.43988   0.20625   0.50000   0.00000  Uiso   1.00
O474   O     0.59593   0.30165   0.56123   0.00000  Uiso   1.00
O475   O     0.54597   0.03460   0.61616   0.00000  Uiso   1.00
O476   O     0.40404   0.30160   0.43893   0.00000  Uiso   1.00
O477   O     0.56012   0.12709   0.50000   0.00000  Uiso   1.00
O478   O     0.56012   0.20625   0.50000   0.00000  Uiso   1.00
O479   O     0.43988   0.12709   0.50000   0.00000  Uiso   1.00
O480   O     0.50000   0.20625   0.42946   0.00000  Uiso   1.00
O481   O     0.50000   0.12708   0.57054   0.00000  Uiso   1.00
O482   O     0.50000   0.20625   0.57054   0.00000  Uiso   1.00
O483   O     0.50000   0.12708   0.42946   0.00000  Uiso   1.00
O484   O     0.45387   0.03447   0.38387   0.00000  Uiso   1.00
C485   C     0.75414   0.16665   0.49996   0.00000  Uiso   1.00
C486   C     0.68796   0.20850   0.50026   0.00000  Uiso   1.00
C487   C     0.95720   0.16656   0.49995   0.00000  Uiso   1.00
C488   C     0.70946   0.16656   0.50005   0.00000  Uiso   1.00
C489   C     0.80857   0.02472   0.46688   0.00000  Uiso   1.00
C490   C     0.86068   0.30871   0.53019   0.00000  Uiso   1.00
C491   C     0.85810   0.02472   0.53311   0.00000  Uiso   1.00
C492   C     0.80598   0.30871   0.46981   0.00000  Uiso   1.00
C493   C     0.78572   0.04884   0.42594   0.00000  Uiso   1.00
C494   C     0.89472   0.28488   0.55849   0.00000  Uiso   1.00
C495   C     0.88093   0.04886   0.57405   0.00000  Uiso   1.00
C496   C     0.91252   0.16665   0.50004   0.00000  Uiso   1.00
C497   C     0.77194   0.28488   0.44154   0.00000  Uiso   1.00
C498   C     0.83323   0.16666   0.40700   0.00000  Uiso   1.00
C499   C     0.83344   0.16666   0.59300   0.00000  Uiso   1.00
C500   C     0.83329   0.16665   0.35521   0.00000  Uiso   1.00
C501   C     0.83337   0.16665   0.64479   0.00000  Uiso   1.00
C502   C     0.68797   0.12457   0.49991   0.00000  Uiso   1.00
C503   C     0.97871   0.20850   0.49985   0.00000  Uiso   1.00
C504   C     0.97870   0.12457   0.50000   0.00000  Uiso   1.00
Cu505  Cu    0.83333   0.21355   0.50000   0.00000  Uiso   1.00
Cu506  Cu    0.83333   0.11978   0.50000   0.00000  Uiso   1.00
H507   H     0.70396   0.09173   0.49978   0.00000  Uiso   1.00
H508   H     0.96277   0.24132   0.49941   0.00000  Uiso   1.00
H509   H     0.96270   0.09173   0.50005   0.00000  Uiso   1.00
H510   H     0.70390   0.24132   0.50078   0.00000  Uiso   1.00
H511   H     0.76753   0.07918   0.43202   0.00000  Uiso   1.00
H512   H     0.89030   0.25259   0.57695   0.00000  Uiso   1.00
H513   H     0.89925   0.07910   0.56793   0.00000  Uiso   1.00
H514   H     0.77638   0.25266   0.42295   0.00000  Uiso   1.00
N515   N     0.83333   0.28402   0.50000   0.00000  Uiso   1.00
N516   N     0.83333   0.04931   0.50000   0.00000  Uiso   1.00
O517   O     0.77321   0.20625   0.50000   0.00000  Uiso   1.00
O518   O     0.92926   0.30165   0.56123   0.00000  Uiso   1.00
O519   O     0.87930   0.03460   0.61616   0.00000  Uiso   1.00
O520   O     0.73738   0.30160   0.43893   0.00000  Uiso   1.00
O521   O     0.89345   0.12709   0.50000   0.00000  Uiso   1.00
O522   O     0.89345   0.20625   0.50000   0.00000  Uiso   1.00
O523   O     0.77321   0.12709   0.50000   0.00000  Uiso   1.00
O524   O     0.83333   0.20625   0.42946   0.00000  Uiso   1.00
O525   O     0.83333   0.12708   0.57054   0.00000  Uiso   1.00
O526   O     0.83333   0.20625   0.57054   0.00000  Uiso   1.00
O527   O     0.83333   0.12708   0.42946   0.00000  Uiso   1.00
O528   O     0.78720   0.03447   0.38387   0.00000  Uiso   1.00
C529   C     0.08748   0.49998   0.49996   0.00000  Uiso   1.00
C530   C     0.02129   0.54183   0.50026   0.00000  Uiso   1.00
C531   C     0.29054   0.49990   0.49995   0.00000  Uiso   1.00
C532   C     0.04280   0.49990   0.50005   0.00000  Uiso   1.00
C533   C     0.14190   0.35805   0.46688   0.00000  Uiso   1.00
C534   C     0.19402   0.64205   0.53019   0.00000  Uiso   1.00
C535   C     0.19143   0.35806   0.53311   0.00000  Uiso   1.00
C536   C     0.13931   0.64204   0.46981   0.00000  Uiso   1.00
C537   C     0.11906   0.38217   0.42594   0.00000  Uiso   1.00
C538   C     0.22806   0.61822   0.55849   0.00000  Uiso   1.00
C539   C     0.21426   0.38219   0.57405   0.00000  Uiso   1.00
C540   C     0.24586   0.49998   0.50004   0.00000  Uiso   1.00
C541   C     0.10527   0.61821   0.44154   0.00000  Uiso   1.00
C542   C     0.16656   0.50000   0.40700   0.00000  Uiso   1.00
C543   C     0.16677   0.50000   0.59300   0.00000  Uiso   1.00
C544   C     0.16663   0.49999   0.35521   0.00000  Uiso   1.00
C545   C     0.16671   0.49999   0.64479   0.00000  Uiso   1.00
C546   C     0.02130   0.45790   0.49991   0.00000  Uiso   1.00
C547   C     0.31205   0.54183   0.49985   0.00000  Uiso   1.00
C548   C     0.31203   0.45790   0.50000   0.00000  Uiso   1.00
Cu549  Cu    0.16667   0.54689   0.50000   0.00000  Uiso   1.00
Cu550  Cu    0.16667   0.45311   0.50000   0.00000  Uiso   1.00
H551   H     0.03729   0.42506   0.49978   0.00000  Uiso   1.00
H552   H     0.29610   0.57465   0.49941   0.00000  Uiso   1.00
H553   H     0.29603   0.42506   0.50005   0.00000  Uiso   1.00
H554   H     0.03724   0.57465   0.50078   0.00000  Uiso   1.00
H555   H     0.10086   0.41251   0.43202   0.00000  Uiso   1.00
H556   H     0.22364   0.58593   0.57695   0.00000  Uiso   1.00
H557   H     0.23259   0.41244   0.56793   0.00000  Uiso   1.00
H558   H     0.10971   0.58599   0.42295   0.00000  Uiso   1.00
N559   N     0.16667   0.61736   0.50000   0.00000  Uiso   1.00
N560   N     0.16667   0.38264   0.50000   0.00000  Uiso   1.00
O561   O     0.10655   0.53958   0.50000   0.00000  Uiso   1.00
O562   O     0.26259   0.63499   0.56123   0.00000  Uiso   1.00
O563   O     0.21263   0.36794   0.61616   0.00000  Uiso   1.00
O564   O     0.07071   0.63493   0.43893   0.00000  Uiso   1.00
O565   O     0.22679   0.46042   0.50000   0.00000  Uiso   1.00
O566   O     0.22679   0.53958   0.50000   0.00000  Uiso   1.00
O567   O     0.10655   0.46042   0.50000   0.00000  Uiso   1.00
O568   O     0.16667   0.53959   0.42946   0.00000  Uiso   1.00
O569   O     0.16667   0.46041   0.57054   0.00000  Uiso   1.00
O570   O     0.16667   0.53959   0.57054   0.00000  Uiso   1.00
O571   O     0.16667   0.46041   0.42946   0.00000  Uiso   1.00
O572   O     0.12053   0.36780   0.38387   0.00000  Uiso   1.00
C573   C     0.42081   0.49998   0.49996   0.00000  Uiso   1.00
C574   C     0.35462   0.54183   0.50026   0.00000  Uiso   1.00
C575   C     0.62387   0.49990   0.49995   0.00000  Uiso   1.00
C576   C     0.37613   0.49990   0.50005   0.00000  Uiso   1.00
C577   C     0.47523   0.35805   0.46688   0.00000  Uiso   1.00
C578   C     0.52735   0.64205   0.53019   0.00000  Uiso   1.00
C579   C     0.52476   0.35806   0.53311   0.00000  Uiso   1.00
C580   C     0.47265   0.64204   0.46981   0.00000  Uiso   1.00
C581   C     0.45239   0.38217   0.42594   0.00000  Uiso   1.00
C582   C     0.56139   0.61822   0.55849   0.00000  Uiso   1.00
C583   C     0.54760   0.38219   0.57405   0.00000  Uiso   1.00
C584   C     0.57919   0.49998   0.50004   0.00000  Uiso   1.00
C585   C     0.43860   0.61821   0.44154   0.00000  Uiso   1.00
C586   C     0.49989   0.50000   0.40700   0.00000  Uiso   1.00
C587   C     0.50011   0.50000   0.59300   0.00000  Uiso   1.00
C588   C     0.49996   0.49999   0.35521   0.00000  Uiso   1.00
C589   C     0.50004   0.49999   0.64479   0.00000  Uiso   1.00
C590   C     0.35464   0.45790   0.49991   0.00000  Uiso   1.00
C591   C     0.64538   0.54183   0.49985   0.00000  Uiso   1.00
C592   C     0.64536   0.45790   0.50000   0.00000  Uiso   1.00
Cu593  Cu    0.50000   0.54689   0.50000   0.00000  Uiso   1.00
Cu594  Cu    0.50000   0.45311   0.50000   0.00000  Uiso   1.00
H595   H     0.37063   0.42506   0.49978   0.00000  Uiso   1.00
H596   H     0.62943   0.57465   0.49941   0.00000  Uiso   1.00
H597   H     0.62937   0.42506   0.50005   0.00000  Uiso   1.00
H598   H     0.37057   0.57465   0.50078   0.00000  Uiso   1.00
H599   H     0.43419   0.41251   0.43202   0.00000  Uiso   1.00
H600   H     0.55697   0.58593   0.57695   0.00000  Uiso   1.00
H601   H     0.56592   0.41244   0.56793   0.00000  Uiso   1.00
H602   H     0.44305   0.58599   0.42295   0.00000  Uiso   1.00
N603   N     0.50000   0.61736   0.50000   0.00000  Uiso   1.00
N604   N     0.50000   0.38264   0.50000   0.00000  Uiso   1.00
O605   O     0.43988   0.53958   0.50000   0.00000  Uiso   1.00
O606   O     0.59593   0.63499   0.56123   0.00000  Uiso   1.00
O607   O     0.54597   0.36794   0.61616   0.00000  Uiso   1.00
O608   O     0.40404   0.63493   0.43893   0.00000  Uiso   1.00
O609   O     0.56012   0.46042   0.50000   0.00000  Uiso   1.00
O610   O     0.56012   0.53958   0.50000   0.00000  Uiso   1.00
O611   O     0.43988   0.46042   0.50000   0.00000  Uiso   1.00
O612   O     0.50000   0.53959   0.42946   0.00000  Uiso   1.00
O613   O     0.50000   0.46041   0.57054   0.00000  Uiso   1.00
O614   O     0.50000   0.53959   0.57054   0.00000  Uiso   1.00
O615   O     0.50000   0.46041   0.42946   0.00000  Uiso   1.00
O616   O     0.45387   0.36780   0.38387   0.00000  Uiso   1.00
C617   C     0.75414   0.49998   0.49996   0.00000  Uiso   1.00
C618   C     0.68796   0.54183   0.50026   0.00000  Uiso   1.00
C619   C     0.95720   0.49990   0.49995   0.00000  Uiso   1.00
C620   C     0.70946   0.49990   0.50005   0.00000  Uiso   1.00
C621   C     0.80857   0.35805   0.46688   0.00000  Uiso   1.00
C622   C     0.86068   0.64205   0.53019   0.00000  Uiso   1.00
C623   C     0.85810   0.35806   0.53311   0.00000  Uiso   1.00
C624   C     0.80598   0.64204   0.46981   0.00000  Uiso   1.00
C625   C     0.78572   0.38217   0.42594   0.00000  Uiso   1.00
C626   C     0.89472   0.61822   0.55849   0.00000  Uiso   1.00
C627   C     0.88093   0.38219   0.57405   0.00000  Uiso   1.00
C628   C     0.91252   0.49998   0.50004   0.00000  Uiso   1.00
C629   C     0.77194   0.61821   0.44154   0.00000  Uiso   1.00
C630   C     0.83323   0.50000   0.40700   0.00000  Uiso   1.00
C631   C     0.83344   0.50000   0.59300   0.00000  Uiso   1.00
C632   C     0.83329   0.49999   0.35521   0.00000  Uiso   1.00
C633   C     0.83337   0.49999   0.64479   0.00000  Uiso   1.00
C634   C     0.68797   0.45790   0.49991   0.00000  Uiso   1.00
C635   C     0.97871   0.54183   0.49985   0.00000  Uiso   1.00
C636   C     0.97870   0.45790   0.50000   0.00000  Uiso   1.00
Cu637  Cu    0.83333   0.54689   0.50000   0.00000  Uiso   1.00
Cu638  Cu    0.83333   0.45311   0.50000   0.00000  Uiso   1.00
H639   H     0.70396   0.42506   0.49978   0.00000  Uiso   1.00
H640   H     0.96277   0.57465   0.49941   0.00000  Uiso   1.00
H641   H     0.96270   0.42506   0.50005   0.00000  Uiso   1.00
H642   H     0.70390   0.57465   0.50078   0.00000  Uiso   1.00
H643   H     0.76753   0.41251   0.43202   0.00000  Uiso   1.00
H644   H     0.89030   0.58593   0.57695   0.00000  Uiso   1.00
H645   H     0.89925   0.41244   0.56793   0.00000  Uiso   1.00
H646   H     0.77638   0.58599   0.42295   0.00000  Uiso   1.00
N647   N     0.83333   0.61736   0.50000   0.00000  Uiso   1.00
N648   N     0.83333   0.38264   0.50000   0.00000  Uiso   1.00
O649   O     0.77321   0.53958   0.50000   0.00000  Uiso   1.00
O650   O     0.92926   0.63499   0.56123   0.00000  Uiso   1.00
O651   O     0.87930   0.36794   0.61616   0.00000  Uiso   1.00
O652   O     0.73738   0.63493   0.43893   0.00000  Uiso   1.00
O653   O     0.89345   0.46042   0.50000   0.00000  Uiso   1.00
O654   O     0.89345   0.53958   0.50000   0.00000  Uiso   1.00
O655   O     0.77321   0.46042   0.50000   0.00000  Uiso   1.00
O656   O     0.83333   0.53959   0.42946   0.00000  Uiso   1.00
O657   O     0.83333   0.46041   0.57054   0.00000  Uiso   1.00
O658   O     0.83333   0.53959   0.57054   0.00000  Uiso   1.00
O659   O     0.83333   0.46041   0.42946   0.00000  Uiso   1.00
O660   O     0.78720   0.36780   0.38387   0.00000  Uiso   1.00
C661   C     0.08748   0.83331   0.49996   0.00000  Uiso   1.00
C662   C     0.02129   0.87516   0.50026   0.00000  Uiso   1.00
C663   C     0.29054   0.83323   0.49995   0.00000  Uiso   1.00
C664   C     0.04280   0.83323   0.50005   0.00000  Uiso   1.00
C665   C     0.14190   0.69138   0.46688   0.00000  Uiso   1.00
C666   C     0.19402   0.97538   0.53019   0.00000  Uiso   1.00
C667   C     0.19143   0.69139   0.53311   0.00000  Uiso   1.00
C668   C     0.13931   0.97538   0.46981   0.00000  Uiso   1.00
C669   C     0.11906   0.71550   0.42594   0.00000  Uiso   1.00
C670   C     0.22806   0.95155   0.55849   0.00000  Uiso   1.00
C671   C     0.21426   0.71552   0.57405   0.00000  Uiso   1.00
C672   C     0.24586   0.83331   0.50004   0.00000  Uiso   1.00
C673   C     0.10527   0.95155   0.44154   0.00000  Uiso   1.00
C674   C     0.16656   0.83333   0.40700   0.00000  Uiso   1.00
C675   C     0.16677   0.83333   0.59300   0.00000  Uiso   1.00
C676   C     0.16663   0.83332   0.35521   0.00000  Uiso   1.00
C677   C     0.16671   0.83332   0.64479   0.00000  Uiso   1.00
C678   C     0.02130   0.79124   0.49991   0.00000  Uiso   1.00
C679   C     0.31205   0.87516   0.49985   0.00000  Uiso   1.00
C680   C     0.31203   0.79124   0.50000   0.00000  Uiso   1.00
Cu681  Cu    0.16667   0.88022   0.50000   0.00000  Uiso   1.00
Cu682  Cu    0.16667   0.78645   0.50000   0.00000  Uiso   1.00
H683   H     0.03729   0.75840   0.49978   0.00000  Uiso   1.00
H684   H     0.29610   0.90799   0.49941   0.00000  Uiso   1.00
H685   H     0.29603   0.75840   0.50005   0.00000  Uiso   1.00
H686   H     0.03724   0.90799   0.50078   0.00000  Uiso   1.00
H687   H     0.10086   0.74585   0.43202   0.00000  Uiso   1.00
H688   H     0.22364   0.91926   0.57695   0.00000  Uiso   1.00
H689   H     0.23259   0.74577   0.56793   0.00000  Uiso   1.00
H690   H     0.10971   0.91932   0.42295   0.00000  Uiso   1.00
N691   N     0.16667   0.95069   0.50000   0.00000  Uiso   1.00
N692   N     0.16667   0.71598   0.50000   0.00000  Uiso   1.00
O693   O     0.10655   0.87291   0.50000   0.00000  Uiso   1.00
O694   O     0.26259   0.96832   0.56123   0.00000  Uiso   1.00
O695   O     0.21263   0.70127   0.61616   0.00000  Uiso   1.00
O696   O     0.07071   0.96826   0.43893   0.00000  Uiso   1.00
O697   O     0.22679   0.79375   0.50000   0.00000  Uiso   1.00
O698   O     0.22679   0.87291   0.50000   0.00000  Uiso   1.00
O699   O     0.10655   0.79375   0.50000   0.00000  Uiso   1.00
O700   O     0.16667   0.87292   0.42946   0.00000  Uiso   1.00
O701   O     0.16667   0.79375   0.57054   0.00000  Uiso   1.00
O702   O     0.16667   0.87292   0.57054   0.00000  Uiso   1.00
O703   O     0.16667   0.79375   0.42946   0.00000  Uiso   1.00
O704   O     0.12053   0.70114   0.38387   0.00000  Uiso   1.00
C705   C     0.42081   0.83331   0.49996   0.00000  Uiso   1.00
C706   C     0.35462   0.87516   0.50026   0.00000  Uiso   1.00
C707   C     0.62387   0.83323   0.49995   0.00000  Uiso   1.00
C708   C     0.37613   0.83323   0.50005   0.00000  Uiso   1.00
C709   C     0.47523   0.69138   0.46688   0.00000  Uiso   1.00
C710   C     0.52735   0.97538   0.53019   0.00000  Uiso   1.00
C711   C     0.52476   0.69139   0.53311   0.00000  Uiso   1.00
C712   C     0.47265   0.97538   0.46981   0.00000  Uiso   1.00
C713   C     0.45239   0.71550   0.42594   0.00000  Uiso   1.00
C714   C     0.56139   0.95155   0.55849   0.00000  Uiso   1.00
C715   C     0.54760   0.71552   0.57405   0.00000  Uiso   1.00
C716   C     0.57919   0.83331   0.50004   0.00000  Uiso   1.00
C717   C     0.43860   0.95155   0.44154   0.00000  Uiso   1.00
C718   C     0.49989   0.83333   0.40700   0.00000  Uiso   1.00
C719   C     0.50011   0.83333   0.59300   0.00000  Uiso   1.00
C720   C     0.49996   0.83332   0.35521   0.00000  Uiso   1.00
C721   C     0.50004   0.83332   0.64479   0.00000  Uiso   1.00
C722   C     0.35464   0.79124   0.49991   0.00000  Uiso   1.00
C723   C     0.64538   0.87516   0.49985   0.00000  Uiso   1.00
C724   C     0.64536   0.79124   0.50000   0.00000  Uiso   1.00
Cu725  Cu    0.50000   0.88022   0.50000   0.00000  Uiso   1.00
Cu726  Cu    0.50000   0.78645   0.50000   0.00000  Uiso   1.00
H727   H     0.37063   0.75840   0.49978   0.00000  Uiso   1.00
H728   H     0.62943   0.90799   0.49941   0.00000  Uiso   1.00
H729   H     0.62937   0.75840   0.50005   0.00000  Uiso   1.00
H730   H     0.37057   0.90799   0.50078   0.00000  Uiso   1.00
H731   H     0.43419   0.74585   0.43202   0.00000  Uiso   1.00
H732   H     0.55697   0.91926   0.57695   0.00000  Uiso   1.00
H733   H     0.56592   0.74577   0.56793   0.00000  Uiso   1.00
H734   H     0.44305   0.91932   0.42295   0.00000  Uiso   1.00
N735   N     0.50000   0.95069   0.50000   0.00000  Uiso   1.00
N736   N     0.50000   0.71598   0.50000   0.00000  Uiso   1.00
O737   O     0.43988   0.87291   0.50000   0.00000  Uiso   1.00
O738   O     0.59593   0.96832   0.56123   0.00000  Uiso   1.00
O739   O     0.54597   0.70127   0.61616   0.00000  Uiso   1.00
O740   O     0.40404   0.96826   0.43893   0.00000  Uiso   1.00
O741   O     0.56012   0.79375   0.50000   0.00000  Uiso   1.00
O742   O     0.56012   0.87291   0.50000   0.00000  Uiso   1.00
O743   O     0.43988   0.79375   0.50000   0.00000  Uiso   1.00
O744   O     0.50000   0.87292   0.42946   0.00000  Uiso   1.00
O745   O     0.50000   0.79375   0.57054   0.00000  Uiso   1.00
O746   O     0.50000   0.87292   0.57054   0.00000  Uiso   1.00
O747   O     0.50000   0.79375   0.42946   0.00000  Uiso   1.00
O748   O     0.45387   0.70114   0.38387   0.00000  Uiso   1.00
C749   C     0.75414   0.83331   0.49996   0.00000  Uiso   1.00
C750   C     0.68796   0.87516   0.50026   0.00000  Uiso   1.00
C751   C     0.95720   0.83323   0.49995   0.00000  Uiso   1.00
C752   C     0.70946   0.83323   0.50005   0.00000  Uiso   1.00
C753   C     0.80857   0.69138   0.46688   0.00000  Uiso   1.00
C754   C     0.86068   0.97538   0.53019   0.00000  Uiso   1.00
C755   C     0.85810   0.69139   0.53311   0.00000  Uiso   1.00
C756   C     0.80598   0.97538   0.46981   0.00000  Uiso   1.00
C757   C     0.78572   0.71550   0.42594   0.00000  Uiso   1.00
C758   C     0.89472   0.95155   0.55849   0.00000  Uiso   1.00
C759   C     0.88093   0.71552   0.57405   0.00000  Uiso   1.00
C760   C     0.91252   0.83331   0.50004   0.00000  Uiso   1.00
C761   C     0.77194   0.95155   0.44154   0.00000  Uiso   1.00
C762   C     0.83323   0.83333   0.40700   0.00000  Uiso   1.00
C763   C     0.83344   0.83333   0.59300   0.00000  Uiso   1.00
C764   C     0.83329   0.83332   0.35521   0.00000  Uiso   1.00
C765   C     0.83337   0.83332   0.64479   0.00000  Uiso   1.00
C766   C     0.68797   0.79124   0.49991   0.00000  Uiso   1.00
C767   C     0.97871   0.87516   0.49985   0.00000  Uiso   1.00
C768   C     0.97870   0.79124   0.50000   0.00000  Uiso   1.00
Cu769  Cu    0.83333   0.88022   0.50000   0.00000  Uiso   1.00
Cu770  Cu    0.83333   0.78645   0.50000   0.00000  Uiso   1.00
H771   H     0.70396   0.75840   0.49978   0.00000  Uiso   1.00
H772   H     0.96277   0.90799   0.49941   0.00000  Uiso   1.00
H773   H     0.96270   0.75840   0.50005   0.00000  Uiso   1.00
H774   H     0.70390   0.90799   0.50078   0.00000  Uiso   1.00
H775   H     0.76753   0.74585   0.43202   0.00000  Uiso   1.00
H776   H     0.89030   0.91926   0.57695   0.00000  Uiso   1.00
H777   H     0.89925   0.74577   0.56793   0.00000  Uiso   1.00
H778   H     0.77638   0.91932   0.42295   0.00000  Uiso   1.00
N779   N     0.83333   0.95069   0.50000   0.00000  Uiso   1.00
N780   N     0.83333   0.71598   0.50000   0.00000  Uiso   1.00
O781   O     0.77321   0.87291   0.50000   0.00000  Uiso   1.00
O782   O     0.92926   0.96832   0.56123   0.00000  Uiso   1.00
O783   O     0.87930   0.70127   0.61616   0.00000  Uiso   1.00
O784   O     0.73738   0.96826   0.43893   0.00000  Uiso   1.00
O785   O     0.89345   0.79375   0.50000   0.00000  Uiso   1.00
O786   O     0.89345   0.87291   0.50000   0.00000  Uiso   1.00
O787   O     0.77321   0.79375   0.50000   0.00000  Uiso   1.00
O788   O     0.83333   0.87292   0.42946   0.00000  Uiso   1.00
O789   O     0.83333   0.79375   0.57054   0.00000  Uiso   1.00
O790   O     0.83333   0.87292   0.57054   0.00000  Uiso   1.00
O791   O     0.83333   0.79375   0.42946   0.00000  Uiso   1.00
O792   O     0.78720   0.70114   0.38387   0.00000  Uiso   1.00
C793   C     0.08748   0.16665   0.83330   0.00000  Uiso   1.00
C794   C     0.02129   0.20850   0.83359   0.00000  Uiso   1.00
C795   C     0.29054   0.16656   0.83329   0.00000  Uiso   1.00
C796   C     0.04280   0.16656   0.83339   0.00000  Uiso   1.00
C797   C     0.14190   0.02472   0.80022   0.00000  Uiso   1.00
C798   C     0.19402   0.30871   0.86353   0.00000  Uiso   1.00
C799   C     0.19143   0.02472   0.86645   0.00000  Uiso   1.00
C800   C     0.13931   0.30871   0.80314   0.00000  Uiso   1.00
C801   C     0.11906   0.04884   0.75928   0.00000  Uiso   1.00
C802   C     0.22806   0.28488   0.89182   0.00000  Uiso   1.00
C803   C     0.21426   0.04886   0.90738   0.00000  Uiso   1.00
C804   C     0.24586   0.16665   0.83337   0.00000  Uiso   1.00
C805   C     0.10527   0.28488   0.77487   0.00000  Uiso   1.00
C806   C     0.16656   0.16666   0.74033   0.00000  Uiso   1.00
C807   C     0.16677   0.16666   0.92634   0.00000  Uiso   1.00
C808   C     0.16663   0.16665   0.68854   0.00000  Uiso   1.00
C809   C     0.16671   0.16665   0.97812   0.00000  Uiso   1.00
C810   C     0.02130   0.12457   0.83324   0.00000  Uiso   1.00
C811   C     0.31205   0.20850   0.83318   0.00000  Uiso   1.00
C812   C     0.31203   0.12457   0.83334   0.00000  Uiso   1.00
Cu813  Cu    0.16667   0.21355   0.83333   0.00000  Uiso   1.00
Cu814  Cu    0.16667   0.11978   0.83333   0.00000  Uiso   1.00
H815   H     0.03729   0.09173   0.83312   0.00000  Uiso   1.00
H816   H     0.29610   0.24132   0.83275   0.00000  Uiso   1.00
H817   H     0.29603   0.09173   0.83338   0.00000  Uiso   1.00
H818   H     0.03724   0.24132   0.83411   0.00000  Uiso   1.00
H819   H     0.10086   0.07918   0.76535   0.00000  Uiso   1.00
H820   H     0.22364   0.25259   0.91028   0.00000  Uiso   1.00
H821   H     0.23259   0.07910   0.90126   0.00000  Uiso   1.00
H822   H     0.10971   0.25266   0.75629   0.00000  Uiso   1.00
N823   N     0.16667   0.28402   0.83333   0.00000  Uiso   1.00
N824   N     0.16667   0.04931   0.83333   0.00000  Uiso   1.00
O825   O     0.10655   0.20625   0.83333   0.00000  Uiso   1.00
O826   O     0.26259   0.30165   0.89456   0.00000  Uiso   1.00
O827   O     0.21263   0.03460   0.94949   0.00000  Uiso   1.00
O828   O     0.07071   0.30160   0.77226   0.00000  Uiso   1.00
O829   O     0.22679   0.12709   0.83334   0.00000  Uiso   1.00
O830   O     0.22679   0.20625   0.83334   0.00000  Uiso   1.00
O831   O     0.10655   0.12709   0.83333   0.00000  Uiso   1.00
O832   O     0.16667   0.20625   0.76280   0.00000  Uiso   1.00
O833   O     0.16667   0.12708   0.90387   0.00000  Uiso   1.00
O834   O     0.16667   0.20625   0.90387   0.00000  Uiso   1.00
O835   O     0.16667   0.12708   0.76280   0.00000  Uiso   1.00
O836   O     0.12053   0.03447   0.71720   0.00000  Uiso   1.00
C837   C     0.42081   0.16665   0.83330   0.00000  Uiso   1.00
C838   C     0.35462   0.20850   0.83359   0.00000  Uiso   1.00
C839   C     0.62387   0.16656   0.83329   0.00000  Uiso   1.00
C840   C     0.37613   0.16656   0.83339   0.00000  Uiso   1.00
C841   C     0.47523   0.02472   0.80022   0.00000  Uiso   1.00
C842   C     0.52735   0.30871   0.86353   0.00000  Uiso   1.00
C843   C     0.52476   0.02472   0.86645   0.00000  Uiso   1.00
C844   C     0.47265   0.30871   0.80314   0.00000  Uiso   1.00
C845   C     0.45239   0.04884   0.75928   0.00000  Uiso   1.00
C846   C     0.56139   0.28488   0.89182   0.00000  Uiso   1.00
C847   C     0.54760   0.04886   0.90738   0.00000  Uiso   1.00
C848   C     0.57919   0.16665   0.83337   0.00000  Uiso   1.00
C849   C     0.43860   0.28488   0.77487   0.00000  Uiso   1.00
C850   C     0.49989   0.16666   0.74033   0.00000  Uiso   1.00
C851   C     0.50011   0.16666   0.92634   0.00000  Uiso   1.00
C852   C     0.49996   0.16665   0.68854   0.00000  Uiso   1.00
C853   C     0.50004   0.16665   0.97812   0.00000  Uiso   1.00
C854   C     0.35464   0.12457   0.83324   0.00000  Uiso   1.00
C855   C     0.64538   0.20850   0.83318   0.00000  Uiso   1.00
C856   C     0.64536   0.12457   0.83334   0.00000  Uiso   1.00
Cu857  Cu    0.50000   0.21355   0.83333   0.00000  Uiso   1.00
Cu858  Cu    0.50000   0.11978   0.83333   0.00000  Uiso   1.00
H859   H     0.37063   0.09173   0.83312   0.00000  Uiso   1.00
H860   H     0.62943   0.24132   0.83275   0.00000  Uiso   1.00
H861   H     0.62937   0.09173   0.83338   0.00000  Uiso   1.00
H862   H     0.37057   0.24132   0.83411   0.00000  Uiso   1.00
H863   H     0.43419   0.07918   0.76535   0.00000  Uiso   1.00
H864   H     0.55697   0.25259   0.91028   0.00000  Uiso   1.00
H865   H     0.56592   0.07910   0.90126   0.00000  Uiso   1.00
H866   H     0.44305   0.25266   0.75629   0.00000  Uiso   1.00
N867   N     0.50000   0.28402   0.83333   0.00000  Uiso   1.00
N868   N     0.50000   0.04931   0.83333   0.00000  Uiso   1.00
O869   O     0.43988   0.20625   0.83333   0.00000  Uiso   1.00
O870   O     0.59593   0.30165   0.89456   0.00000  Uiso   1.00
O871   O     0.54597   0.03460   0.94949   0.00000  Uiso   1.00
O872   O     0.40404   0.30160   0.77226   0.00000  Uiso   1.00
O873   O     0.56012   0.12709   0.83334   0.00000  Uiso   1.00
O874   O     0.56012   0.20625   0.83334   0.00000  Uiso   1.00
O875   O     0.43988   0.12709   0.83333   0.00000  Uiso   1.00
O876   O     0.50000   0.20625   0.76280   0.00000  Uiso   1.00
O877   O     0.50000   0.12708   0.90387   0.00000  Uiso   1.00
O878   O     0.50000   0.20625   0.90387   0.00000  Uiso   1.00
O879   O     0.50000   0.12708   0.76280   0.00000  Uiso   1.00
O880   O     0.45387   0.03447   0.71720   0.00000  Uiso   1.00
C881   C     0.75414   0.16665   0.83330   0.00000  Uiso   1.00
C882   C     0.68796   0.20850   0.83359   0.00000  Uiso   1.00
C883   C     0.95720   0.16656   0.83329   0.00000  Uiso   1.00
C884   C     0.70946   0.16656   0.83339   0.00000  Uiso   1.00
C885   C     0.80857   0.02472   0.80022   0.00000  Uiso   1.00
C886   C     0.86068   0.30871   0.86353   0.00000  Uiso   1.00
C887   C     0.85810   0.02472   0.86645   0.00000  Uiso   1.00
C888   C     0.80598   0.30871   0.80314   0.00000  Uiso   1.00
C889   C     0.78572   0.04884   0.75928   0.00000  Uiso   1.00
C890   C     0.89472   0.28488   0.89182   0.00000  Uiso   1.00
C891   C     0.88093   0.04886   0.90738   0.00000  Uiso   1.00
C892   C     0.91252   0.16665   0.83337   0.00000  Uiso   1.00
C893   C     0.77194   0.28488   0.77487   0.00000  Uiso   1.00
C894   C     0.83323   0.16666   0.74033   0.00000  Uiso   1.00
C895   C     0.83344   0.16666   0.92634   0.00000  Uiso   1.00
C896   C     0.83329   0.16665   0.68854   0.00000  Uiso   1.00
C897   C     0.83337   0.16665   0.97812   0.00000  Uiso   1.00
C898   C     0.68797   0.12457   0.83324   0.00000  Uiso   1.00
C899   C     0.97871   0.20850   0.83318   0.00000  Uiso   1.00
C900   C     0.97870   0.12457   0.83334   0.00000  Uiso   1.00
Cu901  Cu    0.83333   0.21355   0.83333   0.00000  Uiso   1.00
Cu902  Cu    0.83333   0.11978   0.83333   0.00000  Uiso   1.00
H903   H     0.70396   0.09173   0.83312   0.00000  Uiso   1.00
H904   H     0.96277   0.24132   0.83275   0.00000  Uiso   1.00
H905   H     0.96270   0.09173   0.83338   0.00000  Uiso   1.00
H906   H     0.70390   0.24132   0.83411   0.00000  Uiso   1.00
H907   H     0.76753   0.07918   0.76535   0.00000  Uiso   1.00
H908   H     0.89030   0.25259   0.91028   0.00000  Uiso   1.00
H909   H     0.89925   0.07910   0.90126   0.00000  Uiso   1.00
H910   H     0.77638   0.25266   0.75629   0.00000  Uiso   1.00
N911   N     0.83333   0.28402   0.83333   0.00000  Uiso   1.00
N912   N     0.83333   0.04931   0.83333   0.00000  Uiso   1.00
O913   O     0.77321   0.20625   0.83333   0.00000  Uiso   1.00
O914   O     0.92926   0.30165   0.89456   0.00000  Uiso   1.00
O915   O     0.87930   0.03460   0.94949   0.00000  Uiso   1.00
O916   O     0.73738   0.30160   0.77226   0.00000  Uiso   1.00
O917   O     0.89345   0.12709   0.83334   0.00000  Uiso   1.00
O918   O     0.89345   0.20625   0.83334   0.00000  Uiso   1.00
O919   O     0.77321   0.12709   0.83333   0.00000  Uiso   1.00
O920   O     0.83333   0.20625   0.76280   0.00000  Uiso   1.00
O921   O     0.83333   0.12708   0.90387   0.00000  Uiso   1.00
O922   O     0.83333   0.20625   0.90387   0.00000  Uiso   1.00
O923   O     0.83333   0.12708   0.76280   0.00000  Uiso   1.00
O924   O     0.78720   0.03447   0.71720   0.00000  Uiso   1.00
C925   C     0.08748   0.49998   0.83330   0.00000  Uiso   1.00
C926   C     0.02129   0.54183   0.83359   0.00000  Uiso   1.00
C927   C     0.29054   0.49990   0.83329   0.00000  Uiso   1.00
C928   C     0.04280   0.49990   0.83339   0.00000  Uiso   1.00
C929   C     0.14190   0.35805   0.80022   0.00000  Uiso   1.00
C930   C     0.19402   0.64205   0.86353   0.00000  Uiso   1.00
C931   C     0.19143   0.35806   0.86645   0.00000  Uiso   1.00
C932   C     0.13931   0.64204   0.80314   0.00000  Uiso   1.00
C933   C     0.11906   0.38217   0.75928   0.00000  Uiso   1.00
C934   C     0.22806   0.61822   0.89182   0.00000  Uiso   1.00
C935   C     0.21426   0.38219   0.90738   0.00000  Uiso   1.00
C936   C     0.24586   0.49998   0.83337   0.00000  Uiso   1.00
C937   C     0.10527   0.61821   0.77487   0.00000  Uiso   1.00
C938   C     0.16656   0.50000   0.74033   0.00000  Uiso   1.00
C939   C     0.16677   0.50000   0.92634   0.00000  Uiso   1.00
C940   C     0.16663   0.49999   0.68854   0.00000  Uiso   1.00
C941   C     0.16671   0.49999   0.97812   0.00000  Uiso   1.00
C942   C     0.02130   0.45790   0.83324   0.00000  Uiso   1.00
C943   C     0.31205   0.54183   0.83318   0.00000  Uiso   1.00
C944   C     0.31203   0.45790   0.83334   0.00000  Uiso   1.00
Cu945  Cu    0.16667   0.54689   0.83333   0.00000  Uiso   1.00
Cu946  Cu    0.16667   0.45311   0.83333   0.00000  Uiso   1.00
H947   H     0.03729   0.42506   0.83312   0.00000  Uiso   1.00
H948   H     0.29610   0.57465   0.83275   0.00000  Uiso   1.00
H949   H     0.29603   0.42506   0.83338   0.00000  Uiso   1.00
H950   H     0.03724   0.57465   0.83411   0.00000  Uiso   1.00
H951   H     0.10086   0.41251   0.76535   0.00000  Uiso   1.00
H952   H     0.22364   0.58593   0.91028   0.00000  Uiso   1.00
H953   H     0.23259   0.41244   0.90126   0.00000  Uiso   1.00
H954   H     0.10971   0.58599   0.75629   0.00000  Uiso   1.00
N955   N     0.16667   0.61736   0.83333   0.00000  Uiso   1.00
N956   N     0.16667   0.38264   0.83333   0.00000  Uiso   1.00
O957   O     0.10655   0.53958   0.83333   0.00000  Uiso   1.00
O958   O     0.26259   0.63499   0.89456   0.00000  Uiso   1.00
O959   O     0.21263   0.36794   0.94949   0.00000  Uiso   1.00
O960   O     0.07071   0.63493   0.77226   0.00000  Uiso   1.00
O961   O     0.22679   0.46042   0.83334   0.00000  Uiso   1.00
O962   O     0.22679   0.53958   0.83334   0.00000  Uiso   1.00
O963   O     0.10655   0.46042   0.83333   0.00000  Uiso   1.00
O964   O     0.16667   0.53959   0.76280   0.00000  Uiso   1.00
O965   O     0.16667   0.46041   0.90387   0.00000  Uiso   1.00
O966   O     0.16667   0.53959   0.90387   0.00000  Uiso   1.00
O967   O     0.16667   0.46041   0.76280   0.00000  Uiso   1.00
O968   O     0.12053   0.36780   0.71720   0.00000  Uiso   1.00
C969   C     0.42081   0.49998   0.83330   0.00000  Uiso   1.00
C970   C     0.35462   0.54183   0.83359   0.00000  Uiso   1.00
C971   C     0.62387   0.49990   0.83329   0.00000  Uiso   1.00
C972   C     0.37613   0.49990   0.83339   0.00000  Uiso   1.00
C973   C     0.47523   0.35805   0.80022   0.00000  Uiso   1.00
C974   C     0.52735   0.64205   0.86353   0.00000  Uiso   1.00
C975   C     0.52476   0.35806   0.86645   0.00000  Uiso   1.00
C976   C     0.47265   0.64204   0.80314   0.00000  Uiso   1.00
C977   C     0.45239   0.38217   0.75928   0.00000  Uiso   1.00
C978   C     0.56139   0.61822   0.89182   0.00000  Uiso   1.00
C979   C     0.54760   0.38219   0.90738   0.00000  Uiso   1.00
C980   C     0.57919   0.49998   0.83337   0.00000  Uiso   1.00
C981   C     0.43860   0.61821   0.77487   0.00000  Uiso   1.00
C982   C     0.49989   0.50000   0.74033   0.00000  Uiso   1.00
C983   C     0.50011   0.50000   0.92634   0.00000  Uiso   1.00
C984   C     0.49996   0.49999   0.68854   0.00000  Uiso   1.00
C985   C     0.50004   0.49999   0.97812   0.00000  Uiso   1.00
C986   C     0.35464   0.45790   0.83324   0.00000  Uiso   1.00
C987   C     0.64538   0.54183   0.83318   0.00000  Uiso   1.00
C988   C     0.64536   0.45790   0.83334   0.00000  Uiso   1.00
Cu989  Cu    0.50000   0.54689   0.83333   0.00000  Uiso   1.00
Cu990  Cu    0.50000   0.45311   0.83333   0.00000  Uiso   1.00
H991   H     0.37063   0.42506   0.83312   0.00000  Uiso   1.00
H992   H     0.62943   0.57465   0.83275   0.00000  Uiso   1.00
H993   H     0.62937   0.42506   0.83338   0.00000  Uiso   1.00
H994   H     0.37057   0.57465   0.83411   0.00000  Uiso   1.00
H995   H     0.43419   0.41251   0.76535   0.00000  Uiso   1.00
H996   H     0.55697   0.58593   0.91028   0.00000  Uiso   1.00
H997   H     0.56592   0.41244   0.90126   0.00000  Uiso   1.00
H998   H     0.44305   0.58599   0.75629   0.00000  Uiso   1.00
N999   N     0.50000   0.61736   0.83333   0.00000  Uiso   1.00
N1000  N     0.50000   0.38264   0.83333   0.00000  Uiso   1.00
O1001  O     0.43988   0.53958   0.83333   0.00000  Uiso   1.00
O1002  O     0.59593   0.63499   0.89456   0.00000  Uiso   1.00
O1003  O     0.54597   0.36794   0.94949   0.00000  Uiso   1.00
O1004  O     0.40404   0.63493   0.77226   0.00000  Uiso   1.00
O1005  O     0.56012   0.46042   0.83334   0.00000  Uiso   1.00
O1006  O     0.56012   0.53958   0.83334   0.00000  Uiso   1.00
O1007  O     0.43988   0.46042   0.83333   0.00000  Uiso   1.00
O1008  O     0.50000   0.53959   0.76280   0.00000  Uiso   1.00
O1009  O     0.50000   0.46041   0.90387   0.00000  Uiso   1.00
O1010  O     0.50000   0.53959   0.90387   0.00000  Uiso   1.00
O1011  O     0.50000   0.46041   0.76280   0.00000  Uiso   1.00
O1012  O     0.45387   0.36780   0.71720   0.00000  Uiso   1.00
C1013  C     0.75414   0.49998   0.83330   0.00000  Uiso   1.00
C1014  C     0.68796   0.54183   0.83359   0.00000  Uiso   1.00
C1015  C     0.95720   0.49990   0.83329   0.00000  Uiso   1.00
C1016  C     0.70946   0.49990   0.83339   0.00000  Uiso   1.00
C1017  C     0.80857   0.35805   0.80022   0.00000  Uiso   1.00
C1018  C     0.86068   0.64205   0.86353   0.00000  Uiso   1.00
C1019  C     0.85810   0.35806   0.86645   0.00000  Uiso   1.00
C1020  C     0.80598   0.64204   0.80314   0.00000  Uiso   1.00
C1021  C     0.78572   0.38217   0.75928   0.00000  Uiso   1.00
C1022  C     0.89472   0.61822   0.89182   0.00000  Uiso   1.00
C1023  C     0.88093   0.38219   0.90738   0.00000  Uiso   1.00
C1024  C     0.91252   0.49998   0.83337   0.00000  Uiso   1.00
C1025  C     0.77194   0.61821   0.77487   0.00000  Uiso   1.00
C1026  C     0.83323   0.50000   0.74033   0.00000  Uiso   1.00
C1027  C     0.83344   0.50000   0.92634   0.00000  Uiso   1.00
C1028  C     0.83329   0.49999   0.68854   0.00000  Uiso   1.00
C1029  C     0.83337   0.49999   0.97812   0.00000  Uiso   1.00
C1030  C     0.68797   0.45790   0.83324   0.00000  Uiso   1.00
C1031  C     0.97871   0.54183   0.83318   0.00000  Uiso   1.00
C1032  C     0.97870   0.45790   0.83334   0.00000  Uiso   1.00
Cu1033 Cu    0.83333   0.54689   0.83333   0.00000  Uiso   1.00
Cu1034 Cu    0.83333   0.45311   0.83333   0.00000  Uiso   1.00
H1035  H     0.70396   0.42506   0.83312   0.00000  Uiso   1.00
H1036  H     0.96277   0.57465   0.83275   0.00000  Uiso   1.00
H1037  H     0.96270   0.42506   0.83338   0.00000  Uiso   1.00
H1038  H     0.70390   0.57465   0.83411   0.00000  Uiso   1.00
H1039  H     0.76753   0.41251   0.76535   0.00000  Uiso   1.00
H1040  H     0.89030   0.58593   0.91028   0.00000  Uiso   1.00
H1041  H     0.89925   0.41244   0.90126   0.00000  Uiso   1.00
H1042  H     0.77638   0.58599   0.75629   0.00000  Uiso   1.00
N1043  N     0.83333   0.61736   0.83333   0.00000  Uiso   1.00
N1044  N     0.83333   0.38264   0.83333   0.00000  Uiso   1.00
O1045  O     0.77321   0.53958   0.83333   0.00000  Uiso   1.00
O1046  O     0.92926   0.63499   0.89456   0.00000  Uiso   1.00
O1047  O     0.87930   0.36794   0.94949   0.00000  Uiso   1.00
O1048  O     0.73738   0.63493   0.77226   0.00000  Uiso   1.00
O1049  O     0.89345   0.46042   0.83334   0.00000  Uiso   1.00
O1050  O     0.89345   0.53958   0.83334   0.00000  Uiso   1.00
O1051  O     0.77321   0.46042   0.83333   0.00000  Uiso   1.00
O1052  O     0.83333   0.53959   0.76280   0.00000  Uiso   1.00
O1053  O     0.83333   0.46041   0.90387   0.00000  Uiso   1.00
O1054  O     0.83333   0.53959   0.90387   0.00000  Uiso   1.00
O1055  O     0.83333   0.46041   0.76280   0.00000  Uiso   1.00
O1056  O     0.78720   0.36780   0.71720   0.00000  Uiso   1.00
C1057  C     0.08748   0.83331   0.83330   0.00000  Uiso   1.00
C1058  C     0.02129   0.87516   0.83359   0.00000  Uiso   1.00
C1059  C     0.29054   0.83323   0.83329   0.00000  Uiso   1.00
C1060  C     0.04280   0.83323   0.83339   0.00000  Uiso   1.00
C1061  C     0.14190   0.69138   0.80022   0.00000  Uiso   1.00
C1062  C     0.19402   0.97538   0.86353   0.00000  Uiso   1.00
C1063  C     0.19143   0.69139   0.86645   0.00000  Uiso   1.00
C1064  C     0.13931   0.97538   0.80314   0.00000  Uiso   1.00
C1065  C     0.11906   0.71550   0.75928   0.00000  Uiso   1.00
C1066  C     0.22806   0.95155   0.89182   0.00000  Uiso   1.00
C1067  C     0.21426   0.71552   0.90738   0.00000  Uiso   1.00
C1068  C     0.24586   0.83331   0.83337   0.00000  Uiso   1.00
C1069  C     0.10527   0.95155   0.77487   0.00000  Uiso   1.00
C1070  C     0.16656   0.83333   0.74033   0.00000  Uiso   1.00
C1071  C     0.16677   0.83333   0.92634   0.00000  Uiso   1.00
C1072  C     0.16663   0.83332   0.68854   0.00000  Uiso   1.00
C1073  C     0.16671   0.83332   0.97812   0.00000  Uiso   1.00
C1074  C     0.02130   0.79124   0.83324   0.00000  Uiso   1.00
C1075  C     0.31205   0.87516   0.83318   0.00000  Uiso   1.00
C1076  C     0.31203   0.79124   0.83334   0.00000  Uiso   1.00
Cu1077 Cu    0.16667   0.88022   0.83333   0.00000  Uiso   1.00
Cu1078 Cu    0.16667   0.78645   0.83333   0.00000  Uiso   1.00
H1079  H     0.03729   0.75840   0.83312   0.00000  Uiso   1.00
H1080  H     0.29610   0.90799   0.83275   0.00000  Uiso   1.00
H1081  H     0.29603   0.75840   0.83338   0.00000  Uiso   1.00
H1082  H     0.03724   0.90799   0.83411   0.00000  Uiso   1.00
H1083  H     0.10086   0.74585   0.76535   0.00000  Uiso   1.00
H1084  H     0.22364   0.91926   0.91028   0.00000  Uiso   1.00
H1085  H     0.23259   0.74577   0.90126   0.00000  Uiso   1.00
H1086  H     0.10971   0.91932   0.75629   0.00000  Uiso   1.00
N1087  N     0.16667   0.95069   0.83333   0.00000  Uiso   1.00
N1088  N     0.16667   0.71598   0.83333   0.00000  Uiso   1.00
O1089  O     0.10655   0.87291   0.83333   0.00000  Uiso   1.00
O1090  O     0.26259   0.96832   0.89456   0.00000  Uiso   1.00
O1091  O     0.21263   0.70127   0.94949   0.00000  Uiso   1.00
O1092  O     0.07071   0.96826   0.77226   0.00000  Uiso   1.00
O1093  O     0.22679   0.79375   0.83334   0.00000  Uiso   1.00
O1094  O     0.22679   0.87291   0.83334   0.00000  Uiso   1.00
O1095  O     0.10655   0.79375   0.83333   0.00000  Uiso   1.00
O1096  O     0.16667   0.87292   0.76280   0.00000  Uiso   1.00
O1097  O     0.16667   0.79375   0.90387   0.00000  Uiso   1.00
O1098  O     0.16667   0.87292   0.90387   0.00000  Uiso   1.00
O1099  O     0.16667   0.79375   0.76280   0.00000  Uiso   1.00
O1100  O     0.12053   0.70114   0.71720   0.00000  Uiso   1.00
C1101  C     0.42081   0.83331   0.83330   0.00000  Uiso   1.00
C1102  C     0.35462   0.87516   0.83359   0.00000  Uiso   1.00
C1103  C     0.62387   0.83323   0.83329   0.00000  Uiso   1.00
C1104  C     0.37613   0.83323   0.83339   0.00000  Uiso   1.00
C1105  C     0.47523   0.69138   0.80022   0.00000  Uiso   1.00
C1106  C     0.52735   0.97538   0.86353   0.00000  Uiso   1.00
C1107  C     0.52476   0.69139   0.86645   0.00000  Uiso   1.00
C1108  C     0.47265   0.97538   0.80314   0.00000  Uiso   1.00
C1109  C     0.45239   0.71550   0.75928   0.00000  Uiso   1.00
C1110  C     0.56139   0.95155   0.89182   0.00000  Uiso   1.00
C1111  C     0.54760   0.71552   0.90738   0.00000  Uiso   1.00
C1112  C     0.57919   0.83331   0.83337   0.00000  Uiso   1.00
C1113  C     0.43860   0.95155   0.77487   0.00000  Uiso   1.00
C1114  C     0.49989   0.83333   0.74033   0.00000  Uiso   1.00
C1115  C     0.50011   0.83333   0.92634   0.00000  Uiso   1.00
C1116  C     0.49996   0.83332   0.68854   0.00000  Uiso   1.00
C1117  C     0.50004   0.83332   0.97812   0.00000  Uiso   1.00
C1118  C     0.35464   0.79124   0.83324   0.00000  Uiso   1.00
C1119  C     0.64538   0.87516   0.83318   0.00000  Uiso   1.00
C1120  C     0.64536   0.79124   0.83334   0.00000  Uiso   1.00
Cu1121 Cu    0.50000   0.88022   0.83333   0.00000  Uiso   1.00
Cu1122 Cu    0.50000   0.78645   0.83333   0.00000  Uiso   1.00
H1123  H     0.37063   0.75840   0.83312   0.00000  Uiso   1.00
H1124  H     0.62943   0.90799   0.83275   0.00000  Uiso   1.00
H1125  H     0.62937   0.75840   0.83338   0.00000  Uiso   1.00
H1126  H     0.37057   0.90799   0.83411   0.00000  Uiso   1.00
H1127  H     0.43419   0.74585   0.76535   0.00000  Uiso   1.00
H1128  H     0.55697   0.91926   0.91028   0.00000  Uiso   1.00
H1129  H     0.56592   0.74577   0.90126   0.00000  Uiso   1.00
H1130  H     0.44305   0.91932   0.75629   0.00000  Uiso   1.00
N1131  N     0.50000   0.95069   0.83333   0.00000  Uiso   1.00
N1132  N     0.50000   0.71598   0.83333   0.00000  Uiso   1.00
O1133  O     0.43988   0.87291   0.83333   0.00000  Uiso   1.00
O1134  O     0.59593   0.96832   0.89456   0.00000  Uiso   1.00
O1135  O     0.54597   0.70127   0.94949   0.00000  Uiso   1.00
O1136  O     0.40404   0.96826   0.77226   0.00000  Uiso   1.00
O1137  O     0.56012   0.79375   0.83334   0.00000  Uiso   1.00
O1138  O     0.56012   0.87291   0.83334   0.00000  Uiso   1.00
O1139  O     0.43988   0.79375   0.83333   0.00000  Uiso   1.00
O1140  O     0.50000   0.87292   0.76280   0.00000  Uiso   1.00
O1141  O     0.50000   0.79375   0.90387   0.00000  Uiso   1.00
O1142  O     0.50000   0.87292   0.90387   0.00000  Uiso   1.00
O1143  O     0.50000   0.79375   0.76280   0.00000  Uiso   1.00
O1144  O     0.45387   0.70114   0.71720   0.00000  Uiso   1.00
C1145  C     0.75414   0.83331   0.83330   0.00000  Uiso   1.00
C1146  C     0.68796   0.87516   0.83359   0.00000  Uiso   1.00
C1147  C     0.95720   0.83323   0.83329   0.00000  Uiso   1.00
C1148  C     0.70946   0.83323   0.83339   0.00000  Uiso   1.00
C1149  C     0.80857   0.69138   0.80022   0.00000  Uiso   1.00
C1150  C     0.86068   0.97538   0.86353   0.00000  Uiso   1.00
C1151  C     0.85810   0.69139   0.86645   0.00000  Uiso   1.00
C1152  C     0.80598   0.97538   0.80314   0.00000  Uiso   1.00
C1153  C     0.78572   0.71550   0.75928   0.00000  Uiso   1.00
C1154  C     0.89472   0.95155   0.89182   0.00000  Uiso   1.00
C1155  C     0.88093   0.71552   0.90738   0.00000  Uiso   1.00
C1156  C     0.91252   0.83331   0.83337   0.00000  Uiso   1.00
C1157  C     0.77194   0.95155   0.77487   0.00000  Uiso   1.00
C1158  C     0.83323   0.83333   0.74033   0.00000  Uiso   1.00
C1159  C     0.83344   0.83333   0.92634   0.00000  Uiso   1.00
C1160  C     0.83329   0.83332   0.68854   0.00000  Uiso   1.00
C1161  C     0.83337   0.83332   0.97812   0.00000  Uiso   1.00
C1162  C     0.68797   0.79124   0.83324   0.00000  Uiso   1.00
C1163  C     0.97871   0.87516   0.83318   0.00000  Uiso   1.00
C1164  C     0.97870   0.79124   0.83334   0.00000  Uiso   1.00
Cu1165 Cu    0.83333   0.88022   0.83333   0.00000  Uiso   1.00
Cu1166 Cu    0.83333   0.78645   0.83333   0.00000  Uiso   1.00
H1167  H     0.70396   0.75840   0.83312   0.00000  Uiso   1.00
H1168  H     0.96277   0.90799   0.83275   0.00000  Uiso   1.00
H1169  H     0.96270   0.75840   0.83338   0.00000  Uiso   1.00
H1170  H     0.70390   0.90799   0.83411   0.00000  Uiso   1.00
H1171  H     0.76753   0.74585   0.76535   0.00000  Uiso   1.00
H1172  H     0.89030   0.91926   0.91028   0.00000  Uiso   1.00
H1173  H     0.89925   0.74577   0.90126   0.00000  Uiso   1.00
H1174  H     0.77638   0.91932   0.75629   0.00000  Uiso   1.00
N1175  N     0.83333   0.95069   0.83333   0.00000  Uiso   1.00
N1176  N     0.83333   0.71598   0.83333   0.00000  Uiso   1.00
O1177  O     0.77321   0.87291   0.83333   0.00000  Uiso   1.00
O1178  O     0.92926   0.96832   0.89456   0.00000  Uiso   1.00
O1179  O     0.87930   0.70127   0.94949   0.00000  Uiso   1.00
O1180  O     0.73738   0.96826   0.77226   0.00000  Uiso   1.00
O1181  O     0.89345   0.79375   0.83334   0.00000  Uiso   1.00
O1182  O     0.89345   0.87291   0.83334   0.00000  Uiso   1.00
O1183  O     0.77321   0.79375   0.83333   0.00000  Uiso   1.00
O1184  O     0.83333   0.87292   0.76280   0.00000  Uiso   1.00
O1185  O     0.83333   0.79375   0.90387   0.00000  Uiso   1.00
O1186  O     0.83333   0.87292   0.90387   0.00000  Uiso   1.00
O1187  O     0.83333   0.79375   0.76280   0.00000  Uiso   1.00
O1188  O     0.78720   0.70114   0.71720   0.00000  Uiso   1.00
loop_
_geom_bond_atom_site_label_1
_geom_bond_atom_site_label_2
_geom_bond_distance
_geom_bond_site_symmetry_2
_ccdc_geom_bond_type
C1     C4      1.452   .     S
C1     O33     1.303   .     A
C1     O39     1.302   .     A
C2     C4      1.400   .     A
C2     H26     1.082   .     S
C2     C107    1.383   1_455 S
C3     C19     1.400   .     A
C3     C20     1.402   .     A
C3     C12     1.452   .     S
C4     C18     1.402   .     A
C5     C9      1.482   .     S
C5     N32     1.376   .     A
C5     C272    1.433   1_545 S
C6     C10     1.486   .     S
C6     N31     1.379   .     A
C6     C139    1.433   .     S
C7     N32     1.376   .     A
C7     C11     1.482   .     S
C7     C270    1.433   1_545 S
C8     C13     1.485   .     S
C8     N31     1.379   .     A
C8     C137    1.433   .     S
C9     H27     1.076   .     S
C9     O44     1.221   .     D
C10    O34     1.221   .     D
C10    H28     1.074   .     S
C11    O35     1.221   .     D
C11    H29     1.076   .     S
C12    O38     1.303   .     A
C12    O37     1.302   .     A
C13    H30     1.074   .     S
C13    O36     1.221   .     D
C14    C16     1.409   .     S
C14    O40     1.299   .     A
C14    O43     1.298   .     A
C15    O41     1.298   .     A
C15    C17     1.409   .     S
C15    O42     1.299   .     A
C16    C809    1.191   1_554 S
C17    C412    1.191   .     S
C18    H23     1.083   .     S
C18    C108    1.384   1_455 S
C19    H24     1.082   .     S
C19    C46     1.383   .     S
C20    H25     1.083   .     S
C20    C62     1.384   .     S
Cu21   Cu22    2.714   .     S
Cu21   N31     2.040   .     S
Cu21   O40     1.931   .     S
Cu21   O33     1.965   .     S
Cu21   O42     1.931   .     S
Cu21   O38     1.965   .     S
Cu22   O43     1.931   .     S
Cu22   N32     2.040   .     S
Cu22   O39     1.965   .     S
Cu22   O41     1.931   .     S
Cu22   O37     1.965   .     S
C45    C48     1.452   .     S
C45    O77     1.303   .     A
C45    O83     1.302   .     A
C46    C48     1.400   .     A
C46    H70     1.082   .     S
C47    C63     1.400   .     A
C47    C64     1.402   .     A
C47    C56     1.452   .     S
C48    C62     1.402   .     A
C49    C53     1.482   .     S
C49    N76     1.376   .     A
C49    C316    1.433   1_545 S
C50    C54     1.486   .     S
C50    N75     1.379   .     A
C50    C183    1.433   .     S
C51    N76     1.376   .     A
C51    C55     1.482   .     S
C51    C314    1.433   1_545 S
C52    C57     1.485   .     S
C52    N75     1.379   .     A
C52    C181    1.433   .     S
C53    H71     1.076   .     S
C53    O88     1.221   .     D
C54    O78     1.221   .     D
C54    H72     1.074   .     S
C55    O79     1.221   .     D
C55    H73     1.076   .     S
C56    O82     1.303   .     A
C56    O81     1.302   .     A
C57    H74     1.074   .     S
C57    O80     1.221   .     D
C58    C60     1.409   .     S
C58    O84     1.299   .     A
C58    O87     1.298   .     A
C59    O85     1.298   .     A
C59    C61     1.409   .     S
C59    O86     1.299   .     A
C60    C853    1.191   1_554 S
C61    C456    1.191   .     S
C62    H67     1.083   .     S
C63    H68     1.082   .     S
C63    C90     1.383   .     S
C64    H69     1.083   .     S
C64    C106    1.384   .     S
Cu65   Cu66    2.714   .     S
Cu65   N75     2.040   .     S
Cu65   O84     1.931   .     S
Cu65   O77     1.965   .     S
Cu65   O86     1.931   .     S
Cu65   O82     1.965   .     S
Cu66   O87     1.931   .     S
Cu66   N76     2.040   .     S
Cu66   O83     1.965   .     S
Cu66   O85     1.931   .     S
Cu66   O81     1.965   .     S
C89    C92     1.452   .     S
C89    O121    1.303   .     A
C89    O127    1.302   .     A
C90    C92     1.400   .     A
C90    H114    1.082   .     S
C91    C107    1.400   .     A
C91    C108    1.402   .     A
C91    C100    1.452   .     S
C92    C106    1.402   .     A
C93    C97     1.482   .     S
C93    N120    1.376   .     A
C93    C360    1.433   1_545 S
C94    C98     1.486   .     S
C94    N119    1.379   .     A
C94    C227    1.433   .     S
C95    N120    1.376   .     A
C95    C99     1.482   .     S
C95    C358    1.433   1_545 S
C96    C101    1.485   .     S
C96    N119    1.379   .     A
C96    C225    1.433   .     S
C97    H115    1.076   .     S
C97    O132    1.221   .     D
C98    O122    1.221   .     D
C98    H116    1.074   .     S
C99    O123    1.221   .     D
C99    H117    1.076   .     S
C100   O126    1.303   .     A
C100   O125    1.302   .     A
C101   H118    1.074   .     S
C101   O124    1.221   .     D
C102   C104    1.409   .     S
C102   O128    1.299   .     A
C102   O131    1.298   .     A
C103   O129    1.298   .     A
C103   C105    1.409   .     S
C103   O130    1.299   .     A
C104   C897    1.191   1_554 S
C105   C500    1.191   .     S
C106   H111    1.083   .     S
C107   H112    1.082   .     S
C107   C2      1.383   1_655 S
C108   H113    1.083   .     S
C108   C18     1.384   1_655 S
Cu109  Cu110   2.714   .     S
Cu109  N119    2.040   .     S
Cu109  O128    1.931   .     S
Cu109  O121    1.965   .     S
Cu109  O130    1.931   .     S
Cu109  O126    1.965   .     S
Cu110  O131    1.931   .     S
Cu110  N120    2.040   .     S
Cu110  O127    1.965   .     S
Cu110  O129    1.931   .     S
Cu110  O125    1.965   .     S
C133   C136    1.452   .     S
C133   O165    1.303   .     A
C133   O171    1.302   .     A
C134   C136    1.400   .     A
C134   H158    1.082   .     S
C134   C239    1.383   1_455 S
C135   C151    1.400   .     A
C135   C152    1.402   .     A
C135   C144    1.452   .     S
C136   C150    1.402   .     A
C137   C141    1.482   .     S
C137   N164    1.376   .     A
C138   C142    1.486   .     S
C138   N163    1.379   .     A
C138   C271    1.433   .     S
C139   N164    1.376   .     A
C139   C143    1.482   .     S
C140   C145    1.485   .     S
C140   N163    1.379   .     A
C140   C269    1.433   .     S
C141   H159    1.076   .     S
C141   O176    1.221   .     D
C142   O166    1.221   .     D
C142   H160    1.074   .     S
C143   O167    1.221   .     D
C143   H161    1.076   .     S
C144   O170    1.303   .     A
C144   O169    1.302   .     A
C145   H162    1.074   .     S
C145   O168    1.221   .     D
C146   C148    1.409   .     S
C146   O172    1.299   .     A
C146   O175    1.298   .     A
C147   O173    1.298   .     A
C147   C149    1.409   .     S
C147   O174    1.299   .     A
C148   C941    1.191   1_554 S
C149   C544    1.191   .     S
C150   H155    1.083   .     S
C150   C240    1.384   1_455 S
C151   H156    1.082   .     S
C151   C178    1.383   .     S
C152   H157    1.083   .     S
C152   C194    1.384   .     S
Cu153  Cu154   2.714   .     S
Cu153  N163    2.040   .     S
Cu153  O172    1.931   .     S
Cu153  O165    1.965   .     S
Cu153  O174    1.931   .     S
Cu153  O170    1.965   .     S
Cu154  O175    1.931   .     S
Cu154  N164    2.040   .     S
Cu154  O171    1.965   .     S
Cu154  O173    1.931   .     S
Cu154  O169    1.965   .     S
C177   C180    1.452   .     S
C177   O209    1.303   .     A
C177   O215    1.302   .     A
C178   C180    1.400   .     A
C178   H202    1.082   .     S
C179   C195    1.400   .     A
C179   C196    1.402   .     A
C179   C188    1.452   .     S
C180   C194    1.402   .     A
C181   C185    1.482   .     S
C181   N208    1.376   .     A
C182   C186    1.486   .     S
C182   N207    1.379   .     A
C182   C315    1.433   .     S
C183   N208    1.376   .     A
C183   C187    1.482   .     S
C184   C189    1.485   .     S
C184   N207    1.379   .     A
C184   C313    1.433   .     S
C185   H203    1.076   .     S
C185   O220    1.221   .     D
C186   O210    1.221   .     D
C186   H204    1.074   .     S
C187   O211    1.221   .     D
C187   H205    1.076   .     S
C188   O214    1.303   .     A
C188   O213    1.302   .     A
C189   H206    1.074   .     S
C189   O212    1.221   .     D
C190   C192    1.409   .     S
C190   O216    1.299   .     A
C190   O219    1.298   .     A
C191   O217    1.298   .     A
C191   C193    1.409   .     S
C191   O218    1.299   .     A
C192   C985    1.191   1_554 S
C193   C588    1.191   .     S
C194   H199    1.083   .     S
C195   H200    1.082   .     S
C195   C222    1.383   .     S
C196   H201    1.083   .     S
C196   C238    1.384   .     S
Cu197  Cu198   2.714   .     S
Cu197  N207    2.040   .     S
Cu197  O216    1.931   .     S
Cu197  O209    1.965   .     S
Cu197  O218    1.931   .     S
Cu197  O214    1.965   .     S
Cu198  O219    1.931   .     S
Cu198  N208    2.040   .     S
Cu198  O215    1.965   .     S
Cu198  O217    1.931   .     S
Cu198  O213    1.965   .     S
C221   C224    1.452   .     S
C221   O253    1.303   .     A
C221   O259    1.302   .     A
C222   C224    1.400   .     A
C222   H246    1.082   .     S
C223   C239    1.400   .     A
C223   C240    1.402   .     A
C223   C232    1.452   .     S
C224   C238    1.402   .     A
C225   C229    1.482   .     S
C225   N252    1.376   .     A
C226   C230    1.486   .     S
C226   N251    1.379   .     A
C226   C359    1.433   .     S
C227   N252    1.376   .     A
C227   C231    1.482   .     S
C228   C233    1.485   .     S
C228   N251    1.379   .     A
C228   C357    1.433   .     S
C229   H247    1.076   .     S
C229   O264    1.221   .     D
C230   O254    1.221   .     D
C230   H248    1.074   .     S
C231   O255    1.221   .     D
C231   H249    1.076   .     S
C232   O258    1.303   .     A
C232   O257    1.302   .     A
C233   H250    1.074   .     S
C233   O256    1.221   .     D
C234   C236    1.409   .     S
C234   O260    1.299   .     A
C234   O263    1.298   .     A
C235   O261    1.298   .     A
C235   C237    1.409   .     S
C235   O262    1.299   .     A
C236   C1029   1.191   1_554 S
C237   C632    1.191   .     S
C238   H243    1.083   .     S
C239   H244    1.082   .     S
C239   C134    1.383   1_655 S
C240   H245    1.083   .     S
C240   C150    1.384   1_655 S
Cu241  Cu242   2.714   .     S
Cu241  N251    2.040   .     S
Cu241  O260    1.931   .     S
Cu241  O253    1.965   .     S
Cu241  O262    1.931   .     S
Cu241  O258    1.965   .     S
Cu242  O263    1.931   .     S
Cu242  N252    2.040   .     S
Cu242  O259    1.965   .     S
Cu242  O261    1.931   .     S
Cu242  O257    1.965   .     S
C265   C268    1.452   .     S
C265   O297    1.303   .     A
C265   O303    1.302   .     A
C266   C268    1.400   .     A
C266   H290    1.082   .     S
C266   C371    1.383   1_455 S
C267   C283    1.400   .     A
C267   C284    1.402   .     A
C267   C276    1.452   .     S
C268   C282    1.402   .     A
C269   C273    1.482   .     S
C269   N296    1.376   .     A
C270   C274    1.486   .     S
C270   N295    1.379   .     A
C270   C7      1.433   1_565 S
C271   N296    1.376   .     A
C271   C275    1.482   .     S
C272   C277    1.485   .     S
C272   N295    1.379   .     A
C272   C5      1.433   1_565 S
C273   H291    1.076   .     S
C273   O308    1.221   .     D
C274   O298    1.221   .     D
C274   H292    1.074   .     S
C275   O299    1.221   .     D
C275   H293    1.076   .     S
C276   O302    1.303   .     A
C276   O301    1.302   .     A
C277   H294    1.074   .     S
C277   O300    1.221   .     D
C278   C280    1.409   .     S
C278   O304    1.299   .     A
C278   O307    1.298   .     A
C279   O305    1.298   .     A
C279   C281    1.409   .     S
C279   O306    1.299   .     A
C280   C1073   1.191   1_554 S
C281   C676    1.191   .     S
C282   H287    1.083   .     S
C282   C372    1.384   1_455 S
C283   H288    1.082   .     S
C283   C310    1.383   .     S
C284   H289    1.083   .     S
C284   C326    1.384   .     S
Cu285  Cu286   2.714   .     S
Cu285  N295    2.040   .     S
Cu285  O304    1.931   .     S
Cu285  O297    1.965   .     S
Cu285  O306    1.931   .     S
Cu285  O302    1.965   .     S
Cu286  O307    1.931   .     S
Cu286  N296    2.040   .     S
Cu286  O303    1.965   .     S
Cu286  O305    1.931   .     S
Cu286  O301    1.965   .     S
C309   C312    1.452   .     S
C309   O341    1.303   .     A
C309   O347    1.302   .     A
C310   C312    1.400   .     A
C310   H334    1.082   .     S
C311   C327    1.400   .     A
C311   C328    1.402   .     A
C311   C320    1.452   .     S
C312   C326    1.402   .     A
C313   C317    1.482   .     S
C313   N340    1.376   .     A
C314   C318    1.486   .     S
C314   N339    1.379   .     A
C314   C51     1.433   1_565 S
C315   N340    1.376   .     A
C315   C319    1.482   .     S
C316   C321    1.485   .     S
C316   N339    1.379   .     A
C316   C49     1.433   1_565 S
C317   H335    1.076   .     S
C317   O352    1.221   .     D
C318   O342    1.221   .     D
C318   H336    1.074   .     S
C319   O343    1.221   .     D
C319   H337    1.076   .     S
C320   O346    1.303   .     A
C320   O345    1.302   .     A
C321   H338    1.074   .     S
C321   O344    1.221   .     D
C322   C324    1.409   .     S
C322   O348    1.299   .     A
C322   O351    1.298   .     A
C323   O349    1.298   .     A
C323   C325    1.409   .     S
C323   O350    1.299   .     A
C324   C1117   1.191   1_554 S
C325   C720    1.191   .     S
C326   H331    1.083   .     S
C327   H332    1.082   .     S
C327   C354    1.383   .     S
C328   H333    1.083   .     S
C328   C370    1.384   .     S
Cu329  Cu330   2.714   .     S
Cu329  N339    2.040   .     S
Cu329  O348    1.931   .     S
Cu329  O341    1.965   .     S
Cu329  O350    1.931   .     S
Cu329  O346    1.965   .     S
Cu330  O351    1.931   .     S
Cu330  N340    2.040   .     S
Cu330  O347    1.965   .     S
Cu330  O349    1.931   .     S
Cu330  O345    1.965   .     S
C353   C356    1.452   .     S
C353   O385    1.303   .     A
C353   O391    1.302   .     A
C354   C356    1.400   .     A
C354   H378    1.082   .     S
C355   C371    1.400   .     A
C355   C372    1.402   .     A
C355   C364    1.452   .     S
C356   C370    1.402   .     A
C357   C361    1.482   .     S
C357   N384    1.376   .     A
C358   C362    1.486   .     S
C358   N383    1.379   .     A
C358   C95     1.433   1_565 S
C359   N384    1.376   .     A
C359   C363    1.482   .     S
C360   C365    1.485   .     S
C360   N383    1.379   .     A
C360   C93     1.433   1_565 S
C361   H379    1.076   .     S
C361   O396    1.221   .     D
C362   O386    1.221   .     D
C362   H380    1.074   .     S
C363   O387    1.221   .     D
C363   H381    1.076   .     S
C364   O390    1.303   .     A
C364   O389    1.302   .     A
C365   H382    1.074   .     S
C365   O388    1.221   .     D
C366   C368    1.409   .     S
C366   O392    1.299   .     A
C366   O395    1.298   .     A
C367   O393    1.298   .     A
C367   C369    1.409   .     S
C367   O394    1.299   .     A
C368   C1161   1.191   1_554 S
C369   C764    1.191   .     S
C370   H375    1.083   .     S
C371   H376    1.082   .     S
C371   C266    1.383   1_655 S
C372   H377    1.083   .     S
C372   C282    1.384   1_655 S
Cu373  Cu374   2.714   .     S
Cu373  N383    2.040   .     S
Cu373  O392    1.931   .     S
Cu373  O385    1.965   .     S
Cu373  O394    1.931   .     S
Cu373  O390    1.965   .     S
Cu374  O395    1.931   .     S
Cu374  N384    2.040   .     S
Cu374  O391    1.965   .     S
Cu374  O393    1.931   .     S
Cu374  O389    1.965   .     S
C397   C400    1.452   .     S
C397   O429    1.303   .     A
C397   O435    1.302   .     A
C398   C400    1.400   .     A
C398   H422    1.082   .     S
C398   C503    1.383   1_455 S
C399   C415    1.400   .     A
C399   C416    1.402   .     A
C399   C408    1.452   .     S
C400   C414    1.402   .     A
C401   C405    1.482   .     S
C401   N428    1.376   .     A
C401   C668    1.433   1_545 S
C402   C406    1.486   .     S
C402   N427    1.379   .     A
C402   C535    1.433   .     S
C403   N428    1.376   .     A
C403   C407    1.482   .     S
C403   C666    1.433   1_545 S
C404   C409    1.485   .     S
C404   N427    1.379   .     A
C404   C533    1.433   .     S
C405   H423    1.076   .     S
C405   O440    1.221   .     D
C406   O430    1.221   .     D
C406   H424    1.074   .     S
C407   O431    1.221   .     D
C407   H425    1.076   .     S
C408   O434    1.303   .     A
C408   O433    1.302   .     A
C409   H426    1.074   .     S
C409   O432    1.221   .     D
C410   C412    1.409   .     S
C410   O436    1.299   .     A
C410   O439    1.298   .     A
C411   O437    1.298   .     A
C411   C413    1.409   .     S
C411   O438    1.299   .     A
C413   C808    1.191   .     S
C414   H419    1.083   .     S
C414   C504    1.384   1_455 S
C415   H420    1.082   .     S
C415   C442    1.383   .     S
C416   H421    1.083   .     S
C416   C458    1.384   .     S
Cu417  Cu418   2.714   .     S
Cu417  N427    2.040   .     S
Cu417  O436    1.931   .     S
Cu417  O429    1.965   .     S
Cu417  O438    1.931   .     S
Cu417  O434    1.965   .     S
Cu418  O439    1.931   .     S
Cu418  N428    2.040   .     S
Cu418  O435    1.965   .     S
Cu418  O437    1.931   .     S
Cu418  O433    1.965   .     S
C441   C444    1.452   .     S
C441   O473    1.303   .     A
C441   O479    1.302   .     A
C442   C444    1.400   .     A
C442   H466    1.082   .     S
C443   C459    1.400   .     A
C443   C460    1.402   .     A
C443   C452    1.452   .     S
C444   C458    1.402   .     A
C445   C449    1.482   .     S
C445   N472    1.376   .     A
C445   C712    1.433   1_545 S
C446   C450    1.486   .     S
C446   N471    1.379   .     A
C446   C579    1.433   .     S
C447   N472    1.376   .     A
C447   C451    1.482   .     S
C447   C710    1.433   1_545 S
C448   C453    1.485   .     S
C448   N471    1.379   .     A
C448   C577    1.433   .     S
C449   H467    1.076   .     S
C449   O484    1.221   .     D
C450   O474    1.221   .     D
C450   H468    1.074   .     S
C451   O475    1.221   .     D
C451   H469    1.076   .     S
C452   O478    1.303   .     A
C452   O477    1.302   .     A
C453   H470    1.074   .     S
C453   O476    1.221   .     D
C454   C456    1.409   .     S
C454   O480    1.299   .     A
C454   O483    1.298   .     A
C455   O481    1.298   .     A
C455   C457    1.409   .     S
C455   O482    1.299   .     A
C457   C852    1.191   .     S
C458   H463    1.083   .     S
C459   H464    1.082   .     S
C459   C486    1.383   .     S
C460   H465    1.083   .     S
C460   C502    1.384   .     S
Cu461  Cu462   2.714   .     S
Cu461  N471    2.040   .     S
Cu461  O480    1.931   .     S
Cu461  O473    1.965   .     S
Cu461  O482    1.931   .     S
Cu461  O478    1.965   .     S
Cu462  O483    1.931   .     S
Cu462  N472    2.040   .     S
Cu462  O479    1.965   .     S
Cu462  O481    1.931   .     S
Cu462  O477    1.965   .     S
C485   C488    1.452   .     S
C485   O517    1.303   .     A
C485   O523    1.302   .     A
C486   C488    1.400   .     A
C486   H510    1.082   .     S
C487   C503    1.400   .     A
C487   C504    1.402   .     A
C487   C496    1.452   .     S
C488   C502    1.402   .     A
C489   C493    1.482   .     S
C489   N516    1.376   .     A
C489   C756    1.433   1_545 S
C490   C494    1.486   .     S
C490   N515    1.379   .     A
C490   C623    1.433   .     S
C491   N516    1.376   .     A
C491   C495    1.482   .     S
C491   C754    1.433   1_545 S
C492   C497    1.485   .     S
C492   N515    1.379   .     A
C492   C621    1.433   .     S
C493   H511    1.076   .     S
C493   O528    1.221   .     D
C494   O518    1.221   .     D
C494   H512    1.074   .     S
C495   O519    1.221   .     D
C495   H513    1.076   .     S
C496   O522    1.303   .     A
C496   O521    1.302   .     A
C497   H514    1.074   .     S
C497   O520    1.221   .     D
C498   C500    1.409   .     S
C498   O524    1.299   .     A
C498   O527    1.298   .     A
C499   O525    1.298   .     A
C499   C501    1.409   .     S
C499   O526    1.299   .     A
C501   C896    1.191   .     S
C502   H507    1.083   .     S
C503   H508    1.082   .     S
C503   C398    1.383   1_655 S
C504   H509    1.083   .     S
C504   C414    1.384   1_655 S
Cu505  Cu506   2.714   .     S
Cu505  N515    2.040   .     S
Cu505  O524    1.931   .     S
Cu505  O517    1.965   .     S
Cu505  O526    1.931   .     S
Cu505  O522    1.965   .     S
Cu506  O527    1.931   .     S
Cu506  N516    2.040   .     S
Cu506  O523    1.965   .     S
Cu506  O525    1.931   .     S
Cu506  O521    1.965   .     S
C529   C532    1.452   .     S
C529   O561    1.303   .     A
C529   O567    1.302   .     A
C530   C532    1.400   .     A
C530   H554    1.082   .     S
C530   C635    1.383   1_455 S
C531   C547    1.400   .     A
C531   C548    1.402   .     A
C531   C540    1.452   .     S
C532   C546    1.402   .     A
C533   C537    1.482   .     S
C533   N560    1.376   .     A
C534   C538    1.486   .     S
C534   N559    1.379   .     A
C534   C667    1.433   .     S
C535   N560    1.376   .     A
C535   C539    1.482   .     S
C536   C541    1.485   .     S
C536   N559    1.379   .     A
C536   C665    1.433   .     S
C537   H555    1.076   .     S
C537   O572    1.221   .     D
C538   O562    1.221   .     D
C538   H556    1.074   .     S
C539   O563    1.221   .     D
C539   H557    1.076   .     S
C540   O566    1.303   .     A
C540   O565    1.302   .     A
C541   H558    1.074   .     S
C541   O564    1.221   .     D
C542   C544    1.409   .     S
C542   O568    1.299   .     A
C542   O571    1.298   .     A
C543   O569    1.298   .     A
C543   C545    1.409   .     S
C543   O570    1.299   .     A
C545   C940    1.191   .     S
C546   H551    1.083   .     S
C546   C636    1.384   1_455 S
C547   H552    1.082   .     S
C547   C574    1.383   .     S
C548   H553    1.083   .     S
C548   C590    1.384   .     S
Cu549  Cu550   2.714   .     S
Cu549  N559    2.040   .     S
Cu549  O568    1.931   .     S
Cu549  O561    1.965   .     S
Cu549  O570    1.931   .     S
Cu549  O566    1.965   .     S
Cu550  O571    1.931   .     S
Cu550  N560    2.040   .     S
Cu550  O567    1.965   .     S
Cu550  O569    1.931   .     S
Cu550  O565    1.965   .     S
C573   C576    1.452   .     S
C573   O605    1.303   .     A
C573   O611    1.302   .     A
C574   C576    1.400   .     A
C574   H598    1.082   .     S
C575   C591    1.400   .     A
C575   C592    1.402   .     A
C575   C584    1.452   .     S
C576   C590    1.402   .     A
C577   C581    1.482   .     S
C577   N604    1.376   .     A
C578   C582    1.486   .     S
C578   N603    1.379   .     A
C578   C711    1.433   .     S
C579   N604    1.376   .     A
C579   C583    1.482   .     S
C580   C585    1.485   .     S
C580   N603    1.379   .     A
C580   C709    1.433   .     S
C581   H599    1.076   .     S
C581   O616    1.221   .     D
C582   O606    1.221   .     D
C582   H600    1.074   .     S
C583   O607    1.221   .     D
C583   H601    1.076   .     S
C584   O610    1.303   .     A
C584   O609    1.302   .     A
C585   H602    1.074   .     S
C585   O608    1.221   .     D
C586   C588    1.409   .     S
C586   O612    1.299   .     A
C586   O615    1.298   .     A
C587   O613    1.298   .     A
C587   C589    1.409   .     S
C587   O614    1.299   .     A
C589   C984    1.191   .     S
C590   H595    1.083   .     S
C591   H596    1.082   .     S
C591   C618    1.383   .     S
C592   H597    1.083   .     S
C592   C634    1.384   .     S
Cu593  Cu594   2.714   .     S
Cu593  N603    2.040   .     S
Cu593  O612    1.931   .     S
Cu593  O605    1.965   .     S
Cu593  O614    1.931   .     S
Cu593  O610    1.965   .     S
Cu594  O615    1.931   .     S
Cu594  N604    2.040   .     S
Cu594  O611    1.965   .     S
Cu594  O613    1.931   .     S
Cu594  O609    1.965   .     S
C617   C620    1.452   .     S
C617   O649    1.303   .     A
C617   O655    1.302   .     A
C618   C620    1.400   .     A
C618   H642    1.082   .     S
C619   C635    1.400   .     A
C619   C636    1.402   .     A
C619   C628    1.452   .     S
C620   C634    1.402   .     A
C621   C625    1.482   .     S
C621   N648    1.376   .     A
C622   C626    1.486   .     S
C622   N647    1.379   .     A
C622   C755    1.433   .     S
C623   N648    1.376   .     A
C623   C627    1.482   .     S
C624   C629    1.485   .     S
C624   N647    1.379   .     A
C624   C753    1.433   .     S
C625   H643    1.076   .     S
C625   O660    1.221   .     D
C626   O650    1.221   .     D
C626   H644    1.074   .     S
C627   O651    1.221   .     D
C627   H645    1.076   .     S
C628   O654    1.303   .     A
C628   O653    1.302   .     A
C629   H646    1.074   .     S
C629   O652    1.221   .     D
C630   C632    1.409   .     S
C630   O656    1.299   .     A
C630   O659    1.298   .     A
C631   O657    1.298   .     A
C631   C633    1.409   .     S
C631   O658    1.299   .     A
C633   C1028   1.191   .     S
C634   H639    1.083   .     S
C635   H640    1.082   .     S
C635   C530    1.383   1_655 S
C636   H641    1.083   .     S
C636   C546    1.384   1_655 S
Cu637  Cu638   2.714   .     S
Cu637  N647    2.040   .     S
Cu637  O656    1.931   .     S
Cu637  O649    1.965   .     S
Cu637  O658    1.931   .     S
Cu637  O654    1.965   .     S
Cu638  O659    1.931   .     S
Cu638  N648    2.040   .     S
Cu638  O655    1.965   .     S
Cu638  O657    1.931   .     S
Cu638  O653    1.965   .     S
C661   C664    1.452   .     S
C661   O693    1.303   .     A
C661   O699    1.302   .     A
C662   C664    1.400   .     A
C662   H686    1.082   .     S
C662   C767    1.383   1_455 S
C663   C679    1.400   .     A
C663   C680    1.402   .     A
C663   C672    1.452   .     S
C664   C678    1.402   .     A
C665   C669    1.482   .     S
C665   N692    1.376   .     A
C666   C670    1.486   .     S
C666   N691    1.379   .     A
C666   C403    1.433   1_565 S
C667   N692    1.376   .     A
C667   C671    1.482   .     S
C668   C673    1.485   .     S
C668   N691    1.379   .     A
C668   C401    1.433   1_565 S
C669   H687    1.076   .     S
C669   O704    1.221   .     D
C670   O694    1.221   .     D
C670   H688    1.074   .     S
C671   O695    1.221   .     D
C671   H689    1.076   .     S
C672   O698    1.303   .     A
C672   O697    1.302   .     A
C673   H690    1.074   .     S
C673   O696    1.221   .     D
C674   C676    1.409   .     S
C674   O700    1.299   .     A
C674   O703    1.298   .     A
C675   O701    1.298   .     A
C675   C677    1.409   .     S
C675   O702    1.299   .     A
C677   C1072   1.191   .     S
C678   H683    1.083   .     S
C678   C768    1.384   1_455 S
C679   H684    1.082   .     S
C679   C706    1.383   .     S
C680   H685    1.083   .     S
C680   C722    1.384   .     S
Cu681  Cu682   2.714   .     S
Cu681  N691    2.040   .     S
Cu681  O700    1.931   .     S
Cu681  O693    1.965   .     S
Cu681  O702    1.931   .     S
Cu681  O698    1.965   .     S
Cu682  O703    1.931   .     S
Cu682  N692    2.040   .     S
Cu682  O699    1.965   .     S
Cu682  O701    1.931   .     S
Cu682  O697    1.965   .     S
C705   C708    1.452   .     S
C705   O737    1.303   .     A
C705   O743    1.302   .     A
C706   C708    1.400   .     A
C706   H730    1.082   .     S
C707   C723    1.400   .     A
C707   C724    1.402   .     A
C707   C716    1.452   .     S
C708   C722    1.402   .     A
C709   C713    1.482   .     S
C709   N736    1.376   .     A
C710   C714    1.486   .     S
C710   N735    1.379   .     A
C710   C447    1.433   1_565 S
C711   N736    1.376   .     A
C711   C715    1.482   .     S
C712   C717    1.485   .     S
C712   N735    1.379   .     A
C712   C445    1.433   1_565 S
C713   H731    1.076   .     S
C713   O748    1.221   .     D
C714   O738    1.221   .     D
C714   H732    1.074   .     S
C715   O739    1.221   .     D
C715   H733    1.076   .     S
C716   O742    1.303   .     A
C716   O741    1.302   .     A
C717   H734    1.074   .     S
C717   O740    1.221   .     D
C718   C720    1.409   .     S
C718   O744    1.299   .     A
C718   O747    1.298   .     A
C719   O745    1.298   .     A
C719   C721    1.409   .     S
C719   O746    1.299   .     A
C721   C1116   1.191   .     S
C722   H727    1.083   .     S
C723   H728    1.082   .     S
C723   C750    1.383   .     S
C724   H729    1.083   .     S
C724   C766    1.384   .     S
Cu725  Cu726   2.714   .     S
Cu725  N735    2.040   .     S
Cu725  O744    1.931   .     S
Cu725  O737    1.965   .     S
Cu725  O746    1.931   .     S
Cu725  O742    1.965   .     S
Cu726  O747    1.931   .     S
Cu726  N736    2.040   .     S
Cu726  O743    1.965   .     S
Cu726  O745    1.931   .     S
Cu726  O741    1.965   .     S
C749   C752    1.452   .     S
C749   O781    1.303   .     A
C749   O787    1.302   .     A
C750   C752    1.400   .     A
C750   H774    1.082   .     S
C751   C767    1.400   .     A
C751   C768    1.402   .     A
C751   C760    1.452   .     S
C752   C766    1.402   .     A
C753   C757    1.482   .     S
C753   N780    1.376   .     A
C754   C758    1.486   .     S
C754   N779    1.379   .     A
C754   C491    1.433   1_565 S
C755   N780    1.376   .     A
C755   C759    1.482   .     S
C756   C761    1.485   .     S
C756   N779    1.379   .     A
C756   C489    1.433   1_565 S
C757   H775    1.076   .     S
C757   O792    1.221   .     D
C758   O782    1.221   .     D
C758   H776    1.074   .     S
C759   O783    1.221   .     D
C759   H777    1.076   .     S
C760   O786    1.303   .     A
C760   O785    1.302   .     A
C761   H778    1.074   .     S
C761   O784    1.221   .     D
C762   C764    1.409   .     S
C762   O788    1.299   .     A
C762   O791    1.298   .     A
C763   O789    1.298   .     A
C763   C765    1.409   .     S
C763   O790    1.299   .     A
C765   C1160   1.191   .     S
C766   H771    1.083   .     S
C767   H772    1.082   .     S
C767   C662    1.383   1_655 S
C768   H773    1.083   .     S
C768   C678    1.384   1_655 S
Cu769  Cu770   2.714   .     S
Cu769  N779    2.040   .     S
Cu769  O788    1.931   .     S
Cu769  O781    1.965   .     S
Cu769  O790    1.931   .     S
Cu769  O786    1.965   .     S
Cu770  O791    1.931   .     S
Cu770  N780    2.040   .     S
Cu770  O787    1.965   .     S
Cu770  O789    1.931   .     S
Cu770  O785    1.965   .     S
C793   C796    1.452   .     S
C793   O825    1.303   .     A
C793   O831    1.302   .     A
C794   C796    1.400   .     A
C794   H818    1.082   .     S
C794   C899    1.383   1_455 S
C795   C811    1.400   .     A
C795   C812    1.402   .     A
C795   C804    1.452   .     S
C796   C810    1.402   .     A
C797   C801    1.482   .     S
C797   N824    1.376   .     A
C797   C1064   1.433   1_545 S
C798   C802    1.486   .     S
C798   N823    1.379   .     A
C798   C931    1.433   .     S
C799   N824    1.376   .     A
C799   C803    1.482   .     S
C799   C1062   1.433   1_545 S
C800   C805    1.485   .     S
C800   N823    1.379   .     A
C800   C929    1.433   .     S
C801   H819    1.076   .     S
C801   O836    1.221   .     D
C802   O826    1.221   .     D
C802   H820    1.074   .     S
C803   O827    1.221   .     D
C803   H821    1.076   .     S
C804   O830    1.303   .     A
C804   O829    1.302   .     A
C805   H822    1.074   .     S
C805   O828    1.221   .     D
C806   C808    1.409   .     S
C806   O832    1.299   .     A
C806   O835    1.298   .     A
C807   O833    1.298   .     A
C807   C809    1.409   .     S
C807   O834    1.299   .     A
C809   C16     1.191   1_556 S
C810   H815    1.083   .     S
C810   C900    1.384   1_455 S
C811   H816    1.082   .     S
C811   C838    1.383   .     S
C812   H817    1.083   .     S
C812   C854    1.384   .     S
Cu813  Cu814   2.714   .     S
Cu813  N823    2.040   .     S
Cu813  O832    1.931   .     S
Cu813  O825    1.965   .     S
Cu813  O834    1.931   .     S
Cu813  O830    1.965   .     S
Cu814  O835    1.931   .     S
Cu814  N824    2.040   .     S
Cu814  O831    1.965   .     S
Cu814  O833    1.931   .     S
Cu814  O829    1.965   .     S
C837   C840    1.452   .     S
C837   O869    1.303   .     A
C837   O875    1.302   .     A
C838   C840    1.400   .     A
C838   H862    1.082   .     S
C839   C855    1.400   .     A
C839   C856    1.402   .     A
C839   C848    1.452   .     S
C840   C854    1.402   .     A
C841   C845    1.482   .     S
C841   N868    1.376   .     A
C841   C1108   1.433   1_545 S
C842   C846    1.486   .     S
C842   N867    1.379   .     A
C842   C975    1.433   .     S
C843   N868    1.376   .     A
C843   C847    1.482   .     S
C843   C1106   1.433   1_545 S
C844   C849    1.485   .     S
C844   N867    1.379   .     A
C844   C973    1.433   .     S
C845   H863    1.076   .     S
C845   O880    1.221   .     D
C846   O870    1.221   .     D
C846   H864    1.074   .     S
C847   O871    1.221   .     D
C847   H865    1.076   .     S
C848   O874    1.303   .     A
C848   O873    1.302   .     A
C849   H866    1.074   .     S
C849   O872    1.221   .     D
C850   C852    1.409   .     S
C850   O876    1.299   .     A
C850   O879    1.298   .     A
C851   O877    1.298   .     A
C851   C853    1.409   .     S
C851   O878    1.299   .     A
C853   C60     1.191   1_556 S
C854   H859    1.083   .     S
C855   H860    1.082   .     S
C855   C882    1.383   .     S
C856   H861    1.083   .     S
C856   C898    1.384   .     S
Cu857  Cu858   2.714   .     S
Cu857  N867    2.040   .     S
Cu857  O876    1.931   .     S
Cu857  O869    1.965   .     S
Cu857  O878    1.931   .     S
Cu857  O874    1.965   .     S
Cu858  O879    1.931   .     S
Cu858  N868    2.040   .     S
Cu858  O875    1.965   .     S
Cu858  O877    1.931   .     S
Cu858  O873    1.965   .     S
C881   C884    1.452   .     S
C881   O913    1.303   .     A
C881   O919    1.302   .     A
C882   C884    1.400   .     A
C882   H906    1.082   .     S
C883   C899    1.400   .     A
C883   C900    1.402   .     A
C883   C892    1.452   .     S
C884   C898    1.402   .     A
C885   C889    1.482   .     S
C885   N912    1.376   .     A
C885   C1152   1.433   1_545 S
C886   C890    1.486   .     S
C886   N911    1.379   .     A
C886   C1019   1.433   .     S
C887   N912    1.376   .     A
C887   C891    1.482   .     S
C887   C1150   1.433   1_545 S
C888   C893    1.485   .     S
C888   N911    1.379   .     A
C888   C1017   1.433   .     S
C889   H907    1.076   .     S
C889   O924    1.221   .     D
C890   O914    1.221   .     D
C890   H908    1.074   .     S
C891   O915    1.221   .     D
C891   H909    1.076   .     S
C892   O918    1.303   .     A
C892   O917    1.302   .     A
C893   H910    1.074   .     S
C893   O916    1.221   .     D
C894   C896    1.409   .     S
C894   O920    1.299   .     A
C894   O923    1.298   .     A
C895   O921    1.298   .     A
C895   C897    1.409   .     S
C895   O922    1.299   .     A
C897   C104    1.191   1_556 S
C898   H903    1.083   .     S
C899   H904    1.082   .     S
C899   C794    1.383   1_655 S
C900   H905    1.083   .     S
C900   C810    1.384   1_655 S
Cu901  Cu902   2.714   .     S
Cu901  N911    2.040   .     S
Cu901  O920    1.931   .     S
Cu901  O913    1.965   .     S
Cu901  O922    1.931   .     S
Cu901  O918    1.965   .     S
Cu902  O923    1.931   .     S
Cu902  N912    2.040   .     S
Cu902  O919    1.965   .     S
Cu902  O921    1.931   .     S
Cu902  O917    1.965   .     S
C925   C928    1.452   .     S
C925   O957    1.303   .     A
C925   O963    1.302   .     A
C926   C928    1.400   .     A
C926   H950    1.082   .     S
C926   C1031   1.383   1_455 S
C927   C943    1.400   .     A
C927   C944    1.402   .     A
C927   C936    1.452   .     S
C928   C942    1.402   .     A
C929   C933    1.482   .     S
C929   N956    1.376   .     A
C930   C934    1.486   .     S
C930   N955    1.379   .     A
C930   C1063   1.433   .     S
C931   N956    1.376   .     A
C931   C935    1.482   .     S
C932   C937    1.485   .     S
C932   N955    1.379   .     A
C932   C1061   1.433   .     S
C933   H951    1.076   .     S
C933   O968    1.221   .     D
C934   O958    1.221   .     D
C934   H952    1.074   .     S
C935   O959    1.221   .     D
C935   H953    1.076   .     S
C936   O962    1.303   .     A
C936   O961    1.302   .     A
C937   H954    1.074   .     S
C937   O960    1.221   .     D
C938   C940    1.409   .     S
C938   O964    1.299   .     A
C938   O967    1.298   .     A
C939   O965    1.298   .     A
C939   C941    1.409   .     S
C939   O966    1.299   .     A
C941   C148    1.191   1_556 S
C942   H947    1.083   .     S
C942   C1032   1.384   1_455 S
C943   H948    1.082   .     S
C943   C970    1.383   .     S
C944   H949    1.083   .     S
C944   C986    1.384   .     S
Cu945  Cu946   2.714   .     S
Cu945  N955    2.040   .     S
Cu945  O964    1.931   .     S
Cu945  O957    1.965   .     S
Cu945  O966    1.931   .     S
Cu945  O962    1.965   .     S
Cu946  O967    1.931   .     S
Cu946  N956    2.040   .     S
Cu946  O963    1.965   .     S
Cu946  O965    1.931   .     S
Cu946  O961    1.965   .     S
C969   C972    1.452   .     S
C969   O1001   1.303   .     A
C969   O1007   1.302   .     A
C970   C972    1.400   .     A
C970   H994    1.082   .     S
C971   C987    1.400   .     A
C971   C988    1.402   .     A
C971   C980    1.452   .     S
C972   C986    1.402   .     A
C973   C977    1.482   .     S
C973   N1000   1.376   .     A
C974   C978    1.486   .     S
C974   N999    1.379   .     A
C974   C1107   1.433   .     S
C975   N1000   1.376   .     A
C975   C979    1.482   .     S
C976   C981    1.485   .     S
C976   N999    1.379   .     A
C976   C1105   1.433   .     S
C977   H995    1.076   .     S
C977   O1012   1.221   .     D
C978   O1002   1.221   .     D
C978   H996    1.074   .     S
C979   O1003   1.221   .     D
C979   H997    1.076   .     S
C980   O1006   1.303   .     A
C980   O1005   1.302   .     A
C981   H998    1.074   .     S
C981   O1004   1.221   .     D
C982   C984    1.409   .     S
C982   O1008   1.299   .     A
C982   O1011   1.298   .     A
C983   O1009   1.298   .     A
C983   C985    1.409   .     S
C983   O1010   1.299   .     A
C985   C192    1.191   1_556 S
C986   H991    1.083   .     S
C987   H992    1.082   .     S
C987   C1014   1.383   .     S
C988   H993    1.083   .     S
C988   C1030   1.384   .     S
Cu989  Cu990   2.714   .     S
Cu989  N999    2.040   .     S
Cu989  O1008   1.931   .     S
Cu989  O1001   1.965   .     S
Cu989  O1010   1.931   .     S
Cu989  O1006   1.965   .     S
Cu990  O1011   1.931   .     S
Cu990  N1000   2.040   .     S
Cu990  O1007   1.965   .     S
Cu990  O1009   1.931   .     S
Cu990  O1005   1.965   .     S
C1013  C1016   1.452   .     S
C1013  O1045   1.303   .     A
C1013  O1051   1.302   .     A
C1014  C1016   1.400   .     A
C1014  H1038   1.082   .     S
C1015  C1031   1.400   .     A
C1015  C1032   1.402   .     A
C1015  C1024   1.452   .     S
C1016  C1030   1.402   .     A
C1017  C1021   1.482   .     S
C1017  N1044   1.376   .     A
C1018  C1022   1.486   .     S
C1018  N1043   1.379   .     A
C1018  C1151   1.433   .     S
C1019  N1044   1.376   .     A
C1019  C1023   1.482   .     S
C1020  C1025   1.485   .     S
C1020  N1043   1.379   .     A
C1020  C1149   1.433   .     S
C1021  H1039   1.076   .     S
C1021  O1056   1.221   .     D
C1022  O1046   1.221   .     D
C1022  H1040   1.074   .     S
C1023  O1047   1.221   .     D
C1023  H1041   1.076   .     S
C1024  O1050   1.303   .     A
C1024  O1049   1.302   .     A
C1025  H1042   1.074   .     S
C1025  O1048   1.221   .     D
C1026  C1028   1.409   .     S
C1026  O1052   1.299   .     A
C1026  O1055   1.298   .     A
C1027  O1053   1.298   .     A
C1027  C1029   1.409   .     S
C1027  O1054   1.299   .     A
C1029  C236    1.191   1_556 S
C1030  H1035   1.083   .     S
C1031  H1036   1.082   .     S
C1031  C926    1.383   1_655 S
C1032  H1037   1.083   .     S
C1032  C942    1.384   1_655 S
Cu1033 Cu1034  2.714   .     S
Cu1033 N1043   2.040   .     S
Cu1033 O1052   1.931   .     S
Cu1033 O1045   1.965   .     S
Cu1033 O1054   1.931   .     S
Cu1033 O1050   1.965   .     S
Cu1034 O1055   1.931   .     S
Cu1034 N1044   2.040   .     S
Cu1034 O1051   1.965   .     S
Cu1034 O1053   1.931   .     S
Cu1034 O1049   1.965   .     S
C1057  C1060   1.452   .     S
C1057  O1089   1.303   .     A
C1057  O1095   1.302   .     A
C1058  C1060   1.400   .     A
C1058  H1082   1.082   .     S
C1058  C1163   1.383   1_455 S
C1059  C1075   1.400   .     A
C1059  C1076   1.402   .     A
C1059  C1068   1.452   .     S
C1060  C1074   1.402   .     A
C1061  C1065   1.482   .     S
C1061  N1088   1.376   .     A
C1062  C1066   1.486   .     S
C1062  N1087   1.379   .     A
C1062  C799    1.433   1_565 S
C1063  N1088   1.376   .     A
C1063  C1067   1.482   .     S
C1064  C1069   1.485   .     S
C1064  N1087   1.379   .     A
C1064  C797    1.433   1_565 S
C1065  H1083   1.076   .     S
C1065  O1100   1.221   .     D
C1066  O1090   1.221   .     D
C1066  H1084   1.074   .     S
C1067  O1091   1.221   .     D
C1067  H1085   1.076   .     S
C1068  O1094   1.303   .     A
C1068  O1093   1.302   .     A
C1069  H1086   1.074   .     S
C1069  O1092   1.221   .     D
C1070  C1072   1.409   .     S
C1070  O1096   1.299   .     A
C1070  O1099   1.298   .     A
C1071  O1097   1.298   .     A
C1071  C1073   1.409   .     S
C1071  O1098   1.299   .     A
C1073  C280    1.191   1_556 S
C1074  H1079   1.083   .     S
C1074  C1164   1.384   1_455 S
C1075  H1080   1.082   .     S
C1075  C1102   1.383   .     S
C1076  H1081   1.083   .     S
C1076  C1118   1.384   .     S
Cu1077 Cu1078  2.714   .     S
Cu1077 N1087   2.040   .     S
Cu1077 O1096   1.931   .     S
Cu1077 O1089   1.965   .     S
Cu1077 O1098   1.931   .     S
Cu1077 O1094   1.965   .     S
Cu1078 O1099   1.931   .     S
Cu1078 N1088   2.040   .     S
Cu1078 O1095   1.965   .     S
Cu1078 O1097   1.931   .     S
Cu1078 O1093   1.965   .     S
C1101  C1104   1.452   .     S
C1101  O1133   1.303   .     A
C1101  O1139   1.302   .     A
C1102  C1104   1.400   .     A
C1102  H1126   1.082   .     S
C1103  C1119   1.400   .     A
C1103  C1120   1.402   .     A
C1103  C1112   1.452   .     S
C1104  C1118   1.402   .     A
C1105  C1109   1.482   .     S
C1105  N1132   1.376   .     A
C1106  C1110   1.486   .     S
C1106  N1131   1.379   .     A
C1106  C843    1.433   1_565 S
C1107  N1132   1.376   .     A
C1107  C1111   1.482   .     S
C1108  C1113   1.485   .     S
C1108  N1131   1.379   .     A
C1108  C841    1.433   1_565 S
C1109  H1127   1.076   .     S
C1109  O1144   1.221   .     D
C1110  O1134   1.221   .     D
C1110  H1128   1.074   .     S
C1111  O1135   1.221   .     D
C1111  H1129   1.076   .     S
C1112  O1138   1.303   .     A
C1112  O1137   1.302   .     A
C1113  H1130   1.074   .     S
C1113  O1136   1.221   .     D
C1114  C1116   1.409   .     S
C1114  O1140   1.299   .     A
C1114  O1143   1.298   .     A
C1115  O1141   1.298   .     A
C1115  C1117   1.409   .     S
C1115  O1142   1.299   .     A
C1117  C324    1.191   1_556 S
C1118  H1123   1.083   .     S
C1119  H1124   1.082   .     S
C1119  C1146   1.383   .     S
C1120  H1125   1.083   .     S
C1120  C1162   1.384   .     S
Cu1121 Cu1122  2.714   .     S
Cu1121 N1131   2.040   .     S
Cu1121 O1140   1.931   .     S
Cu1121 O1133   1.965   .     S
Cu1121 O1142   1.931   .     S
Cu1121 O1138   1.965   .     S
Cu1122 O1143   1.931   .     S
Cu1122 N1132   2.040   .     S
Cu1122 O1139   1.965   .     S
Cu1122 O1141   1.931   .     S
Cu1122 O1137   1.965   .     S
C1145  C1148   1.452   .     S
C1145  O1177   1.303   .     A
C1145  O1183   1.302   .     A
C1146  C1148   1.400   .     A
C1146  H1170   1.082   .     S
C1147  C1163   1.400   .     A
C1147  C1164   1.402   .     A
C1147  C1156   1.452   .     S
C1148  C1162   1.402   .     A
C1149  C1153   1.482   .     S
C1149  N1176   1.376   .     A
C1150  C1154   1.486   .     S
C1150  N1175   1.379   .     A
C1150  C887    1.433   1_565 S
C1151  N1176   1.376   .     A
C1151  C1155   1.482   .     S
C1152  C1157   1.485   .     S
C1152  N1175   1.379   .     A
C1152  C885    1.433   1_565 S
C1153  H1171   1.076   .     S
C1153  O1188   1.221   .     D
C1154  O1178   1.221   .     D
C1154  H1172   1.074   .     S
C1155  O1179   1.221   .     D
C1155  H1173   1.076   .     S
C1156  O1182   1.303   .     A
C1156  O1181   1.302   .     A
C1157  H1174   1.074   .     S
C1157  O1180   1.221   .     D
C1158  C1160   1.409   .     S
C1158  O1184   1.299   .     A
C1158  O1187   1.298   .     A
C1159  O1185   1.298   .     A
C1159  C1161   1.409   .     S
C1159  O1186   1.299   .     A
C1161  C368    1.191   1_556 S
C1162  H1167   1.083   .     S
C1163  H1168   1.082   .     S
C1163  C1058   1.383   1_655 S
C1164  H1169   1.083   .     S
C1164  C1074   1.384   1_655 S
Cu1165 Cu1166  2.714   .     S
Cu1165 N1175   2.040   .     S
Cu1165 O1184   1.931   .     S
Cu1165 O1177   1.965   .     S
Cu1165 O1186   1.931   .     S
Cu1165 O1182   1.965   .     S
Cu1166 O1187   1.931   .     S
Cu1166 N1176   2.040   .     S
Cu1166 O1183   1.965   .     S
Cu1166 O1185   1.931   .     S
Cu1166 O1181   1.965   .     S
