data_str_m2_o1_o2_pcu_sym.33
_audit_creation_date              2020-01-03
_audit_creation_method            'Materials Studio'
_symmetry_space_group_name_H-M    'P1'
_symmetry_Int_Tables_number       1
_symmetry_cell_setting            triclinic
loop_
_symmetry_equiv_pos_as_xyz
  x,y,z
_cell_length_a                    32.3690
_cell_length_b                    28.5767
_cell_length_c                    30.2667
_cell_angle_alpha                 89.9645
_cell_angle_beta                  90.1720
_cell_angle_gamma                 89.9807
loop_
_atom_site_label
_atom_site_type_symbol
_atom_site_fract_x
_atom_site_fract_y
_atom_site_fract_z
_atom_site_U_iso_or_equiv
_atom_site_adp_type
_atom_site_occupancy
C1     C     0.08753   0.16667   0.24998   0.00000  Uiso   1.00
C2     C     0.31198   0.18728   0.28573   0.00000  Uiso   1.00
C3     C     0.31178   0.14607   0.21428   0.00000  Uiso   1.00
C4     C     0.02156   0.18728   0.28572   0.00000  Uiso   1.00
C5     C     0.17907   0.20661   0.04760   0.00000  Uiso   1.00
C6     C     0.17915   0.12668   0.45248   0.00000  Uiso   1.00
C7     C     0.15373   0.20657   0.45230   0.00000  Uiso   1.00
C8     C     0.15369   0.12673   0.04762   0.00000  Uiso   1.00
C9     C     0.17886   0.20673   0.09352   0.00000  Uiso   1.00
C10    C     0.17899   0.12659   0.40655   0.00000  Uiso   1.00
C11    C     0.15409   0.20668   0.40638   0.00000  Uiso   1.00
C12    C     0.24580   0.16666   0.25002   0.00000  Uiso   1.00
C13    C     0.15399   0.12665   0.09354   0.00000  Uiso   1.00
C14    C     0.16648   0.16669   0.11673   0.00000  Uiso   1.00
C15    C     0.16660   0.16664   0.38327   0.00000  Uiso   1.00
C16    C     0.16637   0.16666   0.02428   0.00000  Uiso   1.00
C17    C     0.16640   0.16663   0.47572   0.00000  Uiso   1.00
C18    C     0.29037   0.16666   0.25001   0.00000  Uiso   1.00
C19    C     0.04297   0.16667   0.24999   0.00000  Uiso   1.00
C20    C     0.16660   0.16668   0.16497   0.00000  Uiso   1.00
C21    C     0.16667   0.16666   0.33503   0.00000  Uiso   1.00
C22    C     0.14131   0.02483   0.22217   0.00000  Uiso   1.00
C23    C     0.19202   0.30850   0.27783   0.00000  Uiso   1.00
C24    C     0.19202   0.02477   0.27783   0.00000  Uiso   1.00
C25    C     0.14131   0.30857   0.22217   0.00000  Uiso   1.00
C26    C     0.02136   0.14604   0.21427   0.00000  Uiso   1.00
Cu27   Cu    0.16667   0.21355   0.25000   0.00000  Uiso   1.00
Cu28   Cu    0.16667   0.11978   0.25000   0.00000  Uiso   1.00
H29    H     0.12099   0.04354   0.19987   0.00000  Uiso   1.00
H30    H     0.18909   0.09544   0.38930   0.00000  Uiso   1.00
H31    H     0.14404   0.23783   0.38898   0.00000  Uiso   1.00
H32    H     0.14394   0.09551   0.11088   0.00000  Uiso   1.00
H33    H     0.06987   0.13679   0.17645   0.00000  Uiso   1.00
H34    H     0.26348   0.19644   0.32358   0.00000  Uiso   1.00
H35    H     0.26311   0.13715   0.17635   0.00000  Uiso   1.00
H36    H     0.07025   0.19629   0.32361   0.00000  Uiso   1.00
H37    H     0.21235   0.28980   0.30012   0.00000  Uiso   1.00
H38    H     0.21233   0.04342   0.30013   0.00000  Uiso   1.00
H39    H     0.12099   0.28991   0.19988   0.00000  Uiso   1.00
H40    H     0.18966   0.23756   0.03037   0.00000  Uiso   1.00
H41    H     0.18973   0.09572   0.46978   0.00000  Uiso   1.00
H42    H     0.14308   0.23753   0.46945   0.00000  Uiso   1.00
H43    H     0.14307   0.09577   0.03039   0.00000  Uiso   1.00
H44    H     0.18893   0.23789   0.11083   0.00000  Uiso   1.00
N45    N     0.16667   0.28402   0.25000   0.00000  Uiso   1.00
N46    N     0.16667   0.04931   0.25000   0.00000  Uiso   1.00
O47    O     0.10655   0.20625   0.25000   0.00000  Uiso   1.00
O48    O     0.29260   0.20670   0.32212   0.00000  Uiso   1.00
O49    O     0.29219   0.12670   0.17788   0.00000  Uiso   1.00
O50    O     0.04115   0.20667   0.32211   0.00000  Uiso   1.00
O51    O     0.22679   0.12709   0.25001   0.00000  Uiso   1.00
O52    O     0.22679   0.20625   0.25001   0.00000  Uiso   1.00
O53    O     0.10655   0.12709   0.25000   0.00000  Uiso   1.00
O54    O     0.16666   0.20626   0.18573   0.00000  Uiso   1.00
O55    O     0.16667   0.12707   0.31427   0.00000  Uiso   1.00
O56    O     0.16667   0.20626   0.31427   0.00000  Uiso   1.00
O57    O     0.16666   0.12707   0.18573   0.00000  Uiso   1.00
O58    O     0.04074   0.12660   0.17789   0.00000  Uiso   1.00
C59    C     0.42086   0.16667   0.24998   0.00000  Uiso   1.00
C60    C     0.64531   0.18728   0.28573   0.00000  Uiso   1.00
C61    C     0.64511   0.14607   0.21428   0.00000  Uiso   1.00
C62    C     0.35489   0.18728   0.28572   0.00000  Uiso   1.00
C63    C     0.51240   0.20661   0.04760   0.00000  Uiso   1.00
C64    C     0.51248   0.12668   0.45248   0.00000  Uiso   1.00
C65    C     0.48707   0.20657   0.45230   0.00000  Uiso   1.00
C66    C     0.48702   0.12673   0.04762   0.00000  Uiso   1.00
C67    C     0.51219   0.20673   0.09352   0.00000  Uiso   1.00
C68    C     0.51232   0.12659   0.40655   0.00000  Uiso   1.00
C69    C     0.48742   0.20668   0.40638   0.00000  Uiso   1.00
C70    C     0.57914   0.16666   0.25002   0.00000  Uiso   1.00
C71    C     0.48733   0.12665   0.09354   0.00000  Uiso   1.00
C72    C     0.49982   0.16669   0.11673   0.00000  Uiso   1.00
C73    C     0.49993   0.16664   0.38327   0.00000  Uiso   1.00
C74    C     0.49970   0.16666   0.02428   0.00000  Uiso   1.00
C75    C     0.49973   0.16663   0.47572   0.00000  Uiso   1.00
C76    C     0.62371   0.16666   0.25001   0.00000  Uiso   1.00
C77    C     0.37630   0.16667   0.24999   0.00000  Uiso   1.00
C78    C     0.49993   0.16668   0.16497   0.00000  Uiso   1.00
C79    C     0.50001   0.16666   0.33503   0.00000  Uiso   1.00
C80    C     0.47465   0.02483   0.22217   0.00000  Uiso   1.00
C81    C     0.52535   0.30850   0.27783   0.00000  Uiso   1.00
C82    C     0.52535   0.02477   0.27783   0.00000  Uiso   1.00
C83    C     0.47465   0.30857   0.22217   0.00000  Uiso   1.00
C84    C     0.35469   0.14604   0.21427   0.00000  Uiso   1.00
Cu85   Cu    0.50000   0.21355   0.25000   0.00000  Uiso   1.00
Cu86   Cu    0.50000   0.11978   0.25000   0.00000  Uiso   1.00
H87    H     0.45433   0.04354   0.19987   0.00000  Uiso   1.00
H88    H     0.52243   0.09544   0.38930   0.00000  Uiso   1.00
H89    H     0.47738   0.23783   0.38898   0.00000  Uiso   1.00
H90    H     0.47727   0.09551   0.11088   0.00000  Uiso   1.00
H91    H     0.40321   0.13679   0.17645   0.00000  Uiso   1.00
H92    H     0.59682   0.19644   0.32358   0.00000  Uiso   1.00
H93    H     0.59644   0.13715   0.17635   0.00000  Uiso   1.00
H94    H     0.40358   0.19629   0.32361   0.00000  Uiso   1.00
H95    H     0.54568   0.28980   0.30012   0.00000  Uiso   1.00
H96    H     0.54566   0.04342   0.30013   0.00000  Uiso   1.00
H97    H     0.45433   0.28991   0.19988   0.00000  Uiso   1.00
H98    H     0.52300   0.23756   0.03037   0.00000  Uiso   1.00
H99    H     0.52307   0.09572   0.46978   0.00000  Uiso   1.00
H100   H     0.47642   0.23753   0.46945   0.00000  Uiso   1.00
H101   H     0.47640   0.09577   0.03039   0.00000  Uiso   1.00
H102   H     0.52227   0.23789   0.11083   0.00000  Uiso   1.00
N103   N     0.50000   0.28402   0.25000   0.00000  Uiso   1.00
N104   N     0.50000   0.04931   0.25000   0.00000  Uiso   1.00
O105   O     0.43988   0.20625   0.25000   0.00000  Uiso   1.00
O106   O     0.62593   0.20670   0.32212   0.00000  Uiso   1.00
O107   O     0.62552   0.12670   0.17788   0.00000  Uiso   1.00
O108   O     0.37448   0.20667   0.32211   0.00000  Uiso   1.00
O109   O     0.56012   0.12709   0.25001   0.00000  Uiso   1.00
O110   O     0.56012   0.20625   0.25001   0.00000  Uiso   1.00
O111   O     0.43988   0.12709   0.25000   0.00000  Uiso   1.00
O112   O     0.50000   0.20626   0.18573   0.00000  Uiso   1.00
O113   O     0.50000   0.12707   0.31427   0.00000  Uiso   1.00
O114   O     0.50000   0.20626   0.31427   0.00000  Uiso   1.00
O115   O     0.50000   0.12707   0.18573   0.00000  Uiso   1.00
O116   O     0.37407   0.12660   0.17789   0.00000  Uiso   1.00
C117   C     0.75420   0.16667   0.24998   0.00000  Uiso   1.00
C118   C     0.97865   0.18728   0.28573   0.00000  Uiso   1.00
C119   C     0.97845   0.14607   0.21428   0.00000  Uiso   1.00
C120   C     0.68823   0.18728   0.28572   0.00000  Uiso   1.00
C121   C     0.84574   0.20661   0.04760   0.00000  Uiso   1.00
C122   C     0.84581   0.12668   0.45248   0.00000  Uiso   1.00
C123   C     0.82040   0.20657   0.45230   0.00000  Uiso   1.00
C124   C     0.82035   0.12673   0.04762   0.00000  Uiso   1.00
C125   C     0.84553   0.20673   0.09352   0.00000  Uiso   1.00
C126   C     0.84566   0.12659   0.40655   0.00000  Uiso   1.00
C127   C     0.82076   0.20668   0.40638   0.00000  Uiso   1.00
C128   C     0.91247   0.16666   0.25002   0.00000  Uiso   1.00
C129   C     0.82066   0.12665   0.09354   0.00000  Uiso   1.00
C130   C     0.83315   0.16669   0.11673   0.00000  Uiso   1.00
C131   C     0.83326   0.16664   0.38327   0.00000  Uiso   1.00
C132   C     0.83304   0.16666   0.02428   0.00000  Uiso   1.00
C133   C     0.83307   0.16663   0.47572   0.00000  Uiso   1.00
C134   C     0.95704   0.16666   0.25001   0.00000  Uiso   1.00
C135   C     0.70963   0.16667   0.24999   0.00000  Uiso   1.00
C136   C     0.83327   0.16668   0.16497   0.00000  Uiso   1.00
C137   C     0.83334   0.16666   0.33503   0.00000  Uiso   1.00
C138   C     0.80798   0.02483   0.22217   0.00000  Uiso   1.00
C139   C     0.85869   0.30850   0.27783   0.00000  Uiso   1.00
C140   C     0.85868   0.02477   0.27783   0.00000  Uiso   1.00
C141   C     0.80798   0.30857   0.22217   0.00000  Uiso   1.00
C142   C     0.68803   0.14604   0.21427   0.00000  Uiso   1.00
Cu143  Cu    0.83333   0.21355   0.25000   0.00000  Uiso   1.00
Cu144  Cu    0.83333   0.11978   0.25000   0.00000  Uiso   1.00
H145   H     0.78766   0.04354   0.19987   0.00000  Uiso   1.00
H146   H     0.85576   0.09544   0.38930   0.00000  Uiso   1.00
H147   H     0.81071   0.23783   0.38898   0.00000  Uiso   1.00
H148   H     0.81060   0.09551   0.11088   0.00000  Uiso   1.00
H149   H     0.73654   0.13679   0.17645   0.00000  Uiso   1.00
H150   H     0.93015   0.19644   0.32358   0.00000  Uiso   1.00
H151   H     0.92977   0.13715   0.17635   0.00000  Uiso   1.00
H152   H     0.73692   0.19629   0.32361   0.00000  Uiso   1.00
H153   H     0.87901   0.28980   0.30012   0.00000  Uiso   1.00
H154   H     0.87900   0.04342   0.30013   0.00000  Uiso   1.00
H155   H     0.78766   0.28991   0.19988   0.00000  Uiso   1.00
H156   H     0.85633   0.23756   0.03037   0.00000  Uiso   1.00
H157   H     0.85640   0.09572   0.46978   0.00000  Uiso   1.00
H158   H     0.80975   0.23753   0.46945   0.00000  Uiso   1.00
H159   H     0.80973   0.09577   0.03039   0.00000  Uiso   1.00
H160   H     0.85560   0.23789   0.11083   0.00000  Uiso   1.00
N161   N     0.83333   0.28402   0.25000   0.00000  Uiso   1.00
N162   N     0.83333   0.04931   0.25000   0.00000  Uiso   1.00
O163   O     0.77321   0.20625   0.25000   0.00000  Uiso   1.00
O164   O     0.95927   0.20670   0.32212   0.00000  Uiso   1.00
O165   O     0.95885   0.12670   0.17788   0.00000  Uiso   1.00
O166   O     0.70782   0.20667   0.32211   0.00000  Uiso   1.00
O167   O     0.89345   0.12709   0.25001   0.00000  Uiso   1.00
O168   O     0.89345   0.20625   0.25001   0.00000  Uiso   1.00
O169   O     0.77321   0.12709   0.25000   0.00000  Uiso   1.00
O170   O     0.83333   0.20626   0.18573   0.00000  Uiso   1.00
O171   O     0.83334   0.12707   0.31427   0.00000  Uiso   1.00
O172   O     0.83334   0.20626   0.31427   0.00000  Uiso   1.00
O173   O     0.83333   0.12707   0.18573   0.00000  Uiso   1.00
O174   O     0.70740   0.12660   0.17789   0.00000  Uiso   1.00
C175   C     0.08753   0.50000   0.24998   0.00000  Uiso   1.00
C176   C     0.31198   0.52062   0.28573   0.00000  Uiso   1.00
C177   C     0.31178   0.47940   0.21428   0.00000  Uiso   1.00
C178   C     0.02156   0.52061   0.28572   0.00000  Uiso   1.00
C179   C     0.17907   0.53995   0.04760   0.00000  Uiso   1.00
C180   C     0.17915   0.46002   0.45248   0.00000  Uiso   1.00
C181   C     0.15373   0.53991   0.45230   0.00000  Uiso   1.00
C182   C     0.15369   0.46006   0.04762   0.00000  Uiso   1.00
C183   C     0.17886   0.54006   0.09352   0.00000  Uiso   1.00
C184   C     0.17899   0.45992   0.40655   0.00000  Uiso   1.00
C185   C     0.15409   0.54001   0.40638   0.00000  Uiso   1.00
C186   C     0.24580   0.50000   0.25002   0.00000  Uiso   1.00
C187   C     0.15399   0.45998   0.09354   0.00000  Uiso   1.00
C188   C     0.16648   0.50002   0.11673   0.00000  Uiso   1.00
C189   C     0.16660   0.49997   0.38327   0.00000  Uiso   1.00
C190   C     0.16637   0.49999   0.02428   0.00000  Uiso   1.00
C191   C     0.16640   0.49996   0.47572   0.00000  Uiso   1.00
C192   C     0.29037   0.50000   0.25001   0.00000  Uiso   1.00
C193   C     0.04297   0.50000   0.24999   0.00000  Uiso   1.00
C194   C     0.16660   0.50001   0.16497   0.00000  Uiso   1.00
C195   C     0.16667   0.49999   0.33503   0.00000  Uiso   1.00
C196   C     0.14131   0.35816   0.22217   0.00000  Uiso   1.00
C197   C     0.19202   0.64184   0.27783   0.00000  Uiso   1.00
C198   C     0.19202   0.35810   0.27783   0.00000  Uiso   1.00
C199   C     0.14131   0.64190   0.22217   0.00000  Uiso   1.00
C200   C     0.02136   0.47937   0.21427   0.00000  Uiso   1.00
Cu201  Cu    0.16667   0.54689   0.25000   0.00000  Uiso   1.00
Cu202  Cu    0.16667   0.45311   0.25000   0.00000  Uiso   1.00
H203   H     0.12099   0.37687   0.19987   0.00000  Uiso   1.00
H204   H     0.18909   0.42877   0.38930   0.00000  Uiso   1.00
H205   H     0.14404   0.57116   0.38898   0.00000  Uiso   1.00
H206   H     0.14394   0.42884   0.11088   0.00000  Uiso   1.00
H207   H     0.06987   0.47012   0.17645   0.00000  Uiso   1.00
H208   H     0.26348   0.52977   0.32358   0.00000  Uiso   1.00
H209   H     0.26311   0.47048   0.17635   0.00000  Uiso   1.00
H210   H     0.07025   0.52963   0.32361   0.00000  Uiso   1.00
H211   H     0.21235   0.62313   0.30012   0.00000  Uiso   1.00
H212   H     0.21233   0.37676   0.30013   0.00000  Uiso   1.00
H213   H     0.12099   0.62325   0.19988   0.00000  Uiso   1.00
H214   H     0.18966   0.57090   0.03037   0.00000  Uiso   1.00
H215   H     0.18973   0.42906   0.46978   0.00000  Uiso   1.00
H216   H     0.14308   0.57086   0.46945   0.00000  Uiso   1.00
H217   H     0.14307   0.42910   0.03039   0.00000  Uiso   1.00
H218   H     0.18893   0.57122   0.11083   0.00000  Uiso   1.00
N219   N     0.16667   0.61736   0.25000   0.00000  Uiso   1.00
N220   N     0.16667   0.38264   0.25000   0.00000  Uiso   1.00
O221   O     0.10655   0.53958   0.25000   0.00000  Uiso   1.00
O222   O     0.29260   0.54004   0.32212   0.00000  Uiso   1.00
O223   O     0.29219   0.46004   0.17788   0.00000  Uiso   1.00
O224   O     0.04115   0.54000   0.32211   0.00000  Uiso   1.00
O225   O     0.22679   0.46042   0.25001   0.00000  Uiso   1.00
O226   O     0.22679   0.53958   0.25001   0.00000  Uiso   1.00
O227   O     0.10655   0.46042   0.25000   0.00000  Uiso   1.00
O228   O     0.16666   0.53959   0.18573   0.00000  Uiso   1.00
O229   O     0.16667   0.46041   0.31427   0.00000  Uiso   1.00
O230   O     0.16667   0.53959   0.31427   0.00000  Uiso   1.00
O231   O     0.16666   0.46041   0.18573   0.00000  Uiso   1.00
O232   O     0.04074   0.45993   0.17789   0.00000  Uiso   1.00
C233   C     0.42086   0.50000   0.24998   0.00000  Uiso   1.00
C234   C     0.64531   0.52062   0.28573   0.00000  Uiso   1.00
C235   C     0.64511   0.47940   0.21428   0.00000  Uiso   1.00
C236   C     0.35489   0.52061   0.28572   0.00000  Uiso   1.00
C237   C     0.51240   0.53995   0.04760   0.00000  Uiso   1.00
C238   C     0.51248   0.46002   0.45248   0.00000  Uiso   1.00
C239   C     0.48707   0.53991   0.45230   0.00000  Uiso   1.00
C240   C     0.48702   0.46006   0.04762   0.00000  Uiso   1.00
C241   C     0.51219   0.54006   0.09352   0.00000  Uiso   1.00
C242   C     0.51232   0.45992   0.40655   0.00000  Uiso   1.00
C243   C     0.48742   0.54001   0.40638   0.00000  Uiso   1.00
C244   C     0.57914   0.50000   0.25002   0.00000  Uiso   1.00
C245   C     0.48733   0.45998   0.09354   0.00000  Uiso   1.00
C246   C     0.49982   0.50002   0.11673   0.00000  Uiso   1.00
C247   C     0.49993   0.49997   0.38327   0.00000  Uiso   1.00
C248   C     0.49970   0.49999   0.02428   0.00000  Uiso   1.00
C249   C     0.49973   0.49996   0.47572   0.00000  Uiso   1.00
C250   C     0.62371   0.50000   0.25001   0.00000  Uiso   1.00
C251   C     0.37630   0.50000   0.24999   0.00000  Uiso   1.00
C252   C     0.49993   0.50001   0.16497   0.00000  Uiso   1.00
C253   C     0.50001   0.49999   0.33503   0.00000  Uiso   1.00
C254   C     0.47465   0.35816   0.22217   0.00000  Uiso   1.00
C255   C     0.52535   0.64184   0.27783   0.00000  Uiso   1.00
C256   C     0.52535   0.35810   0.27783   0.00000  Uiso   1.00
C257   C     0.47465   0.64190   0.22217   0.00000  Uiso   1.00
C258   C     0.35469   0.47937   0.21427   0.00000  Uiso   1.00
Cu259  Cu    0.50000   0.54689   0.25000   0.00000  Uiso   1.00
Cu260  Cu    0.50000   0.45311   0.25000   0.00000  Uiso   1.00
H261   H     0.45433   0.37687   0.19987   0.00000  Uiso   1.00
H262   H     0.52243   0.42877   0.38930   0.00000  Uiso   1.00
H263   H     0.47738   0.57116   0.38898   0.00000  Uiso   1.00
H264   H     0.47727   0.42884   0.11088   0.00000  Uiso   1.00
H265   H     0.40321   0.47012   0.17645   0.00000  Uiso   1.00
H266   H     0.59682   0.52977   0.32358   0.00000  Uiso   1.00
H267   H     0.59644   0.47048   0.17635   0.00000  Uiso   1.00
H268   H     0.40358   0.52963   0.32361   0.00000  Uiso   1.00
H269   H     0.54568   0.62313   0.30012   0.00000  Uiso   1.00
H270   H     0.54566   0.37676   0.30013   0.00000  Uiso   1.00
H271   H     0.45433   0.62325   0.19988   0.00000  Uiso   1.00
H272   H     0.52300   0.57090   0.03037   0.00000  Uiso   1.00
H273   H     0.52307   0.42906   0.46978   0.00000  Uiso   1.00
H274   H     0.47642   0.57086   0.46945   0.00000  Uiso   1.00
H275   H     0.47640   0.42910   0.03039   0.00000  Uiso   1.00
H276   H     0.52227   0.57122   0.11083   0.00000  Uiso   1.00
N277   N     0.50000   0.61736   0.25000   0.00000  Uiso   1.00
N278   N     0.50000   0.38264   0.25000   0.00000  Uiso   1.00
O279   O     0.43988   0.53958   0.25000   0.00000  Uiso   1.00
O280   O     0.62593   0.54004   0.32212   0.00000  Uiso   1.00
O281   O     0.62552   0.46004   0.17788   0.00000  Uiso   1.00
O282   O     0.37448   0.54000   0.32211   0.00000  Uiso   1.00
O283   O     0.56012   0.46042   0.25001   0.00000  Uiso   1.00
O284   O     0.56012   0.53958   0.25001   0.00000  Uiso   1.00
O285   O     0.43988   0.46042   0.25000   0.00000  Uiso   1.00
O286   O     0.50000   0.53959   0.18573   0.00000  Uiso   1.00
O287   O     0.50000   0.46041   0.31427   0.00000  Uiso   1.00
O288   O     0.50000   0.53959   0.31427   0.00000  Uiso   1.00
O289   O     0.50000   0.46041   0.18573   0.00000  Uiso   1.00
O290   O     0.37407   0.45993   0.17789   0.00000  Uiso   1.00
C291   C     0.75420   0.50000   0.24998   0.00000  Uiso   1.00
C292   C     0.97865   0.52062   0.28573   0.00000  Uiso   1.00
C293   C     0.97845   0.47940   0.21428   0.00000  Uiso   1.00
C294   C     0.68823   0.52061   0.28572   0.00000  Uiso   1.00
C295   C     0.84574   0.53995   0.04760   0.00000  Uiso   1.00
C296   C     0.84581   0.46002   0.45248   0.00000  Uiso   1.00
C297   C     0.82040   0.53991   0.45230   0.00000  Uiso   1.00
C298   C     0.82035   0.46006   0.04762   0.00000  Uiso   1.00
C299   C     0.84553   0.54006   0.09352   0.00000  Uiso   1.00
C300   C     0.84566   0.45992   0.40655   0.00000  Uiso   1.00
C301   C     0.82076   0.54001   0.40638   0.00000  Uiso   1.00
C302   C     0.91247   0.50000   0.25002   0.00000  Uiso   1.00
C303   C     0.82066   0.45998   0.09354   0.00000  Uiso   1.00
C304   C     0.83315   0.50002   0.11673   0.00000  Uiso   1.00
C305   C     0.83326   0.49997   0.38327   0.00000  Uiso   1.00
C306   C     0.83304   0.49999   0.02428   0.00000  Uiso   1.00
C307   C     0.83307   0.49996   0.47572   0.00000  Uiso   1.00
C308   C     0.95704   0.50000   0.25001   0.00000  Uiso   1.00
C309   C     0.70963   0.50000   0.24999   0.00000  Uiso   1.00
C310   C     0.83327   0.50001   0.16497   0.00000  Uiso   1.00
C311   C     0.83334   0.49999   0.33503   0.00000  Uiso   1.00
C312   C     0.80798   0.35816   0.22217   0.00000  Uiso   1.00
C313   C     0.85869   0.64184   0.27783   0.00000  Uiso   1.00
C314   C     0.85868   0.35810   0.27783   0.00000  Uiso   1.00
C315   C     0.80798   0.64190   0.22217   0.00000  Uiso   1.00
C316   C     0.68803   0.47937   0.21427   0.00000  Uiso   1.00
Cu317  Cu    0.83333   0.54689   0.25000   0.00000  Uiso   1.00
Cu318  Cu    0.83333   0.45311   0.25000   0.00000  Uiso   1.00
H319   H     0.78766   0.37687   0.19987   0.00000  Uiso   1.00
H320   H     0.85576   0.42877   0.38930   0.00000  Uiso   1.00
H321   H     0.81071   0.57116   0.38898   0.00000  Uiso   1.00
H322   H     0.81060   0.42884   0.11088   0.00000  Uiso   1.00
H323   H     0.73654   0.47012   0.17645   0.00000  Uiso   1.00
H324   H     0.93015   0.52977   0.32358   0.00000  Uiso   1.00
H325   H     0.92977   0.47048   0.17635   0.00000  Uiso   1.00
H326   H     0.73692   0.52963   0.32361   0.00000  Uiso   1.00
H327   H     0.87901   0.62313   0.30012   0.00000  Uiso   1.00
H328   H     0.87900   0.37676   0.30013   0.00000  Uiso   1.00
H329   H     0.78766   0.62325   0.19988   0.00000  Uiso   1.00
H330   H     0.85633   0.57090   0.03037   0.00000  Uiso   1.00
H331   H     0.85640   0.42906   0.46978   0.00000  Uiso   1.00
H332   H     0.80975   0.57086   0.46945   0.00000  Uiso   1.00
H333   H     0.80973   0.42910   0.03039   0.00000  Uiso   1.00
H334   H     0.85560   0.57122   0.11083   0.00000  Uiso   1.00
N335   N     0.83333   0.61736   0.25000   0.00000  Uiso   1.00
N336   N     0.83333   0.38264   0.25000   0.00000  Uiso   1.00
O337   O     0.77321   0.53958   0.25000   0.00000  Uiso   1.00
O338   O     0.95927   0.54004   0.32212   0.00000  Uiso   1.00
O339   O     0.95885   0.46004   0.17788   0.00000  Uiso   1.00
O340   O     0.70782   0.54000   0.32211   0.00000  Uiso   1.00
O341   O     0.89345   0.46042   0.25001   0.00000  Uiso   1.00
O342   O     0.89345   0.53958   0.25001   0.00000  Uiso   1.00
O343   O     0.77321   0.46042   0.25000   0.00000  Uiso   1.00
O344   O     0.83333   0.53959   0.18573   0.00000  Uiso   1.00
O345   O     0.83334   0.46041   0.31427   0.00000  Uiso   1.00
O346   O     0.83334   0.53959   0.31427   0.00000  Uiso   1.00
O347   O     0.83333   0.46041   0.18573   0.00000  Uiso   1.00
O348   O     0.70740   0.45993   0.17789   0.00000  Uiso   1.00
C349   C     0.08753   0.83334   0.24998   0.00000  Uiso   1.00
C350   C     0.31198   0.85395   0.28573   0.00000  Uiso   1.00
C351   C     0.31178   0.81273   0.21428   0.00000  Uiso   1.00
C352   C     0.02156   0.85394   0.28572   0.00000  Uiso   1.00
C353   C     0.17907   0.87328   0.04760   0.00000  Uiso   1.00
C354   C     0.17915   0.79335   0.45248   0.00000  Uiso   1.00
C355   C     0.15373   0.87324   0.45230   0.00000  Uiso   1.00
C356   C     0.15369   0.79340   0.04762   0.00000  Uiso   1.00
C357   C     0.17886   0.87340   0.09352   0.00000  Uiso   1.00
C358   C     0.17899   0.79326   0.40655   0.00000  Uiso   1.00
C359   C     0.15409   0.87335   0.40638   0.00000  Uiso   1.00
C360   C     0.24580   0.83333   0.25002   0.00000  Uiso   1.00
C361   C     0.15399   0.79331   0.09354   0.00000  Uiso   1.00
C362   C     0.16648   0.83335   0.11673   0.00000  Uiso   1.00
C363   C     0.16660   0.83331   0.38327   0.00000  Uiso   1.00
C364   C     0.16637   0.83332   0.02428   0.00000  Uiso   1.00
C365   C     0.16640   0.83329   0.47572   0.00000  Uiso   1.00
C366   C     0.29037   0.83333   0.25001   0.00000  Uiso   1.00
C367   C     0.04297   0.83334   0.24999   0.00000  Uiso   1.00
C368   C     0.16660   0.83334   0.16497   0.00000  Uiso   1.00
C369   C     0.16667   0.83332   0.33503   0.00000  Uiso   1.00
C370   C     0.14131   0.69150   0.22217   0.00000  Uiso   1.00
C371   C     0.19202   0.97517   0.27783   0.00000  Uiso   1.00
C372   C     0.19202   0.69143   0.27783   0.00000  Uiso   1.00
C373   C     0.14131   0.97523   0.22217   0.00000  Uiso   1.00
C374   C     0.02136   0.81271   0.21427   0.00000  Uiso   1.00
Cu375  Cu    0.16667   0.88022   0.25000   0.00000  Uiso   1.00
Cu376  Cu    0.16667   0.78645   0.25000   0.00000  Uiso   1.00
H377   H     0.12099   0.71020   0.19987   0.00000  Uiso   1.00
H378   H     0.18909   0.76210   0.38930   0.00000  Uiso   1.00
H379   H     0.14404   0.90450   0.38898   0.00000  Uiso   1.00
H380   H     0.14394   0.76217   0.11088   0.00000  Uiso   1.00
H381   H     0.06987   0.80346   0.17645   0.00000  Uiso   1.00
H382   H     0.26348   0.86311   0.32358   0.00000  Uiso   1.00
H383   H     0.26311   0.80382   0.17635   0.00000  Uiso   1.00
H384   H     0.07025   0.86296   0.32361   0.00000  Uiso   1.00
H385   H     0.21235   0.95647   0.30012   0.00000  Uiso   1.00
H386   H     0.21233   0.71009   0.30013   0.00000  Uiso   1.00
H387   H     0.12099   0.95658   0.19988   0.00000  Uiso   1.00
H388   H     0.18966   0.90423   0.03037   0.00000  Uiso   1.00
H389   H     0.18973   0.76239   0.46978   0.00000  Uiso   1.00
H390   H     0.14308   0.90420   0.46945   0.00000  Uiso   1.00
H391   H     0.14307   0.76243   0.03039   0.00000  Uiso   1.00
H392   H     0.18893   0.90455   0.11083   0.00000  Uiso   1.00
N393   N     0.16667   0.95069   0.25000   0.00000  Uiso   1.00
N394   N     0.16667   0.71598   0.25000   0.00000  Uiso   1.00
O395   O     0.10655   0.87291   0.25000   0.00000  Uiso   1.00
O396   O     0.29260   0.87337   0.32212   0.00000  Uiso   1.00
O397   O     0.29219   0.79337   0.17788   0.00000  Uiso   1.00
O398   O     0.04115   0.87333   0.32211   0.00000  Uiso   1.00
O399   O     0.22679   0.79375   0.25001   0.00000  Uiso   1.00
O400   O     0.22679   0.87291   0.25001   0.00000  Uiso   1.00
O401   O     0.10655   0.79375   0.25000   0.00000  Uiso   1.00
O402   O     0.16666   0.87293   0.18573   0.00000  Uiso   1.00
O403   O     0.16667   0.79374   0.31427   0.00000  Uiso   1.00
O404   O     0.16667   0.87293   0.31427   0.00000  Uiso   1.00
O405   O     0.16666   0.79374   0.18573   0.00000  Uiso   1.00
O406   O     0.04074   0.79326   0.17789   0.00000  Uiso   1.00
C407   C     0.42086   0.83334   0.24998   0.00000  Uiso   1.00
C408   C     0.64531   0.85395   0.28573   0.00000  Uiso   1.00
C409   C     0.64511   0.81273   0.21428   0.00000  Uiso   1.00
C410   C     0.35489   0.85394   0.28572   0.00000  Uiso   1.00
C411   C     0.51240   0.87328   0.04760   0.00000  Uiso   1.00
C412   C     0.51248   0.79335   0.45248   0.00000  Uiso   1.00
C413   C     0.48707   0.87324   0.45230   0.00000  Uiso   1.00
C414   C     0.48702   0.79340   0.04762   0.00000  Uiso   1.00
C415   C     0.51219   0.87340   0.09352   0.00000  Uiso   1.00
C416   C     0.51232   0.79326   0.40655   0.00000  Uiso   1.00
C417   C     0.48742   0.87335   0.40638   0.00000  Uiso   1.00
C418   C     0.57914   0.83333   0.25002   0.00000  Uiso   1.00
C419   C     0.48733   0.79331   0.09354   0.00000  Uiso   1.00
C420   C     0.49982   0.83335   0.11673   0.00000  Uiso   1.00
C421   C     0.49993   0.83331   0.38327   0.00000  Uiso   1.00
C422   C     0.49970   0.83332   0.02428   0.00000  Uiso   1.00
C423   C     0.49973   0.83329   0.47572   0.00000  Uiso   1.00
C424   C     0.62371   0.83333   0.25001   0.00000  Uiso   1.00
C425   C     0.37630   0.83334   0.24999   0.00000  Uiso   1.00
C426   C     0.49993   0.83334   0.16497   0.00000  Uiso   1.00
C427   C     0.50001   0.83332   0.33503   0.00000  Uiso   1.00
C428   C     0.47465   0.69150   0.22217   0.00000  Uiso   1.00
C429   C     0.52535   0.97517   0.27783   0.00000  Uiso   1.00
C430   C     0.52535   0.69143   0.27783   0.00000  Uiso   1.00
C431   C     0.47465   0.97523   0.22217   0.00000  Uiso   1.00
C432   C     0.35469   0.81271   0.21427   0.00000  Uiso   1.00
Cu433  Cu    0.50000   0.88022   0.25000   0.00000  Uiso   1.00
Cu434  Cu    0.50000   0.78645   0.25000   0.00000  Uiso   1.00
H435   H     0.45433   0.71020   0.19987   0.00000  Uiso   1.00
H436   H     0.52243   0.76210   0.38930   0.00000  Uiso   1.00
H437   H     0.47738   0.90450   0.38898   0.00000  Uiso   1.00
H438   H     0.47727   0.76217   0.11088   0.00000  Uiso   1.00
H439   H     0.40321   0.80346   0.17645   0.00000  Uiso   1.00
H440   H     0.59682   0.86311   0.32358   0.00000  Uiso   1.00
H441   H     0.59644   0.80382   0.17635   0.00000  Uiso   1.00
H442   H     0.40358   0.86296   0.32361   0.00000  Uiso   1.00
H443   H     0.54568   0.95647   0.30012   0.00000  Uiso   1.00
H444   H     0.54566   0.71009   0.30013   0.00000  Uiso   1.00
H445   H     0.45433   0.95658   0.19988   0.00000  Uiso   1.00
H446   H     0.52300   0.90423   0.03037   0.00000  Uiso   1.00
H447   H     0.52307   0.76239   0.46978   0.00000  Uiso   1.00
H448   H     0.47642   0.90420   0.46945   0.00000  Uiso   1.00
H449   H     0.47640   0.76243   0.03039   0.00000  Uiso   1.00
H450   H     0.52227   0.90455   0.11083   0.00000  Uiso   1.00
N451   N     0.50000   0.95069   0.25000   0.00000  Uiso   1.00
N452   N     0.50000   0.71598   0.25000   0.00000  Uiso   1.00
O453   O     0.43988   0.87291   0.25000   0.00000  Uiso   1.00
O454   O     0.62593   0.87337   0.32212   0.00000  Uiso   1.00
O455   O     0.62552   0.79337   0.17788   0.00000  Uiso   1.00
O456   O     0.37448   0.87333   0.32211   0.00000  Uiso   1.00
O457   O     0.56012   0.79375   0.25001   0.00000  Uiso   1.00
O458   O     0.56012   0.87291   0.25001   0.00000  Uiso   1.00
O459   O     0.43988   0.79375   0.25000   0.00000  Uiso   1.00
O460   O     0.50000   0.87293   0.18573   0.00000  Uiso   1.00
O461   O     0.50000   0.79374   0.31427   0.00000  Uiso   1.00
O462   O     0.50000   0.87293   0.31427   0.00000  Uiso   1.00
O463   O     0.50000   0.79374   0.18573   0.00000  Uiso   1.00
O464   O     0.37407   0.79326   0.17789   0.00000  Uiso   1.00
C465   C     0.75420   0.83334   0.24998   0.00000  Uiso   1.00
C466   C     0.97865   0.85395   0.28573   0.00000  Uiso   1.00
C467   C     0.97845   0.81273   0.21428   0.00000  Uiso   1.00
C468   C     0.68823   0.85394   0.28572   0.00000  Uiso   1.00
C469   C     0.84574   0.87328   0.04760   0.00000  Uiso   1.00
C470   C     0.84581   0.79335   0.45248   0.00000  Uiso   1.00
C471   C     0.82040   0.87324   0.45230   0.00000  Uiso   1.00
C472   C     0.82035   0.79340   0.04762   0.00000  Uiso   1.00
C473   C     0.84553   0.87340   0.09352   0.00000  Uiso   1.00
C474   C     0.84566   0.79326   0.40655   0.00000  Uiso   1.00
C475   C     0.82076   0.87335   0.40638   0.00000  Uiso   1.00
C476   C     0.91247   0.83333   0.25002   0.00000  Uiso   1.00
C477   C     0.82066   0.79331   0.09354   0.00000  Uiso   1.00
C478   C     0.83315   0.83335   0.11673   0.00000  Uiso   1.00
C479   C     0.83326   0.83331   0.38327   0.00000  Uiso   1.00
C480   C     0.83304   0.83332   0.02428   0.00000  Uiso   1.00
C481   C     0.83307   0.83329   0.47572   0.00000  Uiso   1.00
C482   C     0.95704   0.83333   0.25001   0.00000  Uiso   1.00
C483   C     0.70963   0.83334   0.24999   0.00000  Uiso   1.00
C484   C     0.83327   0.83334   0.16497   0.00000  Uiso   1.00
C485   C     0.83334   0.83332   0.33503   0.00000  Uiso   1.00
C486   C     0.80798   0.69150   0.22217   0.00000  Uiso   1.00
C487   C     0.85869   0.97517   0.27783   0.00000  Uiso   1.00
C488   C     0.85868   0.69143   0.27783   0.00000  Uiso   1.00
C489   C     0.80798   0.97523   0.22217   0.00000  Uiso   1.00
C490   C     0.68803   0.81271   0.21427   0.00000  Uiso   1.00
Cu491  Cu    0.83333   0.88022   0.25000   0.00000  Uiso   1.00
Cu492  Cu    0.83333   0.78645   0.25000   0.00000  Uiso   1.00
H493   H     0.78766   0.71020   0.19987   0.00000  Uiso   1.00
H494   H     0.85576   0.76210   0.38930   0.00000  Uiso   1.00
H495   H     0.81071   0.90450   0.38898   0.00000  Uiso   1.00
H496   H     0.81060   0.76217   0.11088   0.00000  Uiso   1.00
H497   H     0.73654   0.80346   0.17645   0.00000  Uiso   1.00
H498   H     0.93015   0.86311   0.32358   0.00000  Uiso   1.00
H499   H     0.92977   0.80382   0.17635   0.00000  Uiso   1.00
H500   H     0.73692   0.86296   0.32361   0.00000  Uiso   1.00
H501   H     0.87901   0.95647   0.30012   0.00000  Uiso   1.00
H502   H     0.87900   0.71009   0.30013   0.00000  Uiso   1.00
H503   H     0.78766   0.95658   0.19988   0.00000  Uiso   1.00
H504   H     0.85633   0.90423   0.03037   0.00000  Uiso   1.00
H505   H     0.85640   0.76239   0.46978   0.00000  Uiso   1.00
H506   H     0.80975   0.90420   0.46945   0.00000  Uiso   1.00
H507   H     0.80973   0.76243   0.03039   0.00000  Uiso   1.00
H508   H     0.85560   0.90455   0.11083   0.00000  Uiso   1.00
N509   N     0.83333   0.95069   0.25000   0.00000  Uiso   1.00
N510   N     0.83333   0.71598   0.25000   0.00000  Uiso   1.00
O511   O     0.77321   0.87291   0.25000   0.00000  Uiso   1.00
O512   O     0.95927   0.87337   0.32212   0.00000  Uiso   1.00
O513   O     0.95885   0.79337   0.17788   0.00000  Uiso   1.00
O514   O     0.70782   0.87333   0.32211   0.00000  Uiso   1.00
O515   O     0.89345   0.79375   0.25001   0.00000  Uiso   1.00
O516   O     0.89345   0.87291   0.25001   0.00000  Uiso   1.00
O517   O     0.77321   0.79375   0.25000   0.00000  Uiso   1.00
O518   O     0.83333   0.87293   0.18573   0.00000  Uiso   1.00
O519   O     0.83334   0.79374   0.31427   0.00000  Uiso   1.00
O520   O     0.83334   0.87293   0.31427   0.00000  Uiso   1.00
O521   O     0.83333   0.79374   0.18573   0.00000  Uiso   1.00
O522   O     0.70740   0.79326   0.17789   0.00000  Uiso   1.00
C523   C     0.08753   0.16667   0.74998   0.00000  Uiso   1.00
C524   C     0.31198   0.18728   0.78573   0.00000  Uiso   1.00
C525   C     0.31178   0.14607   0.71428   0.00000  Uiso   1.00
C526   C     0.02156   0.18728   0.78572   0.00000  Uiso   1.00
C527   C     0.17907   0.20661   0.54760   0.00000  Uiso   1.00
C528   C     0.17915   0.12668   0.95248   0.00000  Uiso   1.00
C529   C     0.15373   0.20657   0.95230   0.00000  Uiso   1.00
C530   C     0.15369   0.12673   0.54762   0.00000  Uiso   1.00
C531   C     0.17886   0.20673   0.59352   0.00000  Uiso   1.00
C532   C     0.17899   0.12659   0.90655   0.00000  Uiso   1.00
C533   C     0.15409   0.20668   0.90638   0.00000  Uiso   1.00
C534   C     0.24580   0.16666   0.75002   0.00000  Uiso   1.00
C535   C     0.15399   0.12665   0.59354   0.00000  Uiso   1.00
C536   C     0.16648   0.16669   0.61673   0.00000  Uiso   1.00
C537   C     0.16660   0.16664   0.88327   0.00000  Uiso   1.00
C538   C     0.16637   0.16666   0.52428   0.00000  Uiso   1.00
C539   C     0.16640   0.16663   0.97572   0.00000  Uiso   1.00
C540   C     0.29037   0.16666   0.75001   0.00000  Uiso   1.00
C541   C     0.04297   0.16667   0.74999   0.00000  Uiso   1.00
C542   C     0.16660   0.16668   0.66497   0.00000  Uiso   1.00
C543   C     0.16667   0.16666   0.83503   0.00000  Uiso   1.00
C544   C     0.14131   0.02483   0.72217   0.00000  Uiso   1.00
C545   C     0.19202   0.30850   0.77783   0.00000  Uiso   1.00
C546   C     0.19202   0.02477   0.77783   0.00000  Uiso   1.00
C547   C     0.14131   0.30857   0.72217   0.00000  Uiso   1.00
C548   C     0.02136   0.14604   0.71427   0.00000  Uiso   1.00
Cu549  Cu    0.16667   0.21355   0.75000   0.00000  Uiso   1.00
Cu550  Cu    0.16667   0.11978   0.75000   0.00000  Uiso   1.00
H551   H     0.12099   0.04354   0.69987   0.00000  Uiso   1.00
H552   H     0.18909   0.09544   0.88930   0.00000  Uiso   1.00
H553   H     0.14404   0.23783   0.88898   0.00000  Uiso   1.00
H554   H     0.14394   0.09551   0.61088   0.00000  Uiso   1.00
H555   H     0.06987   0.13679   0.67645   0.00000  Uiso   1.00
H556   H     0.26348   0.19644   0.82358   0.00000  Uiso   1.00
H557   H     0.26311   0.13715   0.67635   0.00000  Uiso   1.00
H558   H     0.07025   0.19629   0.82361   0.00000  Uiso   1.00
H559   H     0.21235   0.28980   0.80012   0.00000  Uiso   1.00
H560   H     0.21233   0.04342   0.80013   0.00000  Uiso   1.00
H561   H     0.12099   0.28991   0.69988   0.00000  Uiso   1.00
H562   H     0.18966   0.23756   0.53037   0.00000  Uiso   1.00
H563   H     0.18973   0.09572   0.96978   0.00000  Uiso   1.00
H564   H     0.14308   0.23753   0.96945   0.00000  Uiso   1.00
H565   H     0.14307   0.09577   0.53039   0.00000  Uiso   1.00
H566   H     0.18893   0.23789   0.61083   0.00000  Uiso   1.00
N567   N     0.16667   0.28402   0.75000   0.00000  Uiso   1.00
N568   N     0.16667   0.04931   0.75000   0.00000  Uiso   1.00
O569   O     0.10655   0.20625   0.75000   0.00000  Uiso   1.00
O570   O     0.29260   0.20670   0.82212   0.00000  Uiso   1.00
O571   O     0.29219   0.12670   0.67788   0.00000  Uiso   1.00
O572   O     0.04115   0.20667   0.82211   0.00000  Uiso   1.00
O573   O     0.22679   0.12709   0.75001   0.00000  Uiso   1.00
O574   O     0.22679   0.20625   0.75001   0.00000  Uiso   1.00
O575   O     0.10655   0.12709   0.75000   0.00000  Uiso   1.00
O576   O     0.16666   0.20626   0.68573   0.00000  Uiso   1.00
O577   O     0.16667   0.12707   0.81427   0.00000  Uiso   1.00
O578   O     0.16667   0.20626   0.81427   0.00000  Uiso   1.00
O579   O     0.16666   0.12707   0.68573   0.00000  Uiso   1.00
O580   O     0.04074   0.12660   0.67789   0.00000  Uiso   1.00
C581   C     0.42086   0.16667   0.74998   0.00000  Uiso   1.00
C582   C     0.64531   0.18728   0.78573   0.00000  Uiso   1.00
C583   C     0.64511   0.14607   0.71428   0.00000  Uiso   1.00
C584   C     0.35489   0.18728   0.78572   0.00000  Uiso   1.00
C585   C     0.51240   0.20661   0.54760   0.00000  Uiso   1.00
C586   C     0.51248   0.12668   0.95248   0.00000  Uiso   1.00
C587   C     0.48707   0.20657   0.95230   0.00000  Uiso   1.00
C588   C     0.48702   0.12673   0.54762   0.00000  Uiso   1.00
C589   C     0.51219   0.20673   0.59352   0.00000  Uiso   1.00
C590   C     0.51232   0.12659   0.90655   0.00000  Uiso   1.00
C591   C     0.48742   0.20668   0.90638   0.00000  Uiso   1.00
C592   C     0.57914   0.16666   0.75002   0.00000  Uiso   1.00
C593   C     0.48733   0.12665   0.59354   0.00000  Uiso   1.00
C594   C     0.49982   0.16669   0.61673   0.00000  Uiso   1.00
C595   C     0.49993   0.16664   0.88327   0.00000  Uiso   1.00
C596   C     0.49970   0.16666   0.52428   0.00000  Uiso   1.00
C597   C     0.49973   0.16663   0.97572   0.00000  Uiso   1.00
C598   C     0.62371   0.16666   0.75001   0.00000  Uiso   1.00
C599   C     0.37630   0.16667   0.74999   0.00000  Uiso   1.00
C600   C     0.49993   0.16668   0.66497   0.00000  Uiso   1.00
C601   C     0.50001   0.16666   0.83503   0.00000  Uiso   1.00
C602   C     0.47465   0.02483   0.72217   0.00000  Uiso   1.00
C603   C     0.52535   0.30850   0.77783   0.00000  Uiso   1.00
C604   C     0.52535   0.02477   0.77783   0.00000  Uiso   1.00
C605   C     0.47465   0.30857   0.72217   0.00000  Uiso   1.00
C606   C     0.35469   0.14604   0.71427   0.00000  Uiso   1.00
Cu607  Cu    0.50000   0.21355   0.75000   0.00000  Uiso   1.00
Cu608  Cu    0.50000   0.11978   0.75000   0.00000  Uiso   1.00
H609   H     0.45433   0.04354   0.69987   0.00000  Uiso   1.00
H610   H     0.52243   0.09544   0.88930   0.00000  Uiso   1.00
H611   H     0.47738   0.23783   0.88898   0.00000  Uiso   1.00
H612   H     0.47727   0.09551   0.61088   0.00000  Uiso   1.00
H613   H     0.40321   0.13679   0.67645   0.00000  Uiso   1.00
H614   H     0.59682   0.19644   0.82358   0.00000  Uiso   1.00
H615   H     0.59644   0.13715   0.67635   0.00000  Uiso   1.00
H616   H     0.40358   0.19629   0.82361   0.00000  Uiso   1.00
H617   H     0.54568   0.28980   0.80012   0.00000  Uiso   1.00
H618   H     0.54566   0.04342   0.80013   0.00000  Uiso   1.00
H619   H     0.45433   0.28991   0.69988   0.00000  Uiso   1.00
H620   H     0.52300   0.23756   0.53037   0.00000  Uiso   1.00
H621   H     0.52307   0.09572   0.96978   0.00000  Uiso   1.00
H622   H     0.47642   0.23753   0.96945   0.00000  Uiso   1.00
H623   H     0.47640   0.09577   0.53039   0.00000  Uiso   1.00
H624   H     0.52227   0.23789   0.61083   0.00000  Uiso   1.00
N625   N     0.50000   0.28402   0.75000   0.00000  Uiso   1.00
N626   N     0.50000   0.04931   0.75000   0.00000  Uiso   1.00
O627   O     0.43988   0.20625   0.75000   0.00000  Uiso   1.00
O628   O     0.62593   0.20670   0.82212   0.00000  Uiso   1.00
O629   O     0.62552   0.12670   0.67788   0.00000  Uiso   1.00
O630   O     0.37448   0.20667   0.82211   0.00000  Uiso   1.00
O631   O     0.56012   0.12709   0.75001   0.00000  Uiso   1.00
O632   O     0.56012   0.20625   0.75001   0.00000  Uiso   1.00
O633   O     0.43988   0.12709   0.75000   0.00000  Uiso   1.00
O634   O     0.50000   0.20626   0.68573   0.00000  Uiso   1.00
O635   O     0.50000   0.12707   0.81427   0.00000  Uiso   1.00
O636   O     0.50000   0.20626   0.81427   0.00000  Uiso   1.00
O637   O     0.50000   0.12707   0.68573   0.00000  Uiso   1.00
O638   O     0.37407   0.12660   0.67789   0.00000  Uiso   1.00
C639   C     0.75420   0.16667   0.74998   0.00000  Uiso   1.00
C640   C     0.97865   0.18728   0.78573   0.00000  Uiso   1.00
C641   C     0.97845   0.14607   0.71428   0.00000  Uiso   1.00
C642   C     0.68823   0.18728   0.78572   0.00000  Uiso   1.00
C643   C     0.84574   0.20661   0.54760   0.00000  Uiso   1.00
C644   C     0.84581   0.12668   0.95248   0.00000  Uiso   1.00
C645   C     0.82040   0.20657   0.95230   0.00000  Uiso   1.00
C646   C     0.82035   0.12673   0.54762   0.00000  Uiso   1.00
C647   C     0.84553   0.20673   0.59352   0.00000  Uiso   1.00
C648   C     0.84566   0.12659   0.90655   0.00000  Uiso   1.00
C649   C     0.82076   0.20668   0.90638   0.00000  Uiso   1.00
C650   C     0.91247   0.16666   0.75002   0.00000  Uiso   1.00
C651   C     0.82066   0.12665   0.59354   0.00000  Uiso   1.00
C652   C     0.83315   0.16669   0.61673   0.00000  Uiso   1.00
C653   C     0.83326   0.16664   0.88327   0.00000  Uiso   1.00
C654   C     0.83304   0.16666   0.52428   0.00000  Uiso   1.00
C655   C     0.83307   0.16663   0.97572   0.00000  Uiso   1.00
C656   C     0.95704   0.16666   0.75001   0.00000  Uiso   1.00
C657   C     0.70963   0.16667   0.74999   0.00000  Uiso   1.00
C658   C     0.83327   0.16668   0.66497   0.00000  Uiso   1.00
C659   C     0.83334   0.16666   0.83503   0.00000  Uiso   1.00
C660   C     0.80798   0.02483   0.72217   0.00000  Uiso   1.00
C661   C     0.85869   0.30850   0.77783   0.00000  Uiso   1.00
C662   C     0.85868   0.02477   0.77783   0.00000  Uiso   1.00
C663   C     0.80798   0.30857   0.72217   0.00000  Uiso   1.00
C664   C     0.68803   0.14604   0.71427   0.00000  Uiso   1.00
Cu665  Cu    0.83333   0.21355   0.75000   0.00000  Uiso   1.00
Cu666  Cu    0.83333   0.11978   0.75000   0.00000  Uiso   1.00
H667   H     0.78766   0.04354   0.69987   0.00000  Uiso   1.00
H668   H     0.85576   0.09544   0.88930   0.00000  Uiso   1.00
H669   H     0.81071   0.23783   0.88898   0.00000  Uiso   1.00
H670   H     0.81060   0.09551   0.61088   0.00000  Uiso   1.00
H671   H     0.73654   0.13679   0.67645   0.00000  Uiso   1.00
H672   H     0.93015   0.19644   0.82358   0.00000  Uiso   1.00
H673   H     0.92977   0.13715   0.67635   0.00000  Uiso   1.00
H674   H     0.73692   0.19629   0.82361   0.00000  Uiso   1.00
H675   H     0.87901   0.28980   0.80012   0.00000  Uiso   1.00
H676   H     0.87900   0.04342   0.80013   0.00000  Uiso   1.00
H677   H     0.78766   0.28991   0.69988   0.00000  Uiso   1.00
H678   H     0.85633   0.23756   0.53037   0.00000  Uiso   1.00
H679   H     0.85640   0.09572   0.96978   0.00000  Uiso   1.00
H680   H     0.80975   0.23753   0.96945   0.00000  Uiso   1.00
H681   H     0.80973   0.09577   0.53039   0.00000  Uiso   1.00
H682   H     0.85560   0.23789   0.61083   0.00000  Uiso   1.00
N683   N     0.83333   0.28402   0.75000   0.00000  Uiso   1.00
N684   N     0.83333   0.04931   0.75000   0.00000  Uiso   1.00
O685   O     0.77321   0.20625   0.75000   0.00000  Uiso   1.00
O686   O     0.95927   0.20670   0.82212   0.00000  Uiso   1.00
O687   O     0.95885   0.12670   0.67788   0.00000  Uiso   1.00
O688   O     0.70782   0.20667   0.82211   0.00000  Uiso   1.00
O689   O     0.89345   0.12709   0.75001   0.00000  Uiso   1.00
O690   O     0.89345   0.20625   0.75001   0.00000  Uiso   1.00
O691   O     0.77321   0.12709   0.75000   0.00000  Uiso   1.00
O692   O     0.83333   0.20626   0.68573   0.00000  Uiso   1.00
O693   O     0.83334   0.12707   0.81427   0.00000  Uiso   1.00
O694   O     0.83334   0.20626   0.81427   0.00000  Uiso   1.00
O695   O     0.83333   0.12707   0.68573   0.00000  Uiso   1.00
O696   O     0.70740   0.12660   0.67789   0.00000  Uiso   1.00
C697   C     0.08753   0.50000   0.74998   0.00000  Uiso   1.00
C698   C     0.31198   0.52062   0.78573   0.00000  Uiso   1.00
C699   C     0.31178   0.47940   0.71428   0.00000  Uiso   1.00
C700   C     0.02156   0.52061   0.78572   0.00000  Uiso   1.00
C701   C     0.17907   0.53995   0.54760   0.00000  Uiso   1.00
C702   C     0.17915   0.46002   0.95248   0.00000  Uiso   1.00
C703   C     0.15373   0.53991   0.95230   0.00000  Uiso   1.00
C704   C     0.15369   0.46006   0.54762   0.00000  Uiso   1.00
C705   C     0.17886   0.54006   0.59352   0.00000  Uiso   1.00
C706   C     0.17899   0.45992   0.90655   0.00000  Uiso   1.00
C707   C     0.15409   0.54001   0.90638   0.00000  Uiso   1.00
C708   C     0.24580   0.50000   0.75002   0.00000  Uiso   1.00
C709   C     0.15399   0.45998   0.59354   0.00000  Uiso   1.00
C710   C     0.16648   0.50002   0.61673   0.00000  Uiso   1.00
C711   C     0.16660   0.49997   0.88327   0.00000  Uiso   1.00
C712   C     0.16637   0.49999   0.52428   0.00000  Uiso   1.00
C713   C     0.16640   0.49996   0.97572   0.00000  Uiso   1.00
C714   C     0.29037   0.50000   0.75001   0.00000  Uiso   1.00
C715   C     0.04297   0.50000   0.74999   0.00000  Uiso   1.00
C716   C     0.16660   0.50001   0.66497   0.00000  Uiso   1.00
C717   C     0.16667   0.49999   0.83503   0.00000  Uiso   1.00
C718   C     0.14131   0.35816   0.72217   0.00000  Uiso   1.00
C719   C     0.19202   0.64184   0.77783   0.00000  Uiso   1.00
C720   C     0.19202   0.35810   0.77783   0.00000  Uiso   1.00
C721   C     0.14131   0.64190   0.72217   0.00000  Uiso   1.00
C722   C     0.02136   0.47937   0.71427   0.00000  Uiso   1.00
Cu723  Cu    0.16667   0.54689   0.75000   0.00000  Uiso   1.00
Cu724  Cu    0.16667   0.45311   0.75000   0.00000  Uiso   1.00
H725   H     0.12099   0.37687   0.69987   0.00000  Uiso   1.00
H726   H     0.18909   0.42877   0.88930   0.00000  Uiso   1.00
H727   H     0.14404   0.57116   0.88898   0.00000  Uiso   1.00
H728   H     0.14394   0.42884   0.61088   0.00000  Uiso   1.00
H729   H     0.06987   0.47012   0.67645   0.00000  Uiso   1.00
H730   H     0.26348   0.52977   0.82358   0.00000  Uiso   1.00
H731   H     0.26311   0.47048   0.67635   0.00000  Uiso   1.00
H732   H     0.07025   0.52963   0.82361   0.00000  Uiso   1.00
H733   H     0.21235   0.62313   0.80012   0.00000  Uiso   1.00
H734   H     0.21233   0.37676   0.80013   0.00000  Uiso   1.00
H735   H     0.12099   0.62325   0.69988   0.00000  Uiso   1.00
H736   H     0.18966   0.57090   0.53037   0.00000  Uiso   1.00
H737   H     0.18973   0.42906   0.96978   0.00000  Uiso   1.00
H738   H     0.14308   0.57086   0.96945   0.00000  Uiso   1.00
H739   H     0.14307   0.42910   0.53039   0.00000  Uiso   1.00
H740   H     0.18893   0.57122   0.61083   0.00000  Uiso   1.00
N741   N     0.16667   0.61736   0.75000   0.00000  Uiso   1.00
N742   N     0.16667   0.38264   0.75000   0.00000  Uiso   1.00
O743   O     0.10655   0.53958   0.75000   0.00000  Uiso   1.00
O744   O     0.29260   0.54004   0.82212   0.00000  Uiso   1.00
O745   O     0.29219   0.46004   0.67788   0.00000  Uiso   1.00
O746   O     0.04115   0.54000   0.82211   0.00000  Uiso   1.00
O747   O     0.22679   0.46042   0.75001   0.00000  Uiso   1.00
O748   O     0.22679   0.53958   0.75001   0.00000  Uiso   1.00
O749   O     0.10655   0.46042   0.75000   0.00000  Uiso   1.00
O750   O     0.16666   0.53959   0.68573   0.00000  Uiso   1.00
O751   O     0.16667   0.46041   0.81427   0.00000  Uiso   1.00
O752   O     0.16667   0.53959   0.81427   0.00000  Uiso   1.00
O753   O     0.16666   0.46041   0.68573   0.00000  Uiso   1.00
O754   O     0.04074   0.45993   0.67789   0.00000  Uiso   1.00
C755   C     0.42086   0.50000   0.74998   0.00000  Uiso   1.00
C756   C     0.64531   0.52062   0.78573   0.00000  Uiso   1.00
C757   C     0.64511   0.47940   0.71428   0.00000  Uiso   1.00
C758   C     0.35489   0.52061   0.78572   0.00000  Uiso   1.00
C759   C     0.51240   0.53995   0.54760   0.00000  Uiso   1.00
C760   C     0.51248   0.46002   0.95248   0.00000  Uiso   1.00
C761   C     0.48707   0.53991   0.95230   0.00000  Uiso   1.00
C762   C     0.48702   0.46006   0.54762   0.00000  Uiso   1.00
C763   C     0.51219   0.54006   0.59352   0.00000  Uiso   1.00
C764   C     0.51232   0.45992   0.90655   0.00000  Uiso   1.00
C765   C     0.48742   0.54001   0.90638   0.00000  Uiso   1.00
C766   C     0.57914   0.50000   0.75002   0.00000  Uiso   1.00
C767   C     0.48733   0.45998   0.59354   0.00000  Uiso   1.00
C768   C     0.49982   0.50002   0.61673   0.00000  Uiso   1.00
C769   C     0.49993   0.49997   0.88327   0.00000  Uiso   1.00
C770   C     0.49970   0.49999   0.52428   0.00000  Uiso   1.00
C771   C     0.49973   0.49996   0.97572   0.00000  Uiso   1.00
C772   C     0.62371   0.50000   0.75001   0.00000  Uiso   1.00
C773   C     0.37630   0.50000   0.74999   0.00000  Uiso   1.00
C774   C     0.49993   0.50001   0.66497   0.00000  Uiso   1.00
C775   C     0.50001   0.49999   0.83503   0.00000  Uiso   1.00
C776   C     0.47465   0.35816   0.72217   0.00000  Uiso   1.00
C777   C     0.52535   0.64184   0.77783   0.00000  Uiso   1.00
C778   C     0.52535   0.35810   0.77783   0.00000  Uiso   1.00
C779   C     0.47465   0.64190   0.72217   0.00000  Uiso   1.00
C780   C     0.35469   0.47937   0.71427   0.00000  Uiso   1.00
Cu781  Cu    0.50000   0.54689   0.75000   0.00000  Uiso   1.00
Cu782  Cu    0.50000   0.45311   0.75000   0.00000  Uiso   1.00
H783   H     0.45433   0.37687   0.69987   0.00000  Uiso   1.00
H784   H     0.52243   0.42877   0.88930   0.00000  Uiso   1.00
H785   H     0.47738   0.57116   0.88898   0.00000  Uiso   1.00
H786   H     0.47727   0.42884   0.61088   0.00000  Uiso   1.00
H787   H     0.40321   0.47012   0.67645   0.00000  Uiso   1.00
H788   H     0.59682   0.52977   0.82358   0.00000  Uiso   1.00
H789   H     0.59644   0.47048   0.67635   0.00000  Uiso   1.00
H790   H     0.40358   0.52963   0.82361   0.00000  Uiso   1.00
H791   H     0.54568   0.62313   0.80012   0.00000  Uiso   1.00
H792   H     0.54566   0.37676   0.80013   0.00000  Uiso   1.00
H793   H     0.45433   0.62325   0.69988   0.00000  Uiso   1.00
H794   H     0.52300   0.57090   0.53037   0.00000  Uiso   1.00
H795   H     0.52307   0.42906   0.96978   0.00000  Uiso   1.00
H796   H     0.47642   0.57086   0.96945   0.00000  Uiso   1.00
H797   H     0.47640   0.42910   0.53039   0.00000  Uiso   1.00
H798   H     0.52227   0.57122   0.61083   0.00000  Uiso   1.00
N799   N     0.50000   0.61736   0.75000   0.00000  Uiso   1.00
N800   N     0.50000   0.38264   0.75000   0.00000  Uiso   1.00
O801   O     0.43988   0.53958   0.75000   0.00000  Uiso   1.00
O802   O     0.62593   0.54004   0.82212   0.00000  Uiso   1.00
O803   O     0.62552   0.46004   0.67788   0.00000  Uiso   1.00
O804   O     0.37448   0.54000   0.82211   0.00000  Uiso   1.00
O805   O     0.56012   0.46042   0.75001   0.00000  Uiso   1.00
O806   O     0.56012   0.53958   0.75001   0.00000  Uiso   1.00
O807   O     0.43988   0.46042   0.75000   0.00000  Uiso   1.00
O808   O     0.50000   0.53959   0.68573   0.00000  Uiso   1.00
O809   O     0.50000   0.46041   0.81427   0.00000  Uiso   1.00
O810   O     0.50000   0.53959   0.81427   0.00000  Uiso   1.00
O811   O     0.50000   0.46041   0.68573   0.00000  Uiso   1.00
O812   O     0.37407   0.45993   0.67789   0.00000  Uiso   1.00
C813   C     0.75420   0.50000   0.74998   0.00000  Uiso   1.00
C814   C     0.97865   0.52062   0.78573   0.00000  Uiso   1.00
C815   C     0.97845   0.47940   0.71428   0.00000  Uiso   1.00
C816   C     0.68823   0.52061   0.78572   0.00000  Uiso   1.00
C817   C     0.84574   0.53995   0.54760   0.00000  Uiso   1.00
C818   C     0.84581   0.46002   0.95248   0.00000  Uiso   1.00
C819   C     0.82040   0.53991   0.95230   0.00000  Uiso   1.00
C820   C     0.82035   0.46006   0.54762   0.00000  Uiso   1.00
C821   C     0.84553   0.54006   0.59352   0.00000  Uiso   1.00
C822   C     0.84566   0.45992   0.90655   0.00000  Uiso   1.00
C823   C     0.82076   0.54001   0.90638   0.00000  Uiso   1.00
C824   C     0.91247   0.50000   0.75002   0.00000  Uiso   1.00
C825   C     0.82066   0.45998   0.59354   0.00000  Uiso   1.00
C826   C     0.83315   0.50002   0.61673   0.00000  Uiso   1.00
C827   C     0.83326   0.49997   0.88327   0.00000  Uiso   1.00
C828   C     0.83304   0.49999   0.52428   0.00000  Uiso   1.00
C829   C     0.83307   0.49996   0.97572   0.00000  Uiso   1.00
C830   C     0.95704   0.50000   0.75001   0.00000  Uiso   1.00
C831   C     0.70963   0.50000   0.74999   0.00000  Uiso   1.00
C832   C     0.83327   0.50001   0.66497   0.00000  Uiso   1.00
C833   C     0.83334   0.49999   0.83503   0.00000  Uiso   1.00
C834   C     0.80798   0.35816   0.72217   0.00000  Uiso   1.00
C835   C     0.85869   0.64184   0.77783   0.00000  Uiso   1.00
C836   C     0.85868   0.35810   0.77783   0.00000  Uiso   1.00
C837   C     0.80798   0.64190   0.72217   0.00000  Uiso   1.00
C838   C     0.68803   0.47937   0.71427   0.00000  Uiso   1.00
Cu839  Cu    0.83333   0.54689   0.75000   0.00000  Uiso   1.00
Cu840  Cu    0.83333   0.45311   0.75000   0.00000  Uiso   1.00
H841   H     0.78766   0.37687   0.69987   0.00000  Uiso   1.00
H842   H     0.85576   0.42877   0.88930   0.00000  Uiso   1.00
H843   H     0.81071   0.57116   0.88898   0.00000  Uiso   1.00
H844   H     0.81060   0.42884   0.61088   0.00000  Uiso   1.00
H845   H     0.73654   0.47012   0.67645   0.00000  Uiso   1.00
H846   H     0.93015   0.52977   0.82358   0.00000  Uiso   1.00
H847   H     0.92977   0.47048   0.67635   0.00000  Uiso   1.00
H848   H     0.73692   0.52963   0.82361   0.00000  Uiso   1.00
H849   H     0.87901   0.62313   0.80012   0.00000  Uiso   1.00
H850   H     0.87900   0.37676   0.80013   0.00000  Uiso   1.00
H851   H     0.78766   0.62325   0.69988   0.00000  Uiso   1.00
H852   H     0.85633   0.57090   0.53037   0.00000  Uiso   1.00
H853   H     0.85640   0.42906   0.96978   0.00000  Uiso   1.00
H854   H     0.80975   0.57086   0.96945   0.00000  Uiso   1.00
H855   H     0.80973   0.42910   0.53039   0.00000  Uiso   1.00
H856   H     0.85560   0.57122   0.61083   0.00000  Uiso   1.00
N857   N     0.83333   0.61736   0.75000   0.00000  Uiso   1.00
N858   N     0.83333   0.38264   0.75000   0.00000  Uiso   1.00
O859   O     0.77321   0.53958   0.75000   0.00000  Uiso   1.00
O860   O     0.95927   0.54004   0.82212   0.00000  Uiso   1.00
O861   O     0.95885   0.46004   0.67788   0.00000  Uiso   1.00
O862   O     0.70782   0.54000   0.82211   0.00000  Uiso   1.00
O863   O     0.89345   0.46042   0.75001   0.00000  Uiso   1.00
O864   O     0.89345   0.53958   0.75001   0.00000  Uiso   1.00
O865   O     0.77321   0.46042   0.75000   0.00000  Uiso   1.00
O866   O     0.83333   0.53959   0.68573   0.00000  Uiso   1.00
O867   O     0.83334   0.46041   0.81427   0.00000  Uiso   1.00
O868   O     0.83334   0.53959   0.81427   0.00000  Uiso   1.00
O869   O     0.83333   0.46041   0.68573   0.00000  Uiso   1.00
O870   O     0.70740   0.45993   0.67789   0.00000  Uiso   1.00
C871   C     0.08753   0.83334   0.74998   0.00000  Uiso   1.00
C872   C     0.31198   0.85395   0.78573   0.00000  Uiso   1.00
C873   C     0.31178   0.81273   0.71428   0.00000  Uiso   1.00
C874   C     0.02156   0.85394   0.78572   0.00000  Uiso   1.00
C875   C     0.17907   0.87328   0.54760   0.00000  Uiso   1.00
C876   C     0.17915   0.79335   0.95248   0.00000  Uiso   1.00
C877   C     0.15373   0.87324   0.95230   0.00000  Uiso   1.00
C878   C     0.15369   0.79340   0.54762   0.00000  Uiso   1.00
C879   C     0.17886   0.87340   0.59352   0.00000  Uiso   1.00
C880   C     0.17899   0.79326   0.90655   0.00000  Uiso   1.00
C881   C     0.15409   0.87335   0.90638   0.00000  Uiso   1.00
C882   C     0.24580   0.83333   0.75002   0.00000  Uiso   1.00
C883   C     0.15399   0.79331   0.59354   0.00000  Uiso   1.00
C884   C     0.16648   0.83335   0.61673   0.00000  Uiso   1.00
C885   C     0.16660   0.83331   0.88327   0.00000  Uiso   1.00
C886   C     0.16637   0.83332   0.52428   0.00000  Uiso   1.00
C887   C     0.16640   0.83329   0.97572   0.00000  Uiso   1.00
C888   C     0.29037   0.83333   0.75001   0.00000  Uiso   1.00
C889   C     0.04297   0.83334   0.74999   0.00000  Uiso   1.00
C890   C     0.16660   0.83334   0.66497   0.00000  Uiso   1.00
C891   C     0.16667   0.83332   0.83503   0.00000  Uiso   1.00
C892   C     0.14131   0.69150   0.72217   0.00000  Uiso   1.00
C893   C     0.19202   0.97517   0.77783   0.00000  Uiso   1.00
C894   C     0.19202   0.69143   0.77783   0.00000  Uiso   1.00
C895   C     0.14131   0.97523   0.72217   0.00000  Uiso   1.00
C896   C     0.02136   0.81271   0.71427   0.00000  Uiso   1.00
Cu897  Cu    0.16667   0.88022   0.75000   0.00000  Uiso   1.00
Cu898  Cu    0.16667   0.78645   0.75000   0.00000  Uiso   1.00
H899   H     0.12099   0.71020   0.69987   0.00000  Uiso   1.00
H900   H     0.18909   0.76210   0.88930   0.00000  Uiso   1.00
H901   H     0.14404   0.90450   0.88898   0.00000  Uiso   1.00
H902   H     0.14394   0.76217   0.61088   0.00000  Uiso   1.00
H903   H     0.06987   0.80346   0.67645   0.00000  Uiso   1.00
H904   H     0.26348   0.86311   0.82358   0.00000  Uiso   1.00
H905   H     0.26311   0.80382   0.67635   0.00000  Uiso   1.00
H906   H     0.07025   0.86296   0.82361   0.00000  Uiso   1.00
H907   H     0.21235   0.95647   0.80012   0.00000  Uiso   1.00
H908   H     0.21233   0.71009   0.80013   0.00000  Uiso   1.00
H909   H     0.12099   0.95658   0.69988   0.00000  Uiso   1.00
H910   H     0.18966   0.90423   0.53037   0.00000  Uiso   1.00
H911   H     0.18973   0.76239   0.96978   0.00000  Uiso   1.00
H912   H     0.14308   0.90420   0.96945   0.00000  Uiso   1.00
H913   H     0.14307   0.76243   0.53039   0.00000  Uiso   1.00
H914   H     0.18893   0.90455   0.61083   0.00000  Uiso   1.00
N915   N     0.16667   0.95069   0.75000   0.00000  Uiso   1.00
N916   N     0.16667   0.71598   0.75000   0.00000  Uiso   1.00
O917   O     0.10655   0.87291   0.75000   0.00000  Uiso   1.00
O918   O     0.29260   0.87337   0.82212   0.00000  Uiso   1.00
O919   O     0.29219   0.79337   0.67788   0.00000  Uiso   1.00
O920   O     0.04115   0.87333   0.82211   0.00000  Uiso   1.00
O921   O     0.22679   0.79375   0.75001   0.00000  Uiso   1.00
O922   O     0.22679   0.87291   0.75001   0.00000  Uiso   1.00
O923   O     0.10655   0.79375   0.75000   0.00000  Uiso   1.00
O924   O     0.16666   0.87293   0.68573   0.00000  Uiso   1.00
O925   O     0.16667   0.79374   0.81427   0.00000  Uiso   1.00
O926   O     0.16667   0.87293   0.81427   0.00000  Uiso   1.00
O927   O     0.16666   0.79374   0.68573   0.00000  Uiso   1.00
O928   O     0.04074   0.79326   0.67789   0.00000  Uiso   1.00
C929   C     0.42086   0.83334   0.74998   0.00000  Uiso   1.00
C930   C     0.64531   0.85395   0.78573   0.00000  Uiso   1.00
C931   C     0.64511   0.81273   0.71428   0.00000  Uiso   1.00
C932   C     0.35489   0.85394   0.78572   0.00000  Uiso   1.00
C933   C     0.51240   0.87328   0.54760   0.00000  Uiso   1.00
C934   C     0.51248   0.79335   0.95248   0.00000  Uiso   1.00
C935   C     0.48707   0.87324   0.95230   0.00000  Uiso   1.00
C936   C     0.48702   0.79340   0.54762   0.00000  Uiso   1.00
C937   C     0.51219   0.87340   0.59352   0.00000  Uiso   1.00
C938   C     0.51232   0.79326   0.90655   0.00000  Uiso   1.00
C939   C     0.48742   0.87335   0.90638   0.00000  Uiso   1.00
C940   C     0.57914   0.83333   0.75002   0.00000  Uiso   1.00
C941   C     0.48733   0.79331   0.59354   0.00000  Uiso   1.00
C942   C     0.49982   0.83335   0.61673   0.00000  Uiso   1.00
C943   C     0.49993   0.83331   0.88327   0.00000  Uiso   1.00
C944   C     0.49970   0.83332   0.52428   0.00000  Uiso   1.00
C945   C     0.49973   0.83329   0.97572   0.00000  Uiso   1.00
C946   C     0.62371   0.83333   0.75001   0.00000  Uiso   1.00
C947   C     0.37630   0.83334   0.74999   0.00000  Uiso   1.00
C948   C     0.49993   0.83334   0.66497   0.00000  Uiso   1.00
C949   C     0.50001   0.83332   0.83503   0.00000  Uiso   1.00
C950   C     0.47465   0.69150   0.72217   0.00000  Uiso   1.00
C951   C     0.52535   0.97517   0.77783   0.00000  Uiso   1.00
C952   C     0.52535   0.69143   0.77783   0.00000  Uiso   1.00
C953   C     0.47465   0.97523   0.72217   0.00000  Uiso   1.00
C954   C     0.35469   0.81271   0.71427   0.00000  Uiso   1.00
Cu955  Cu    0.50000   0.88022   0.75000   0.00000  Uiso   1.00
Cu956  Cu    0.50000   0.78645   0.75000   0.00000  Uiso   1.00
H957   H     0.45433   0.71020   0.69987   0.00000  Uiso   1.00
H958   H     0.52243   0.76210   0.88930   0.00000  Uiso   1.00
H959   H     0.47738   0.90450   0.88898   0.00000  Uiso   1.00
H960   H     0.47727   0.76217   0.61088   0.00000  Uiso   1.00
H961   H     0.40321   0.80346   0.67645   0.00000  Uiso   1.00
H962   H     0.59682   0.86311   0.82358   0.00000  Uiso   1.00
H963   H     0.59644   0.80382   0.67635   0.00000  Uiso   1.00
H964   H     0.40358   0.86296   0.82361   0.00000  Uiso   1.00
H965   H     0.54568   0.95647   0.80012   0.00000  Uiso   1.00
H966   H     0.54566   0.71009   0.80013   0.00000  Uiso   1.00
H967   H     0.45433   0.95658   0.69988   0.00000  Uiso   1.00
H968   H     0.52300   0.90423   0.53037   0.00000  Uiso   1.00
H969   H     0.52307   0.76239   0.96978   0.00000  Uiso   1.00
H970   H     0.47642   0.90420   0.96945   0.00000  Uiso   1.00
H971   H     0.47640   0.76243   0.53039   0.00000  Uiso   1.00
H972   H     0.52227   0.90455   0.61083   0.00000  Uiso   1.00
N973   N     0.50000   0.95069   0.75000   0.00000  Uiso   1.00
N974   N     0.50000   0.71598   0.75000   0.00000  Uiso   1.00
O975   O     0.43988   0.87291   0.75000   0.00000  Uiso   1.00
O976   O     0.62593   0.87337   0.82212   0.00000  Uiso   1.00
O977   O     0.62552   0.79337   0.67788   0.00000  Uiso   1.00
O978   O     0.37448   0.87333   0.82211   0.00000  Uiso   1.00
O979   O     0.56012   0.79375   0.75001   0.00000  Uiso   1.00
O980   O     0.56012   0.87291   0.75001   0.00000  Uiso   1.00
O981   O     0.43988   0.79375   0.75000   0.00000  Uiso   1.00
O982   O     0.50000   0.87293   0.68573   0.00000  Uiso   1.00
O983   O     0.50000   0.79374   0.81427   0.00000  Uiso   1.00
O984   O     0.50000   0.87293   0.81427   0.00000  Uiso   1.00
O985   O     0.50000   0.79374   0.68573   0.00000  Uiso   1.00
O986   O     0.37407   0.79326   0.67789   0.00000  Uiso   1.00
C987   C     0.75420   0.83334   0.74998   0.00000  Uiso   1.00
C988   C     0.97865   0.85395   0.78573   0.00000  Uiso   1.00
C989   C     0.97845   0.81273   0.71428   0.00000  Uiso   1.00
C990   C     0.68823   0.85394   0.78572   0.00000  Uiso   1.00
C991   C     0.84574   0.87328   0.54760   0.00000  Uiso   1.00
C992   C     0.84581   0.79335   0.95248   0.00000  Uiso   1.00
C993   C     0.82040   0.87324   0.95230   0.00000  Uiso   1.00
C994   C     0.82035   0.79340   0.54762   0.00000  Uiso   1.00
C995   C     0.84553   0.87340   0.59352   0.00000  Uiso   1.00
C996   C     0.84566   0.79326   0.90655   0.00000  Uiso   1.00
C997   C     0.82076   0.87335   0.90638   0.00000  Uiso   1.00
C998   C     0.91247   0.83333   0.75002   0.00000  Uiso   1.00
C999   C     0.82066   0.79331   0.59354   0.00000  Uiso   1.00
C1000  C     0.83315   0.83335   0.61673   0.00000  Uiso   1.00
C1001  C     0.83326   0.83331   0.88327   0.00000  Uiso   1.00
C1002  C     0.83304   0.83332   0.52428   0.00000  Uiso   1.00
C1003  C     0.83307   0.83329   0.97572   0.00000  Uiso   1.00
C1004  C     0.95704   0.83333   0.75001   0.00000  Uiso   1.00
C1005  C     0.70963   0.83334   0.74999   0.00000  Uiso   1.00
C1006  C     0.83327   0.83334   0.66497   0.00000  Uiso   1.00
C1007  C     0.83334   0.83332   0.83503   0.00000  Uiso   1.00
C1008  C     0.80798   0.69150   0.72217   0.00000  Uiso   1.00
C1009  C     0.85869   0.97517   0.77783   0.00000  Uiso   1.00
C1010  C     0.85868   0.69143   0.77783   0.00000  Uiso   1.00
C1011  C     0.80798   0.97523   0.72217   0.00000  Uiso   1.00
C1012  C     0.68803   0.81271   0.71427   0.00000  Uiso   1.00
Cu1013 Cu    0.83333   0.88022   0.75000   0.00000  Uiso   1.00
Cu1014 Cu    0.83333   0.78645   0.75000   0.00000  Uiso   1.00
H1015  H     0.78766   0.71020   0.69987   0.00000  Uiso   1.00
H1016  H     0.85576   0.76210   0.88930   0.00000  Uiso   1.00
H1017  H     0.81071   0.90450   0.88898   0.00000  Uiso   1.00
H1018  H     0.81060   0.76217   0.61088   0.00000  Uiso   1.00
H1019  H     0.73654   0.80346   0.67645   0.00000  Uiso   1.00
H1020  H     0.93015   0.86311   0.82358   0.00000  Uiso   1.00
H1021  H     0.92977   0.80382   0.67635   0.00000  Uiso   1.00
H1022  H     0.73692   0.86296   0.82361   0.00000  Uiso   1.00
H1023  H     0.87901   0.95647   0.80012   0.00000  Uiso   1.00
H1024  H     0.87900   0.71009   0.80013   0.00000  Uiso   1.00
H1025  H     0.78766   0.95658   0.69988   0.00000  Uiso   1.00
H1026  H     0.85633   0.90423   0.53037   0.00000  Uiso   1.00
H1027  H     0.85640   0.76239   0.96978   0.00000  Uiso   1.00
H1028  H     0.80975   0.90420   0.96945   0.00000  Uiso   1.00
H1029  H     0.80973   0.76243   0.53039   0.00000  Uiso   1.00
H1030  H     0.85560   0.90455   0.61083   0.00000  Uiso   1.00
N1031  N     0.83333   0.95069   0.75000   0.00000  Uiso   1.00
N1032  N     0.83333   0.71598   0.75000   0.00000  Uiso   1.00
O1033  O     0.77321   0.87291   0.75000   0.00000  Uiso   1.00
O1034  O     0.95927   0.87337   0.82212   0.00000  Uiso   1.00
O1035  O     0.95885   0.79337   0.67788   0.00000  Uiso   1.00
O1036  O     0.70782   0.87333   0.82211   0.00000  Uiso   1.00
O1037  O     0.89345   0.79375   0.75001   0.00000  Uiso   1.00
O1038  O     0.89345   0.87291   0.75001   0.00000  Uiso   1.00
O1039  O     0.77321   0.79375   0.75000   0.00000  Uiso   1.00
O1040  O     0.83333   0.87293   0.68573   0.00000  Uiso   1.00
O1041  O     0.83334   0.79374   0.81427   0.00000  Uiso   1.00
O1042  O     0.83334   0.87293   0.81427   0.00000  Uiso   1.00
O1043  O     0.83333   0.79374   0.68573   0.00000  Uiso   1.00
O1044  O     0.70740   0.79326   0.67789   0.00000  Uiso   1.00
loop_
_geom_bond_atom_site_label_1
_geom_bond_atom_site_label_2
_geom_bond_distance
_geom_bond_site_symmetry_2
_ccdc_geom_bond_type
C1     C19     1.443   .     S
C1     O53     1.288   .     A
C1     O47     1.288   .     A
C2     C18     1.415   .     A
C2     O48     1.385   .     S
C2     C62     1.389   .     S
C3     O49     1.385   .     S
C3     C18     1.415   .     A
C3     C84     1.389   .     S
C4     C19     1.415   .     A
C4     O50     1.385   .     S
C4     C118    1.389   1_455 S
C5     C9      1.390   .     A
C5     H40     1.083   .     S
C5     C16     1.404   .     A
C6     C10     1.390   .     A
C6     C17     1.404   .     A
C6     H41     1.083   .     S
C7     C11     1.390   .     A
C7     H42     1.083   .     S
C7     C17     1.404   .     A
C8     C13     1.390   .     A
C8     H43     1.083   .     S
C8     C16     1.404   .     A
C9     C14     1.402   .     A
C9     H44     1.083   .     S
C10    H30     1.083   .     S
C10    C15     1.402   .     A
C11    H31     1.083   .     S
C11    C15     1.402   .     A
C12    O52     1.288   .     A
C12    O51     1.288   .     A
C12    C18     1.443   .     S
C13    H32     1.083   .     S
C13    C14     1.402   .     A
C14    C20     1.460   .     S
C15    C21     1.460   .     S
C16    C539    1.470   1_554 S
C17    C538    1.470   .     S
C19    C26     1.415   .     A
C20    O54     1.294   .     A
C20    O57     1.294   .     A
C21    O56     1.294   .     A
C21    O55     1.294   .     A
C22    H29     1.082   .     S
C22    N46     1.367   .     A
C22    C373    1.417   1_545 S
C23    N45     1.367   .     A
C23    H37     1.082   .     S
C23    C198    1.417   .     S
C24    H38     1.082   .     S
C24    N46     1.367   .     A
C24    C371    1.417   1_545 S
C25    N45     1.367   .     A
C25    H39     1.082   .     S
C25    C196    1.417   .     S
C26    O58     1.385   .     S
C26    C119    1.389   1_455 S
Cu27   N45     2.014   .     S
Cu27   O54     1.957   .     S
Cu27   O47     1.957   .     S
Cu27   O52     1.957   .     S
Cu27   Cu28    2.680   .     S
Cu27   O56     1.956   .     S
Cu28   O57     1.956   .     S
Cu28   O53     1.957   .     S
Cu28   N46     2.014   .     S
Cu28   O55     1.957   .     S
Cu28   O51     1.957   .     S
H33    O58     0.988   .     S
H34    O48     0.988   .     S
H35    O49     0.988   .     S
H36    O50     0.988   .     S
C59    C77     1.443   .     S
C59    O111    1.288   .     A
C59    O105    1.288   .     A
C60    C76     1.415   .     A
C60    O106    1.385   .     S
C60    C120    1.389   .     S
C61    O107    1.385   .     S
C61    C76     1.415   .     A
C61    C142    1.389   .     S
C62    C77     1.415   .     A
C62    O108    1.385   .     S
C63    C67     1.390   .     A
C63    H98     1.083   .     S
C63    C74     1.404   .     A
C64    C68     1.390   .     A
C64    C75     1.404   .     A
C64    H99     1.083   .     S
C65    C69     1.390   .     A
C65    H100    1.083   .     S
C65    C75     1.404   .     A
C66    C71     1.390   .     A
C66    H101    1.083   .     S
C66    C74     1.404   .     A
C67    C72     1.402   .     A
C67    H102    1.083   .     S
C68    H88     1.083   .     S
C68    C73     1.402   .     A
C69    H89     1.083   .     S
C69    C73     1.402   .     A
C70    O110    1.288   .     A
C70    O109    1.288   .     A
C70    C76     1.443   .     S
C71    H90     1.083   .     S
C71    C72     1.402   .     A
C72    C78     1.460   .     S
C73    C79     1.460   .     S
C74    C597    1.470   1_554 S
C75    C596    1.470   .     S
C77    C84     1.415   .     A
C78    O112    1.294   .     A
C78    O115    1.294   .     A
C79    O114    1.294   .     A
C79    O113    1.294   .     A
C80    H87     1.082   .     S
C80    N104    1.367   .     A
C80    C431    1.417   1_545 S
C81    N103    1.367   .     A
C81    H95     1.082   .     S
C81    C256    1.417   .     S
C82    H96     1.082   .     S
C82    N104    1.367   .     A
C82    C429    1.417   1_545 S
C83    N103    1.367   .     A
C83    H97     1.082   .     S
C83    C254    1.417   .     S
C84    O116    1.385   .     S
Cu85   N103    2.014   .     S
Cu85   O112    1.957   .     S
Cu85   O105    1.957   .     S
Cu85   O110    1.957   .     S
Cu85   Cu86    2.680   .     S
Cu85   O114    1.956   .     S
Cu86   O115    1.956   .     S
Cu86   O111    1.957   .     S
Cu86   N104    2.014   .     S
Cu86   O113    1.957   .     S
Cu86   O109    1.957   .     S
H91    O116    0.988   .     S
H92    O106    0.988   .     S
H93    O107    0.988   .     S
H94    O108    0.988   .     S
C117   C135    1.443   .     S
C117   O169    1.288   .     A
C117   O163    1.288   .     A
C118   C134    1.415   .     A
C118   O164    1.385   .     S
C118   C4      1.389   1_655 S
C119   O165    1.385   .     S
C119   C134    1.415   .     A
C119   C26     1.389   1_655 S
C120   C135    1.415   .     A
C120   O166    1.385   .     S
C121   C125    1.390   .     A
C121   H156    1.083   .     S
C121   C132    1.404   .     A
C122   C126    1.390   .     A
C122   C133    1.404   .     A
C122   H157    1.083   .     S
C123   C127    1.390   .     A
C123   H158    1.083   .     S
C123   C133    1.404   .     A
C124   C129    1.390   .     A
C124   H159    1.083   .     S
C124   C132    1.404   .     A
C125   C130    1.402   .     A
C125   H160    1.083   .     S
C126   H146    1.083   .     S
C126   C131    1.402   .     A
C127   H147    1.083   .     S
C127   C131    1.402   .     A
C128   O168    1.288   .     A
C128   O167    1.288   .     A
C128   C134    1.443   .     S
C129   H148    1.083   .     S
C129   C130    1.402   .     A
C130   C136    1.460   .     S
C131   C137    1.460   .     S
C132   C655    1.470   1_554 S
C133   C654    1.470   .     S
C135   C142    1.415   .     A
C136   O170    1.294   .     A
C136   O173    1.294   .     A
C137   O172    1.294   .     A
C137   O171    1.294   .     A
C138   H145    1.082   .     S
C138   N162    1.367   .     A
C138   C489    1.417   1_545 S
C139   N161    1.367   .     A
C139   H153    1.082   .     S
C139   C314    1.417   .     S
C140   H154    1.082   .     S
C140   N162    1.367   .     A
C140   C487    1.417   1_545 S
C141   N161    1.367   .     A
C141   H155    1.082   .     S
C141   C312    1.417   .     S
C142   O174    1.385   .     S
Cu143  N161    2.014   .     S
Cu143  O170    1.957   .     S
Cu143  O163    1.957   .     S
Cu143  O168    1.957   .     S
Cu143  Cu144   2.680   .     S
Cu143  O172    1.956   .     S
Cu144  O173    1.956   .     S
Cu144  O169    1.957   .     S
Cu144  N162    2.014   .     S
Cu144  O171    1.957   .     S
Cu144  O167    1.957   .     S
H149   O174    0.988   .     S
H150   O164    0.988   .     S
H151   O165    0.988   .     S
H152   O166    0.988   .     S
C175   C193    1.443   .     S
C175   O227    1.288   .     A
C175   O221    1.288   .     A
C176   C192    1.415   .     A
C176   O222    1.385   .     S
C176   C236    1.389   .     S
C177   O223    1.385   .     S
C177   C192    1.415   .     A
C177   C258    1.389   .     S
C178   C193    1.415   .     A
C178   O224    1.385   .     S
C178   C292    1.389   1_455 S
C179   C183    1.390   .     A
C179   H214    1.083   .     S
C179   C190    1.404   .     A
C180   C184    1.390   .     A
C180   C191    1.404   .     A
C180   H215    1.083   .     S
C181   C185    1.390   .     A
C181   H216    1.083   .     S
C181   C191    1.404   .     A
C182   C187    1.390   .     A
C182   H217    1.083   .     S
C182   C190    1.404   .     A
C183   C188    1.402   .     A
C183   H218    1.083   .     S
C184   H204    1.083   .     S
C184   C189    1.402   .     A
C185   H205    1.083   .     S
C185   C189    1.402   .     A
C186   O226    1.288   .     A
C186   O225    1.288   .     A
C186   C192    1.443   .     S
C187   H206    1.083   .     S
C187   C188    1.402   .     A
C188   C194    1.460   .     S
C189   C195    1.460   .     S
C190   C713    1.470   1_554 S
C191   C712    1.470   .     S
C193   C200    1.415   .     A
C194   O228    1.294   .     A
C194   O231    1.294   .     A
C195   O230    1.294   .     A
C195   O229    1.294   .     A
C196   H203    1.082   .     S
C196   N220    1.367   .     A
C197   N219    1.367   .     A
C197   H211    1.082   .     S
C197   C372    1.417   .     S
C198   H212    1.082   .     S
C198   N220    1.367   .     A
C199   N219    1.367   .     A
C199   H213    1.082   .     S
C199   C370    1.417   .     S
C200   O232    1.385   .     S
C200   C293    1.389   1_455 S
Cu201  N219    2.014   .     S
Cu201  O228    1.957   .     S
Cu201  O221    1.957   .     S
Cu201  O226    1.957   .     S
Cu201  Cu202   2.680   .     S
Cu201  O230    1.956   .     S
Cu202  O231    1.956   .     S
Cu202  O227    1.957   .     S
Cu202  N220    2.014   .     S
Cu202  O229    1.957   .     S
Cu202  O225    1.957   .     S
H207   O232    0.988   .     S
H208   O222    0.988   .     S
H209   O223    0.988   .     S
H210   O224    0.988   .     S
C233   C251    1.443   .     S
C233   O285    1.288   .     A
C233   O279    1.288   .     A
C234   C250    1.415   .     A
C234   O280    1.385   .     S
C234   C294    1.389   .     S
C235   O281    1.385   .     S
C235   C250    1.415   .     A
C235   C316    1.389   .     S
C236   C251    1.415   .     A
C236   O282    1.385   .     S
C237   C241    1.390   .     A
C237   H272    1.083   .     S
C237   C248    1.404   .     A
C238   C242    1.390   .     A
C238   C249    1.404   .     A
C238   H273    1.083   .     S
C239   C243    1.390   .     A
C239   H274    1.083   .     S
C239   C249    1.404   .     A
C240   C245    1.390   .     A
C240   H275    1.083   .     S
C240   C248    1.404   .     A
C241   C246    1.402   .     A
C241   H276    1.083   .     S
C242   H262    1.083   .     S
C242   C247    1.402   .     A
C243   H263    1.083   .     S
C243   C247    1.402   .     A
C244   O284    1.288   .     A
C244   O283    1.288   .     A
C244   C250    1.443   .     S
C245   H264    1.083   .     S
C245   C246    1.402   .     A
C246   C252    1.460   .     S
C247   C253    1.460   .     S
C248   C771    1.470   1_554 S
C249   C770    1.470   .     S
C251   C258    1.415   .     A
C252   O286    1.294   .     A
C252   O289    1.294   .     A
C253   O288    1.294   .     A
C253   O287    1.294   .     A
C254   H261    1.082   .     S
C254   N278    1.367   .     A
C255   N277    1.367   .     A
C255   H269    1.082   .     S
C255   C430    1.417   .     S
C256   H270    1.082   .     S
C256   N278    1.367   .     A
C257   N277    1.367   .     A
C257   H271    1.082   .     S
C257   C428    1.417   .     S
C258   O290    1.385   .     S
Cu259  N277    2.014   .     S
Cu259  O286    1.957   .     S
Cu259  O279    1.957   .     S
Cu259  O284    1.957   .     S
Cu259  Cu260   2.680   .     S
Cu259  O288    1.956   .     S
Cu260  O289    1.956   .     S
Cu260  O285    1.957   .     S
Cu260  N278    2.014   .     S
Cu260  O287    1.957   .     S
Cu260  O283    1.957   .     S
H265   O290    0.988   .     S
H266   O280    0.988   .     S
H267   O281    0.988   .     S
H268   O282    0.988   .     S
C291   C309    1.443   .     S
C291   O343    1.288   .     A
C291   O337    1.288   .     A
C292   C308    1.415   .     A
C292   O338    1.385   .     S
C292   C178    1.389   1_655 S
C293   O339    1.385   .     S
C293   C308    1.415   .     A
C293   C200    1.389   1_655 S
C294   C309    1.415   .     A
C294   O340    1.385   .     S
C295   C299    1.390   .     A
C295   H330    1.083   .     S
C295   C306    1.404   .     A
C296   C300    1.390   .     A
C296   C307    1.404   .     A
C296   H331    1.083   .     S
C297   C301    1.390   .     A
C297   H332    1.083   .     S
C297   C307    1.404   .     A
C298   C303    1.390   .     A
C298   H333    1.083   .     S
C298   C306    1.404   .     A
C299   C304    1.402   .     A
C299   H334    1.083   .     S
C300   H320    1.083   .     S
C300   C305    1.402   .     A
C301   H321    1.083   .     S
C301   C305    1.402   .     A
C302   O342    1.288   .     A
C302   O341    1.288   .     A
C302   C308    1.443   .     S
C303   H322    1.083   .     S
C303   C304    1.402   .     A
C304   C310    1.460   .     S
C305   C311    1.460   .     S
C306   C829    1.470   1_554 S
C307   C828    1.470   .     S
C309   C316    1.415   .     A
C310   O344    1.294   .     A
C310   O347    1.294   .     A
C311   O346    1.294   .     A
C311   O345    1.294   .     A
C312   H319    1.082   .     S
C312   N336    1.367   .     A
C313   N335    1.367   .     A
C313   H327    1.082   .     S
C313   C488    1.417   .     S
C314   H328    1.082   .     S
C314   N336    1.367   .     A
C315   N335    1.367   .     A
C315   H329    1.082   .     S
C315   C486    1.417   .     S
C316   O348    1.385   .     S
Cu317  N335    2.014   .     S
Cu317  O344    1.957   .     S
Cu317  O337    1.957   .     S
Cu317  O342    1.957   .     S
Cu317  Cu318   2.680   .     S
Cu317  O346    1.956   .     S
Cu318  O347    1.956   .     S
Cu318  O343    1.957   .     S
Cu318  N336    2.014   .     S
Cu318  O345    1.957   .     S
Cu318  O341    1.957   .     S
H323   O348    0.988   .     S
H324   O338    0.988   .     S
H325   O339    0.988   .     S
H326   O340    0.988   .     S
C349   C367    1.443   .     S
C349   O401    1.288   .     A
C349   O395    1.288   .     A
C350   C366    1.415   .     A
C350   O396    1.385   .     S
C350   C410    1.389   .     S
C351   O397    1.385   .     S
C351   C366    1.415   .     A
C351   C432    1.389   .     S
C352   C367    1.415   .     A
C352   O398    1.385   .     S
C352   C466    1.389   1_455 S
C353   C357    1.390   .     A
C353   H388    1.083   .     S
C353   C364    1.404   .     A
C354   C358    1.390   .     A
C354   C365    1.404   .     A
C354   H389    1.083   .     S
C355   C359    1.390   .     A
C355   H390    1.083   .     S
C355   C365    1.404   .     A
C356   C361    1.390   .     A
C356   H391    1.083   .     S
C356   C364    1.404   .     A
C357   C362    1.402   .     A
C357   H392    1.083   .     S
C358   H378    1.083   .     S
C358   C363    1.402   .     A
C359   H379    1.083   .     S
C359   C363    1.402   .     A
C360   O400    1.288   .     A
C360   O399    1.288   .     A
C360   C366    1.443   .     S
C361   H380    1.083   .     S
C361   C362    1.402   .     A
C362   C368    1.460   .     S
C363   C369    1.460   .     S
C364   C887    1.470   1_554 S
C365   C886    1.470   .     S
C367   C374    1.415   .     A
C368   O402    1.294   .     A
C368   O405    1.294   .     A
C369   O404    1.294   .     A
C369   O403    1.294   .     A
C370   H377    1.082   .     S
C370   N394    1.367   .     A
C371   N393    1.367   .     A
C371   H385    1.082   .     S
C371   C24     1.417   1_565 S
C372   H386    1.082   .     S
C372   N394    1.367   .     A
C373   N393    1.367   .     A
C373   H387    1.082   .     S
C373   C22     1.417   1_565 S
C374   O406    1.385   .     S
C374   C467    1.389   1_455 S
Cu375  N393    2.014   .     S
Cu375  O402    1.957   .     S
Cu375  O395    1.957   .     S
Cu375  O400    1.957   .     S
Cu375  Cu376   2.680   .     S
Cu375  O404    1.956   .     S
Cu376  O405    1.956   .     S
Cu376  O401    1.957   .     S
Cu376  N394    2.014   .     S
Cu376  O403    1.957   .     S
Cu376  O399    1.957   .     S
H381   O406    0.988   .     S
H382   O396    0.988   .     S
H383   O397    0.988   .     S
H384   O398    0.988   .     S
C407   C425    1.443   .     S
C407   O459    1.288   .     A
C407   O453    1.288   .     A
C408   C424    1.415   .     A
C408   O454    1.385   .     S
C408   C468    1.389   .     S
C409   O455    1.385   .     S
C409   C424    1.415   .     A
C409   C490    1.389   .     S
C410   C425    1.415   .     A
C410   O456    1.385   .     S
C411   C415    1.390   .     A
C411   H446    1.083   .     S
C411   C422    1.404   .     A
C412   C416    1.390   .     A
C412   C423    1.404   .     A
C412   H447    1.083   .     S
C413   C417    1.390   .     A
C413   H448    1.083   .     S
C413   C423    1.404   .     A
C414   C419    1.390   .     A
C414   H449    1.083   .     S
C414   C422    1.404   .     A
C415   C420    1.402   .     A
C415   H450    1.083   .     S
C416   H436    1.083   .     S
C416   C421    1.402   .     A
C417   H437    1.083   .     S
C417   C421    1.402   .     A
C418   O458    1.288   .     A
C418   O457    1.288   .     A
C418   C424    1.443   .     S
C419   H438    1.083   .     S
C419   C420    1.402   .     A
C420   C426    1.460   .     S
C421   C427    1.460   .     S
C422   C945    1.470   1_554 S
C423   C944    1.470   .     S
C425   C432    1.415   .     A
C426   O460    1.294   .     A
C426   O463    1.294   .     A
C427   O462    1.294   .     A
C427   O461    1.294   .     A
C428   H435    1.082   .     S
C428   N452    1.367   .     A
C429   N451    1.367   .     A
C429   H443    1.082   .     S
C429   C82     1.417   1_565 S
C430   H444    1.082   .     S
C430   N452    1.367   .     A
C431   N451    1.367   .     A
C431   H445    1.082   .     S
C431   C80     1.417   1_565 S
C432   O464    1.385   .     S
Cu433  N451    2.014   .     S
Cu433  O460    1.957   .     S
Cu433  O453    1.957   .     S
Cu433  O458    1.957   .     S
Cu433  Cu434   2.680   .     S
Cu433  O462    1.956   .     S
Cu434  O463    1.956   .     S
Cu434  O459    1.957   .     S
Cu434  N452    2.014   .     S
Cu434  O461    1.957   .     S
Cu434  O457    1.957   .     S
H439   O464    0.988   .     S
H440   O454    0.988   .     S
H441   O455    0.988   .     S
H442   O456    0.988   .     S
C465   C483    1.443   .     S
C465   O517    1.288   .     A
C465   O511    1.288   .     A
C466   C482    1.415   .     A
C466   O512    1.385   .     S
C466   C352    1.389   1_655 S
C467   O513    1.385   .     S
C467   C482    1.415   .     A
C467   C374    1.389   1_655 S
C468   C483    1.415   .     A
C468   O514    1.385   .     S
C469   C473    1.390   .     A
C469   H504    1.083   .     S
C469   C480    1.404   .     A
C470   C474    1.390   .     A
C470   C481    1.404   .     A
C470   H505    1.083   .     S
C471   C475    1.390   .     A
C471   H506    1.083   .     S
C471   C481    1.404   .     A
C472   C477    1.390   .     A
C472   H507    1.083   .     S
C472   C480    1.404   .     A
C473   C478    1.402   .     A
C473   H508    1.083   .     S
C474   H494    1.083   .     S
C474   C479    1.402   .     A
C475   H495    1.083   .     S
C475   C479    1.402   .     A
C476   O516    1.288   .     A
C476   O515    1.288   .     A
C476   C482    1.443   .     S
C477   H496    1.083   .     S
C477   C478    1.402   .     A
C478   C484    1.460   .     S
C479   C485    1.460   .     S
C480   C1003   1.470   1_554 S
C481   C1002   1.470   .     S
C483   C490    1.415   .     A
C484   O518    1.294   .     A
C484   O521    1.294   .     A
C485   O520    1.294   .     A
C485   O519    1.294   .     A
C486   H493    1.082   .     S
C486   N510    1.367   .     A
C487   N509    1.367   .     A
C487   H501    1.082   .     S
C487   C140    1.417   1_565 S
C488   H502    1.082   .     S
C488   N510    1.367   .     A
C489   N509    1.367   .     A
C489   H503    1.082   .     S
C489   C138    1.417   1_565 S
C490   O522    1.385   .     S
Cu491  N509    2.014   .     S
Cu491  O518    1.957   .     S
Cu491  O511    1.957   .     S
Cu491  O516    1.957   .     S
Cu491  Cu492   2.680   .     S
Cu491  O520    1.956   .     S
Cu492  O521    1.956   .     S
Cu492  O517    1.957   .     S
Cu492  N510    2.014   .     S
Cu492  O519    1.957   .     S
Cu492  O515    1.957   .     S
H497   O522    0.988   .     S
H498   O512    0.988   .     S
H499   O513    0.988   .     S
H500   O514    0.988   .     S
C523   C541    1.443   .     S
C523   O575    1.288   .     A
C523   O569    1.288   .     A
C524   C540    1.415   .     A
C524   O570    1.385   .     S
C524   C584    1.389   .     S
C525   O571    1.385   .     S
C525   C540    1.415   .     A
C525   C606    1.389   .     S
C526   C541    1.415   .     A
C526   O572    1.385   .     S
C526   C640    1.389   1_455 S
C527   C531    1.390   .     A
C527   H562    1.083   .     S
C527   C538    1.404   .     A
C528   C532    1.390   .     A
C528   C539    1.404   .     A
C528   H563    1.083   .     S
C529   C533    1.390   .     A
C529   H564    1.083   .     S
C529   C539    1.404   .     A
C530   C535    1.390   .     A
C530   H565    1.083   .     S
C530   C538    1.404   .     A
C531   C536    1.402   .     A
C531   H566    1.083   .     S
C532   H552    1.083   .     S
C532   C537    1.402   .     A
C533   H553    1.083   .     S
C533   C537    1.402   .     A
C534   O574    1.288   .     A
C534   O573    1.288   .     A
C534   C540    1.443   .     S
C535   H554    1.083   .     S
C535   C536    1.402   .     A
C536   C542    1.460   .     S
C537   C543    1.460   .     S
C539   C16     1.470   1_556 S
C541   C548    1.415   .     A
C542   O576    1.294   .     A
C542   O579    1.294   .     A
C543   O578    1.294   .     A
C543   O577    1.294   .     A
C544   H551    1.082   .     S
C544   N568    1.367   .     A
C544   C895    1.417   1_545 S
C545   N567    1.367   .     A
C545   H559    1.082   .     S
C545   C720    1.417   .     S
C546   H560    1.082   .     S
C546   N568    1.367   .     A
C546   C893    1.417   1_545 S
C547   N567    1.367   .     A
C547   H561    1.082   .     S
C547   C718    1.417   .     S
C548   O580    1.385   .     S
C548   C641    1.389   1_455 S
Cu549  N567    2.014   .     S
Cu549  O576    1.957   .     S
Cu549  O569    1.957   .     S
Cu549  O574    1.957   .     S
Cu549  Cu550   2.680   .     S
Cu549  O578    1.956   .     S
Cu550  O579    1.956   .     S
Cu550  O575    1.957   .     S
Cu550  N568    2.014   .     S
Cu550  O577    1.957   .     S
Cu550  O573    1.957   .     S
H555   O580    0.988   .     S
H556   O570    0.988   .     S
H557   O571    0.988   .     S
H558   O572    0.988   .     S
C581   C599    1.443   .     S
C581   O633    1.288   .     A
C581   O627    1.288   .     A
C582   C598    1.415   .     A
C582   O628    1.385   .     S
C582   C642    1.389   .     S
C583   O629    1.385   .     S
C583   C598    1.415   .     A
C583   C664    1.389   .     S
C584   C599    1.415   .     A
C584   O630    1.385   .     S
C585   C589    1.390   .     A
C585   H620    1.083   .     S
C585   C596    1.404   .     A
C586   C590    1.390   .     A
C586   C597    1.404   .     A
C586   H621    1.083   .     S
C587   C591    1.390   .     A
C587   H622    1.083   .     S
C587   C597    1.404   .     A
C588   C593    1.390   .     A
C588   H623    1.083   .     S
C588   C596    1.404   .     A
C589   C594    1.402   .     A
C589   H624    1.083   .     S
C590   H610    1.083   .     S
C590   C595    1.402   .     A
C591   H611    1.083   .     S
C591   C595    1.402   .     A
C592   O632    1.288   .     A
C592   O631    1.288   .     A
C592   C598    1.443   .     S
C593   H612    1.083   .     S
C593   C594    1.402   .     A
C594   C600    1.460   .     S
C595   C601    1.460   .     S
C597   C74     1.470   1_556 S
C599   C606    1.415   .     A
C600   O634    1.294   .     A
C600   O637    1.294   .     A
C601   O636    1.294   .     A
C601   O635    1.294   .     A
C602   H609    1.082   .     S
C602   N626    1.367   .     A
C602   C953    1.417   1_545 S
C603   N625    1.367   .     A
C603   H617    1.082   .     S
C603   C778    1.417   .     S
C604   H618    1.082   .     S
C604   N626    1.367   .     A
C604   C951    1.417   1_545 S
C605   N625    1.367   .     A
C605   H619    1.082   .     S
C605   C776    1.417   .     S
C606   O638    1.385   .     S
Cu607  N625    2.014   .     S
Cu607  O634    1.957   .     S
Cu607  O627    1.957   .     S
Cu607  O632    1.957   .     S
Cu607  Cu608   2.680   .     S
Cu607  O636    1.956   .     S
Cu608  O637    1.956   .     S
Cu608  O633    1.957   .     S
Cu608  N626    2.014   .     S
Cu608  O635    1.957   .     S
Cu608  O631    1.957   .     S
H613   O638    0.988   .     S
H614   O628    0.988   .     S
H615   O629    0.988   .     S
H616   O630    0.988   .     S
C639   C657    1.443   .     S
C639   O691    1.288   .     A
C639   O685    1.288   .     A
C640   C656    1.415   .     A
C640   O686    1.385   .     S
C640   C526    1.389   1_655 S
C641   O687    1.385   .     S
C641   C656    1.415   .     A
C641   C548    1.389   1_655 S
C642   C657    1.415   .     A
C642   O688    1.385   .     S
C643   C647    1.390   .     A
C643   H678    1.083   .     S
C643   C654    1.404   .     A
C644   C648    1.390   .     A
C644   C655    1.404   .     A
C644   H679    1.083   .     S
C645   C649    1.390   .     A
C645   H680    1.083   .     S
C645   C655    1.404   .     A
C646   C651    1.390   .     A
C646   H681    1.083   .     S
C646   C654    1.404   .     A
C647   C652    1.402   .     A
C647   H682    1.083   .     S
C648   H668    1.083   .     S
C648   C653    1.402   .     A
C649   H669    1.083   .     S
C649   C653    1.402   .     A
C650   O690    1.288   .     A
C650   O689    1.288   .     A
C650   C656    1.443   .     S
C651   H670    1.083   .     S
C651   C652    1.402   .     A
C652   C658    1.460   .     S
C653   C659    1.460   .     S
C655   C132    1.470   1_556 S
C657   C664    1.415   .     A
C658   O692    1.294   .     A
C658   O695    1.294   .     A
C659   O694    1.294   .     A
C659   O693    1.294   .     A
C660   H667    1.082   .     S
C660   N684    1.367   .     A
C660   C1011   1.417   1_545 S
C661   N683    1.367   .     A
C661   H675    1.082   .     S
C661   C836    1.417   .     S
C662   H676    1.082   .     S
C662   N684    1.367   .     A
C662   C1009   1.417   1_545 S
C663   N683    1.367   .     A
C663   H677    1.082   .     S
C663   C834    1.417   .     S
C664   O696    1.385   .     S
Cu665  N683    2.014   .     S
Cu665  O692    1.957   .     S
Cu665  O685    1.957   .     S
Cu665  O690    1.957   .     S
Cu665  Cu666   2.680   .     S
Cu665  O694    1.956   .     S
Cu666  O695    1.956   .     S
Cu666  O691    1.957   .     S
Cu666  N684    2.014   .     S
Cu666  O693    1.957   .     S
Cu666  O689    1.957   .     S
H671   O696    0.988   .     S
H672   O686    0.988   .     S
H673   O687    0.988   .     S
H674   O688    0.988   .     S
C697   C715    1.443   .     S
C697   O749    1.288   .     A
C697   O743    1.288   .     A
C698   C714    1.415   .     A
C698   O744    1.385   .     S
C698   C758    1.389   .     S
C699   O745    1.385   .     S
C699   C714    1.415   .     A
C699   C780    1.389   .     S
C700   C715    1.415   .     A
C700   O746    1.385   .     S
C700   C814    1.389   1_455 S
C701   C705    1.390   .     A
C701   H736    1.083   .     S
C701   C712    1.404   .     A
C702   C706    1.390   .     A
C702   C713    1.404   .     A
C702   H737    1.083   .     S
C703   C707    1.390   .     A
C703   H738    1.083   .     S
C703   C713    1.404   .     A
C704   C709    1.390   .     A
C704   H739    1.083   .     S
C704   C712    1.404   .     A
C705   C710    1.402   .     A
C705   H740    1.083   .     S
C706   H726    1.083   .     S
C706   C711    1.402   .     A
C707   H727    1.083   .     S
C707   C711    1.402   .     A
C708   O748    1.288   .     A
C708   O747    1.288   .     A
C708   C714    1.443   .     S
C709   H728    1.083   .     S
C709   C710    1.402   .     A
C710   C716    1.460   .     S
C711   C717    1.460   .     S
C713   C190    1.470   1_556 S
C715   C722    1.415   .     A
C716   O750    1.294   .     A
C716   O753    1.294   .     A
C717   O752    1.294   .     A
C717   O751    1.294   .     A
C718   H725    1.082   .     S
C718   N742    1.367   .     A
C719   N741    1.367   .     A
C719   H733    1.082   .     S
C719   C894    1.417   .     S
C720   H734    1.082   .     S
C720   N742    1.367   .     A
C721   N741    1.367   .     A
C721   H735    1.082   .     S
C721   C892    1.417   .     S
C722   O754    1.385   .     S
C722   C815    1.389   1_455 S
Cu723  N741    2.014   .     S
Cu723  O750    1.957   .     S
Cu723  O743    1.957   .     S
Cu723  O748    1.957   .     S
Cu723  Cu724   2.680   .     S
Cu723  O752    1.956   .     S
Cu724  O753    1.956   .     S
Cu724  O749    1.957   .     S
Cu724  N742    2.014   .     S
Cu724  O751    1.957   .     S
Cu724  O747    1.957   .     S
H729   O754    0.988   .     S
H730   O744    0.988   .     S
H731   O745    0.988   .     S
H732   O746    0.988   .     S
C755   C773    1.443   .     S
C755   O807    1.288   .     A
C755   O801    1.288   .     A
C756   C772    1.415   .     A
C756   O802    1.385   .     S
C756   C816    1.389   .     S
C757   O803    1.385   .     S
C757   C772    1.415   .     A
C757   C838    1.389   .     S
C758   C773    1.415   .     A
C758   O804    1.385   .     S
C759   C763    1.390   .     A
C759   H794    1.083   .     S
C759   C770    1.404   .     A
C760   C764    1.390   .     A
C760   C771    1.404   .     A
C760   H795    1.083   .     S
C761   C765    1.390   .     A
C761   H796    1.083   .     S
C761   C771    1.404   .     A
C762   C767    1.390   .     A
C762   H797    1.083   .     S
C762   C770    1.404   .     A
C763   C768    1.402   .     A
C763   H798    1.083   .     S
C764   H784    1.083   .     S
C764   C769    1.402   .     A
C765   H785    1.083   .     S
C765   C769    1.402   .     A
C766   O806    1.288   .     A
C766   O805    1.288   .     A
C766   C772    1.443   .     S
C767   H786    1.083   .     S
C767   C768    1.402   .     A
C768   C774    1.460   .     S
C769   C775    1.460   .     S
C771   C248    1.470   1_556 S
C773   C780    1.415   .     A
C774   O808    1.294   .     A
C774   O811    1.294   .     A
C775   O810    1.294   .     A
C775   O809    1.294   .     A
C776   H783    1.082   .     S
C776   N800    1.367   .     A
C777   N799    1.367   .     A
C777   H791    1.082   .     S
C777   C952    1.417   .     S
C778   H792    1.082   .     S
C778   N800    1.367   .     A
C779   N799    1.367   .     A
C779   H793    1.082   .     S
C779   C950    1.417   .     S
C780   O812    1.385   .     S
Cu781  N799    2.014   .     S
Cu781  O808    1.957   .     S
Cu781  O801    1.957   .     S
Cu781  O806    1.957   .     S
Cu781  Cu782   2.680   .     S
Cu781  O810    1.956   .     S
Cu782  O811    1.956   .     S
Cu782  O807    1.957   .     S
Cu782  N800    2.014   .     S
Cu782  O809    1.957   .     S
Cu782  O805    1.957   .     S
H787   O812    0.988   .     S
H788   O802    0.988   .     S
H789   O803    0.988   .     S
H790   O804    0.988   .     S
C813   C831    1.443   .     S
C813   O865    1.288   .     A
C813   O859    1.288   .     A
C814   C830    1.415   .     A
C814   O860    1.385   .     S
C814   C700    1.389   1_655 S
C815   O861    1.385   .     S
C815   C830    1.415   .     A
C815   C722    1.389   1_655 S
C816   C831    1.415   .     A
C816   O862    1.385   .     S
C817   C821    1.390   .     A
C817   H852    1.083   .     S
C817   C828    1.404   .     A
C818   C822    1.390   .     A
C818   C829    1.404   .     A
C818   H853    1.083   .     S
C819   C823    1.390   .     A
C819   H854    1.083   .     S
C819   C829    1.404   .     A
C820   C825    1.390   .     A
C820   H855    1.083   .     S
C820   C828    1.404   .     A
C821   C826    1.402   .     A
C821   H856    1.083   .     S
C822   H842    1.083   .     S
C822   C827    1.402   .     A
C823   H843    1.083   .     S
C823   C827    1.402   .     A
C824   O864    1.288   .     A
C824   O863    1.288   .     A
C824   C830    1.443   .     S
C825   H844    1.083   .     S
C825   C826    1.402   .     A
C826   C832    1.460   .     S
C827   C833    1.460   .     S
C829   C306    1.470   1_556 S
C831   C838    1.415   .     A
C832   O866    1.294   .     A
C832   O869    1.294   .     A
C833   O868    1.294   .     A
C833   O867    1.294   .     A
C834   H841    1.082   .     S
C834   N858    1.367   .     A
C835   N857    1.367   .     A
C835   H849    1.082   .     S
C835   C1010   1.417   .     S
C836   H850    1.082   .     S
C836   N858    1.367   .     A
C837   N857    1.367   .     A
C837   H851    1.082   .     S
C837   C1008   1.417   .     S
C838   O870    1.385   .     S
Cu839  N857    2.014   .     S
Cu839  O866    1.957   .     S
Cu839  O859    1.957   .     S
Cu839  O864    1.957   .     S
Cu839  Cu840   2.680   .     S
Cu839  O868    1.956   .     S
Cu840  O869    1.956   .     S
Cu840  O865    1.957   .     S
Cu840  N858    2.014   .     S
Cu840  O867    1.957   .     S
Cu840  O863    1.957   .     S
H845   O870    0.988   .     S
H846   O860    0.988   .     S
H847   O861    0.988   .     S
H848   O862    0.988   .     S
C871   C889    1.443   .     S
C871   O923    1.288   .     A
C871   O917    1.288   .     A
C872   C888    1.415   .     A
C872   O918    1.385   .     S
C872   C932    1.389   .     S
C873   O919    1.385   .     S
C873   C888    1.415   .     A
C873   C954    1.389   .     S
C874   C889    1.415   .     A
C874   O920    1.385   .     S
C874   C988    1.389   1_455 S
C875   C879    1.390   .     A
C875   H910    1.083   .     S
C875   C886    1.404   .     A
C876   C880    1.390   .     A
C876   C887    1.404   .     A
C876   H911    1.083   .     S
C877   C881    1.390   .     A
C877   H912    1.083   .     S
C877   C887    1.404   .     A
C878   C883    1.390   .     A
C878   H913    1.083   .     S
C878   C886    1.404   .     A
C879   C884    1.402   .     A
C879   H914    1.083   .     S
C880   H900    1.083   .     S
C880   C885    1.402   .     A
C881   H901    1.083   .     S
C881   C885    1.402   .     A
C882   O922    1.288   .     A
C882   O921    1.288   .     A
C882   C888    1.443   .     S
C883   H902    1.083   .     S
C883   C884    1.402   .     A
C884   C890    1.460   .     S
C885   C891    1.460   .     S
C887   C364    1.470   1_556 S
C889   C896    1.415   .     A
C890   O924    1.294   .     A
C890   O927    1.294   .     A
C891   O926    1.294   .     A
C891   O925    1.294   .     A
C892   H899    1.082   .     S
C892   N916    1.367   .     A
C893   N915    1.367   .     A
C893   H907    1.082   .     S
C893   C546    1.417   1_565 S
C894   H908    1.082   .     S
C894   N916    1.367   .     A
C895   N915    1.367   .     A
C895   H909    1.082   .     S
C895   C544    1.417   1_565 S
C896   O928    1.385   .     S
C896   C989    1.389   1_455 S
Cu897  N915    2.014   .     S
Cu897  O924    1.957   .     S
Cu897  O917    1.957   .     S
Cu897  O922    1.957   .     S
Cu897  Cu898   2.680   .     S
Cu897  O926    1.956   .     S
Cu898  O927    1.956   .     S
Cu898  O923    1.957   .     S
Cu898  N916    2.014   .     S
Cu898  O925    1.957   .     S
Cu898  O921    1.957   .     S
H903   O928    0.988   .     S
H904   O918    0.988   .     S
H905   O919    0.988   .     S
H906   O920    0.988   .     S
C929   C947    1.443   .     S
C929   O981    1.288   .     A
C929   O975    1.288   .     A
C930   C946    1.415   .     A
C930   O976    1.385   .     S
C930   C990    1.389   .     S
C931   O977    1.385   .     S
C931   C946    1.415   .     A
C931   C1012   1.389   .     S
C932   C947    1.415   .     A
C932   O978    1.385   .     S
C933   C937    1.390   .     A
C933   H968    1.083   .     S
C933   C944    1.404   .     A
C934   C938    1.390   .     A
C934   C945    1.404   .     A
C934   H969    1.083   .     S
C935   C939    1.390   .     A
C935   H970    1.083   .     S
C935   C945    1.404   .     A
C936   C941    1.390   .     A
C936   H971    1.083   .     S
C936   C944    1.404   .     A
C937   C942    1.402   .     A
C937   H972    1.083   .     S
C938   H958    1.083   .     S
C938   C943    1.402   .     A
C939   H959    1.083   .     S
C939   C943    1.402   .     A
C940   O980    1.288   .     A
C940   O979    1.288   .     A
C940   C946    1.443   .     S
C941   H960    1.083   .     S
C941   C942    1.402   .     A
C942   C948    1.460   .     S
C943   C949    1.460   .     S
C945   C422    1.470   1_556 S
C947   C954    1.415   .     A
C948   O982    1.294   .     A
C948   O985    1.294   .     A
C949   O984    1.294   .     A
C949   O983    1.294   .     A
C950   H957    1.082   .     S
C950   N974    1.367   .     A
C951   N973    1.367   .     A
C951   H965    1.082   .     S
C951   C604    1.417   1_565 S
C952   H966    1.082   .     S
C952   N974    1.367   .     A
C953   N973    1.367   .     A
C953   H967    1.082   .     S
C953   C602    1.417   1_565 S
C954   O986    1.385   .     S
Cu955  N973    2.014   .     S
Cu955  O982    1.957   .     S
Cu955  O975    1.957   .     S
Cu955  O980    1.957   .     S
Cu955  Cu956   2.680   .     S
Cu955  O984    1.956   .     S
Cu956  O985    1.956   .     S
Cu956  O981    1.957   .     S
Cu956  N974    2.014   .     S
Cu956  O983    1.957   .     S
Cu956  O979    1.957   .     S
H961   O986    0.988   .     S
H962   O976    0.988   .     S
H963   O977    0.988   .     S
H964   O978    0.988   .     S
C987   C1005   1.443   .     S
C987   O1039   1.288   .     A
C987   O1033   1.288   .     A
C988   C1004   1.415   .     A
C988   O1034   1.385   .     S
C988   C874    1.389   1_655 S
C989   O1035   1.385   .     S
C989   C1004   1.415   .     A
C989   C896    1.389   1_655 S
C990   C1005   1.415   .     A
C990   O1036   1.385   .     S
C991   C995    1.390   .     A
C991   H1026   1.083   .     S
C991   C1002   1.404   .     A
C992   C996    1.390   .     A
C992   C1003   1.404   .     A
C992   H1027   1.083   .     S
C993   C997    1.390   .     A
C993   H1028   1.083   .     S
C993   C1003   1.404   .     A
C994   C999    1.390   .     A
C994   H1029   1.083   .     S
C994   C1002   1.404   .     A
C995   C1000   1.402   .     A
C995   H1030   1.083   .     S
C996   H1016   1.083   .     S
C996   C1001   1.402   .     A
C997   H1017   1.083   .     S
C997   C1001   1.402   .     A
C998   O1038   1.288   .     A
C998   O1037   1.288   .     A
C998   C1004   1.443   .     S
C999   H1018   1.083   .     S
C999   C1000   1.402   .     A
C1000  C1006   1.460   .     S
C1001  C1007   1.460   .     S
C1003  C480    1.470   1_556 S
C1005  C1012   1.415   .     A
C1006  O1040   1.294   .     A
C1006  O1043   1.294   .     A
C1007  O1042   1.294   .     A
C1007  O1041   1.294   .     A
C1008  H1015   1.082   .     S
C1008  N1032   1.367   .     A
C1009  N1031   1.367   .     A
C1009  H1023   1.082   .     S
C1009  C662    1.417   1_565 S
C1010  H1024   1.082   .     S
C1010  N1032   1.367   .     A
C1011  N1031   1.367   .     A
C1011  H1025   1.082   .     S
C1011  C660    1.417   1_565 S
C1012  O1044   1.385   .     S
Cu1013 N1031   2.014   .     S
Cu1013 O1040   1.957   .     S
Cu1013 O1033   1.957   .     S
Cu1013 O1038   1.957   .     S
Cu1013 Cu1014  2.680   .     S
Cu1013 O1042   1.956   .     S
Cu1014 O1043   1.956   .     S
Cu1014 O1039   1.957   .     S
Cu1014 N1032   2.014   .     S
Cu1014 O1041   1.957   .     S
Cu1014 O1037   1.957   .     S
H1019  O1044   0.988   .     S
H1020  O1034   0.988   .     S
H1021  O1035   0.988   .     S
H1022  O1036   0.988   .     S
