data_str_m2_o1_o16_pcu_sym.213
_audit_creation_date              2020-01-03
_audit_creation_method            'Materials Studio'
_symmetry_space_group_name_H-M    'P1'
_symmetry_Int_Tables_number       1
_symmetry_cell_setting            triclinic
loop_
_symmetry_equiv_pos_as_xyz
  x,y,z
_cell_length_a                    30.2294
_cell_length_b                    34.5534
_cell_length_c                    28.5574
_cell_angle_alpha                 99.3770
_cell_angle_beta                  71.4436
_cell_angle_gamma                 90.6712
loop_
_atom_site_label
_atom_site_type_symbol
_atom_site_fract_x
_atom_site_fract_y
_atom_site_fract_z
_atom_site_U_iso_or_equiv
_atom_site_adp_type
_atom_site_occupancy
C1     C     0.16676   0.24554   0.24951   0.00000  Uiso   1.00
C2     C     0.14867   0.16755   0.48579   0.00000  Uiso   1.00
C3     C     0.16352   0.16724   0.43206   0.00000  Uiso   1.00
C4     C     0.18423   0.16727   0.01350   0.00000  Uiso   1.00
C5     C     0.23356   0.16627   0.48625   0.00000  Uiso   1.00
C6     C     0.24729   0.16539   0.43411   0.00000  Uiso   1.00
C7     C     0.21433   0.16855   0.40875   0.00000  Uiso   1.00
C8     C     0.17211   0.16805   0.06747   0.00000  Uiso   1.00
C9     C     0.25371   0.16822   0.06516   0.00000  Uiso   1.00
C10    C     0.12756   0.16587   0.40551   0.00000  Uiso   1.00
C11    C     0.20797   0.31296   0.24833   0.00000  Uiso   1.00
C12    C     0.14090   0.16581   0.34874   0.00000  Uiso   1.00
C13    C     0.20951   0.02223   0.25013   0.00000  Uiso   1.00
C14    C     0.16727   0.04314   0.25142   0.00000  Uiso   1.00
C15    C     0.12614   0.02124   0.25174   0.00000  Uiso   1.00
C16    C     0.12665   0.31338   0.25094   0.00000  Uiso   1.00
C17    C     0.16680   0.29093   0.24876   0.00000  Uiso   1.00
C18    C     0.30357   0.19683   0.27293   0.00000  Uiso   1.00
C19    C     0.01630   0.19468   0.28171   0.00000  Uiso   1.00
C20    C     0.03434   0.13905   0.21583   0.00000  Uiso   1.00
C21    C     0.31752   0.13924   0.21636   0.00000  Uiso   1.00
C22    C     0.16655   0.08791   0.25037   0.00000  Uiso   1.00
C23    C     0.19227   0.16761   0.15124   0.00000  Uiso   1.00
C24    C     0.26730   0.16593   0.01255   0.00000  Uiso   1.00
C25    C     0.20613   0.16829   0.09421   0.00000  Uiso   1.00
C26    C     0.07946   0.16518   0.43445   0.00000  Uiso   1.00
C27    C     0.06552   0.16860   0.48602   0.00000  Uiso   1.00
C28    C     0.09872   0.16933   0.01064   0.00000  Uiso   1.00
Cu29   Cu    0.11978   0.16666   0.25000   0.00000  Uiso   1.00
Cu30   Cu    0.21355   0.16667   0.25000   0.00000  Uiso   1.00
H31    H     0.28031   0.16884   0.08316   0.00000  Uiso   1.00
H32    H     0.09406   0.03568   0.25405   0.00000  Uiso   1.00
H33    H     0.28995   0.22318   0.27411   0.00000  Uiso   1.00
H34    H     0.28416   0.16493   0.41279   0.00000  Uiso   1.00
H35    H     0.30388   0.16323   0.49065   0.00000  Uiso   1.00
H36    H     0.13554   0.16881   0.08914   0.00000  Uiso   1.00
H37    H     0.05288   0.16382   0.41662   0.00000  Uiso   1.00
H38    H     0.08445   0.17176   0.05022   0.00000  Uiso   1.00
H39    H     0.02934   0.17139   0.00884   0.00000  Uiso   1.00
N40    N     0.04931   0.16666   0.24999   0.00000  Uiso   1.00
N41    N     0.28402   0.16669   0.24999   0.00000  Uiso   1.00
O42    O     0.12708   0.22678   0.25000   0.00000  Uiso   1.00
O43    O     0.20627   0.22679   0.25000   0.00000  Uiso   1.00
O44    O     0.10775   0.16665   0.32549   0.00000  Uiso   1.00
O45    O     0.18694   0.16666   0.32549   0.00000  Uiso   1.00
O46    O     0.12706   0.10654   0.24999   0.00000  Uiso   1.00
O47    O     0.20625   0.10655   0.24999   0.00000  Uiso   1.00
O48    O     0.14640   0.16667   0.17451   0.00000  Uiso   1.00
O49    O     0.22559   0.16668   0.17451   0.00000  Uiso   1.00
C50    C     0.25677   0.04202   0.25413   0.00000  Uiso   1.00
O51    O     0.26519   0.07557   0.25498   0.00000  Uiso   1.00
O52    O     0.29508   0.02032   0.25059   0.00000  Uiso   1.00
H53    H     0.32326   0.03417   0.24974   0.00000  Uiso   1.00
H54    H     0.09470   0.29916   0.25004   0.00000  Uiso   1.00
C55    C     0.03191   0.22393   0.31842   0.00000  Uiso   1.00
O56    O     0.07182   0.22300   0.32065   0.00000  Uiso   1.00
O57    O     0.33192   0.25120   0.35386   0.00000  Uiso   1.00
H58    H     0.00938   0.27080   0.37676   0.00000  Uiso   1.00
H59    H     0.05952   0.11706   0.18897   0.00000  Uiso   1.00
C60    C     0.30157   0.11055   0.17973   0.00000  Uiso   1.00
O61    O     0.26139   0.11057   0.17889   0.00000  Uiso   1.00
O62    O     0.00142   0.08281   0.14503   0.00000  Uiso   1.00
H63    H     0.32362   0.06257   0.12288   0.00000  Uiso   1.00
C64    C     0.24114   0.16723   0.36012   0.00000  Uiso   1.00
O65    O     0.24043   0.19977   0.34468   0.00000  Uiso   1.00
O66    O     0.25778   0.13194   0.33060   0.00000  Uiso   1.00
H67    H     0.25220   0.14245   0.30689   0.00000  Uiso   1.00
H68    H     0.23914   0.29752   0.24606   0.00000  Uiso   1.00
C69    C     0.50009   0.24554   0.24951   0.00000  Uiso   1.00
C70    C     0.48200   0.16755   0.48579   0.00000  Uiso   1.00
C71    C     0.49686   0.16724   0.43206   0.00000  Uiso   1.00
C72    C     0.51756   0.16727   0.01350   0.00000  Uiso   1.00
C73    C     0.56690   0.16627   0.48625   0.00000  Uiso   1.00
C74    C     0.58062   0.16539   0.43411   0.00000  Uiso   1.00
C75    C     0.54766   0.16855   0.40875   0.00000  Uiso   1.00
C76    C     0.50545   0.16805   0.06747   0.00000  Uiso   1.00
C77    C     0.58704   0.16822   0.06516   0.00000  Uiso   1.00
C78    C     0.46090   0.16587   0.40551   0.00000  Uiso   1.00
C79    C     0.54130   0.31296   0.24833   0.00000  Uiso   1.00
C80    C     0.47423   0.16581   0.34874   0.00000  Uiso   1.00
C81    C     0.54284   0.02223   0.25013   0.00000  Uiso   1.00
C82    C     0.50061   0.04314   0.25142   0.00000  Uiso   1.00
C83    C     0.45948   0.02124   0.25174   0.00000  Uiso   1.00
C84    C     0.45998   0.31338   0.25094   0.00000  Uiso   1.00
C85    C     0.50014   0.29093   0.24876   0.00000  Uiso   1.00
C86    C     0.63691   0.19683   0.27293   0.00000  Uiso   1.00
C87    C     0.34963   0.19468   0.28171   0.00000  Uiso   1.00
C88    C     0.36767   0.13905   0.21583   0.00000  Uiso   1.00
C89    C     0.65085   0.13924   0.21636   0.00000  Uiso   1.00
C90    C     0.49988   0.08791   0.25037   0.00000  Uiso   1.00
C91    C     0.52561   0.16761   0.15124   0.00000  Uiso   1.00
C92    C     0.60063   0.16593   0.01255   0.00000  Uiso   1.00
C93    C     0.53947   0.16829   0.09421   0.00000  Uiso   1.00
C94    C     0.41280   0.16518   0.43445   0.00000  Uiso   1.00
C95    C     0.39885   0.16860   0.48602   0.00000  Uiso   1.00
C96    C     0.43205   0.16933   0.01064   0.00000  Uiso   1.00
Cu97   Cu    0.45311   0.16666   0.25000   0.00000  Uiso   1.00
Cu98   Cu    0.54689   0.16667   0.25000   0.00000  Uiso   1.00
H99    H     0.61365   0.16884   0.08316   0.00000  Uiso   1.00
H100   H     0.42739   0.03568   0.25405   0.00000  Uiso   1.00
H101   H     0.62328   0.22318   0.27411   0.00000  Uiso   1.00
H102   H     0.61750   0.16493   0.41279   0.00000  Uiso   1.00
H103   H     0.63721   0.16323   0.49065   0.00000  Uiso   1.00
H104   H     0.46888   0.16881   0.08914   0.00000  Uiso   1.00
H105   H     0.38622   0.16382   0.41662   0.00000  Uiso   1.00
H106   H     0.41778   0.17176   0.05022   0.00000  Uiso   1.00
H107   H     0.36268   0.17139   0.00884   0.00000  Uiso   1.00
N108   N     0.38265   0.16666   0.24999   0.00000  Uiso   1.00
N109   N     0.61735   0.16669   0.24999   0.00000  Uiso   1.00
O110   O     0.46042   0.22678   0.25000   0.00000  Uiso   1.00
O111   O     0.53961   0.22679   0.25000   0.00000  Uiso   1.00
O112   O     0.44108   0.16665   0.32549   0.00000  Uiso   1.00
O113   O     0.52027   0.16666   0.32549   0.00000  Uiso   1.00
O114   O     0.46039   0.10654   0.24999   0.00000  Uiso   1.00
O115   O     0.53958   0.10655   0.24999   0.00000  Uiso   1.00
O116   O     0.47973   0.16667   0.17451   0.00000  Uiso   1.00
O117   O     0.55892   0.16668   0.17451   0.00000  Uiso   1.00
C118   C     0.59011   0.04202   0.25413   0.00000  Uiso   1.00
O119   O     0.59852   0.07557   0.25498   0.00000  Uiso   1.00
O120   O     0.62841   0.02032   0.25059   0.00000  Uiso   1.00
H121   H     0.65659   0.03417   0.24974   0.00000  Uiso   1.00
H122   H     0.42803   0.29916   0.25004   0.00000  Uiso   1.00
C123   C     0.36524   0.22393   0.31842   0.00000  Uiso   1.00
O124   O     0.40515   0.22300   0.32065   0.00000  Uiso   1.00
O125   O     0.66525   0.25120   0.35386   0.00000  Uiso   1.00
H126   H     0.34271   0.27080   0.37676   0.00000  Uiso   1.00
H127   H     0.39285   0.11706   0.18897   0.00000  Uiso   1.00
C128   C     0.63491   0.11055   0.17973   0.00000  Uiso   1.00
O129   O     0.59472   0.11057   0.17889   0.00000  Uiso   1.00
O130   O     0.33475   0.08281   0.14503   0.00000  Uiso   1.00
H131   H     0.65695   0.06257   0.12288   0.00000  Uiso   1.00
C132   C     0.57447   0.16723   0.36012   0.00000  Uiso   1.00
O133   O     0.57376   0.19977   0.34468   0.00000  Uiso   1.00
O134   O     0.59112   0.13194   0.33060   0.00000  Uiso   1.00
H135   H     0.58554   0.14245   0.30689   0.00000  Uiso   1.00
H136   H     0.57247   0.29752   0.24606   0.00000  Uiso   1.00
C137   C     0.83342   0.24554   0.24951   0.00000  Uiso   1.00
C138   C     0.81534   0.16755   0.48579   0.00000  Uiso   1.00
C139   C     0.83019   0.16724   0.43206   0.00000  Uiso   1.00
C140   C     0.85089   0.16727   0.01350   0.00000  Uiso   1.00
C141   C     0.90023   0.16627   0.48625   0.00000  Uiso   1.00
C142   C     0.91396   0.16539   0.43411   0.00000  Uiso   1.00
C143   C     0.88100   0.16855   0.40875   0.00000  Uiso   1.00
C144   C     0.83878   0.16805   0.06747   0.00000  Uiso   1.00
C145   C     0.92037   0.16822   0.06516   0.00000  Uiso   1.00
C146   C     0.79423   0.16587   0.40551   0.00000  Uiso   1.00
C147   C     0.87463   0.31296   0.24833   0.00000  Uiso   1.00
C148   C     0.80756   0.16581   0.34874   0.00000  Uiso   1.00
C149   C     0.87618   0.02223   0.25013   0.00000  Uiso   1.00
C150   C     0.83394   0.04314   0.25142   0.00000  Uiso   1.00
C151   C     0.79281   0.02124   0.25174   0.00000  Uiso   1.00
C152   C     0.79331   0.31338   0.25094   0.00000  Uiso   1.00
C153   C     0.83347   0.29093   0.24876   0.00000  Uiso   1.00
C154   C     0.97024   0.19683   0.27293   0.00000  Uiso   1.00
C155   C     0.68296   0.19468   0.28171   0.00000  Uiso   1.00
C156   C     0.70101   0.13905   0.21583   0.00000  Uiso   1.00
C157   C     0.98419   0.13924   0.21636   0.00000  Uiso   1.00
C158   C     0.83322   0.08791   0.25037   0.00000  Uiso   1.00
C159   C     0.85894   0.16761   0.15124   0.00000  Uiso   1.00
C160   C     0.93397   0.16593   0.01255   0.00000  Uiso   1.00
C161   C     0.87280   0.16829   0.09421   0.00000  Uiso   1.00
C162   C     0.74613   0.16518   0.43445   0.00000  Uiso   1.00
C163   C     0.73219   0.16860   0.48602   0.00000  Uiso   1.00
C164   C     0.76539   0.16933   0.01064   0.00000  Uiso   1.00
Cu165  Cu    0.78645   0.16666   0.25000   0.00000  Uiso   1.00
Cu166  Cu    0.88022   0.16667   0.25000   0.00000  Uiso   1.00
H167   H     0.94698   0.16884   0.08316   0.00000  Uiso   1.00
H168   H     0.76073   0.03568   0.25405   0.00000  Uiso   1.00
H169   H     0.95661   0.22318   0.27411   0.00000  Uiso   1.00
H170   H     0.95083   0.16493   0.41279   0.00000  Uiso   1.00
H171   H     0.97055   0.16323   0.49065   0.00000  Uiso   1.00
H172   H     0.80221   0.16881   0.08914   0.00000  Uiso   1.00
H173   H     0.71955   0.16382   0.41662   0.00000  Uiso   1.00
H174   H     0.75111   0.17176   0.05022   0.00000  Uiso   1.00
H175   H     0.69601   0.17139   0.00884   0.00000  Uiso   1.00
N176   N     0.71598   0.16666   0.24999   0.00000  Uiso   1.00
N177   N     0.95069   0.16669   0.24999   0.00000  Uiso   1.00
O178   O     0.79375   0.22678   0.25000   0.00000  Uiso   1.00
O179   O     0.87294   0.22679   0.25000   0.00000  Uiso   1.00
O180   O     0.77441   0.16665   0.32549   0.00000  Uiso   1.00
O181   O     0.85360   0.16666   0.32549   0.00000  Uiso   1.00
O182   O     0.79373   0.10654   0.24999   0.00000  Uiso   1.00
O183   O     0.87292   0.10655   0.24999   0.00000  Uiso   1.00
O184   O     0.81306   0.16667   0.17451   0.00000  Uiso   1.00
O185   O     0.89225   0.16668   0.17451   0.00000  Uiso   1.00
C186   C     0.92344   0.04202   0.25413   0.00000  Uiso   1.00
O187   O     0.93186   0.07557   0.25498   0.00000  Uiso   1.00
O188   O     0.96174   0.02032   0.25059   0.00000  Uiso   1.00
H189   H     0.98993   0.03417   0.24974   0.00000  Uiso   1.00
H190   H     0.76136   0.29916   0.25004   0.00000  Uiso   1.00
C191   C     0.69857   0.22393   0.31842   0.00000  Uiso   1.00
O192   O     0.73849   0.22300   0.32065   0.00000  Uiso   1.00
O193   O     0.99859   0.25120   0.35386   0.00000  Uiso   1.00
H194   H     0.67604   0.27080   0.37676   0.00000  Uiso   1.00
H195   H     0.72619   0.11706   0.18897   0.00000  Uiso   1.00
C196   C     0.96824   0.11055   0.17973   0.00000  Uiso   1.00
O197   O     0.92806   0.11057   0.17889   0.00000  Uiso   1.00
O198   O     0.66809   0.08281   0.14503   0.00000  Uiso   1.00
H199   H     0.99029   0.06257   0.12288   0.00000  Uiso   1.00
C200   C     0.90781   0.16723   0.36012   0.00000  Uiso   1.00
O201   O     0.90710   0.19977   0.34468   0.00000  Uiso   1.00
O202   O     0.92445   0.13194   0.33060   0.00000  Uiso   1.00
H203   H     0.91887   0.14245   0.30689   0.00000  Uiso   1.00
H204   H     0.90581   0.29752   0.24606   0.00000  Uiso   1.00
C205   C     0.16676   0.57888   0.24951   0.00000  Uiso   1.00
C206   C     0.14867   0.50088   0.48579   0.00000  Uiso   1.00
C207   C     0.16352   0.50058   0.43206   0.00000  Uiso   1.00
C208   C     0.18423   0.50060   0.01350   0.00000  Uiso   1.00
C209   C     0.23356   0.49960   0.48625   0.00000  Uiso   1.00
C210   C     0.24729   0.49872   0.43411   0.00000  Uiso   1.00
C211   C     0.21433   0.50188   0.40875   0.00000  Uiso   1.00
C212   C     0.17211   0.50138   0.06747   0.00000  Uiso   1.00
C213   C     0.25371   0.50156   0.06516   0.00000  Uiso   1.00
C214   C     0.12756   0.49921   0.40551   0.00000  Uiso   1.00
C215   C     0.20797   0.64630   0.24833   0.00000  Uiso   1.00
C216   C     0.14090   0.49914   0.34874   0.00000  Uiso   1.00
C217   C     0.20951   0.35557   0.25013   0.00000  Uiso   1.00
C218   C     0.16727   0.37647   0.25142   0.00000  Uiso   1.00
C219   C     0.12614   0.35457   0.25174   0.00000  Uiso   1.00
C220   C     0.12665   0.64671   0.25094   0.00000  Uiso   1.00
C221   C     0.16680   0.62427   0.24876   0.00000  Uiso   1.00
C222   C     0.30357   0.53016   0.27293   0.00000  Uiso   1.00
C223   C     0.01630   0.52801   0.28171   0.00000  Uiso   1.00
C224   C     0.03434   0.47238   0.21583   0.00000  Uiso   1.00
C225   C     0.31752   0.47257   0.21636   0.00000  Uiso   1.00
C226   C     0.16655   0.42124   0.25037   0.00000  Uiso   1.00
C227   C     0.19227   0.50095   0.15124   0.00000  Uiso   1.00
C228   C     0.26730   0.49927   0.01255   0.00000  Uiso   1.00
C229   C     0.20613   0.50162   0.09421   0.00000  Uiso   1.00
C230   C     0.07946   0.49851   0.43445   0.00000  Uiso   1.00
C231   C     0.06552   0.50193   0.48602   0.00000  Uiso   1.00
C232   C     0.09872   0.50266   0.01064   0.00000  Uiso   1.00
Cu233  Cu    0.11978   0.49999   0.25000   0.00000  Uiso   1.00
Cu234  Cu    0.21355   0.50001   0.25000   0.00000  Uiso   1.00
H235   H     0.28031   0.50217   0.08316   0.00000  Uiso   1.00
H236   H     0.09406   0.36902   0.25405   0.00000  Uiso   1.00
H237   H     0.28995   0.55651   0.27411   0.00000  Uiso   1.00
H238   H     0.28416   0.49827   0.41279   0.00000  Uiso   1.00
H239   H     0.30388   0.49656   0.49065   0.00000  Uiso   1.00
H240   H     0.13554   0.50214   0.08914   0.00000  Uiso   1.00
H241   H     0.05288   0.49715   0.41662   0.00000  Uiso   1.00
H242   H     0.08445   0.50509   0.05022   0.00000  Uiso   1.00
H243   H     0.02934   0.50473   0.00884   0.00000  Uiso   1.00
N244   N     0.04931   0.49999   0.24999   0.00000  Uiso   1.00
N245   N     0.28402   0.50002   0.24999   0.00000  Uiso   1.00
O246   O     0.12708   0.56011   0.25000   0.00000  Uiso   1.00
O247   O     0.20627   0.56012   0.25000   0.00000  Uiso   1.00
O248   O     0.10775   0.49998   0.32549   0.00000  Uiso   1.00
O249   O     0.18694   0.49999   0.32549   0.00000  Uiso   1.00
O250   O     0.12706   0.43988   0.24999   0.00000  Uiso   1.00
O251   O     0.20625   0.43989   0.24999   0.00000  Uiso   1.00
O252   O     0.14640   0.50001   0.17451   0.00000  Uiso   1.00
O253   O     0.22559   0.50002   0.17451   0.00000  Uiso   1.00
C254   C     0.25677   0.37535   0.25413   0.00000  Uiso   1.00
O255   O     0.26519   0.40891   0.25498   0.00000  Uiso   1.00
O256   O     0.29508   0.35365   0.25059   0.00000  Uiso   1.00
H257   H     0.32326   0.36751   0.24974   0.00000  Uiso   1.00
H258   H     0.09470   0.63249   0.25004   0.00000  Uiso   1.00
C259   C     0.03191   0.55726   0.31842   0.00000  Uiso   1.00
O260   O     0.07182   0.55634   0.32065   0.00000  Uiso   1.00
O261   O     0.33192   0.58453   0.35386   0.00000  Uiso   1.00
H262   H     0.00938   0.60414   0.37676   0.00000  Uiso   1.00
H263   H     0.05952   0.45039   0.18897   0.00000  Uiso   1.00
C264   C     0.30157   0.44389   0.17973   0.00000  Uiso   1.00
O265   O     0.26139   0.44390   0.17889   0.00000  Uiso   1.00
O266   O     0.00142   0.41615   0.14503   0.00000  Uiso   1.00
H267   H     0.32362   0.39590   0.12288   0.00000  Uiso   1.00
C268   C     0.24114   0.50057   0.36012   0.00000  Uiso   1.00
O269   O     0.24043   0.53310   0.34468   0.00000  Uiso   1.00
O270   O     0.25778   0.46528   0.33060   0.00000  Uiso   1.00
H271   H     0.25220   0.47579   0.30689   0.00000  Uiso   1.00
H272   H     0.23914   0.63085   0.24606   0.00000  Uiso   1.00
C273   C     0.50009   0.57888   0.24951   0.00000  Uiso   1.00
C274   C     0.48200   0.50088   0.48579   0.00000  Uiso   1.00
C275   C     0.49686   0.50058   0.43206   0.00000  Uiso   1.00
C276   C     0.51756   0.50060   0.01350   0.00000  Uiso   1.00
C277   C     0.56690   0.49960   0.48625   0.00000  Uiso   1.00
C278   C     0.58062   0.49872   0.43411   0.00000  Uiso   1.00
C279   C     0.54766   0.50188   0.40875   0.00000  Uiso   1.00
C280   C     0.50545   0.50138   0.06747   0.00000  Uiso   1.00
C281   C     0.58704   0.50156   0.06516   0.00000  Uiso   1.00
C282   C     0.46090   0.49921   0.40551   0.00000  Uiso   1.00
C283   C     0.54130   0.64630   0.24833   0.00000  Uiso   1.00
C284   C     0.47423   0.49914   0.34874   0.00000  Uiso   1.00
C285   C     0.54284   0.35557   0.25013   0.00000  Uiso   1.00
C286   C     0.50061   0.37647   0.25142   0.00000  Uiso   1.00
C287   C     0.45948   0.35457   0.25174   0.00000  Uiso   1.00
C288   C     0.45998   0.64671   0.25094   0.00000  Uiso   1.00
C289   C     0.50014   0.62427   0.24876   0.00000  Uiso   1.00
C290   C     0.63691   0.53016   0.27293   0.00000  Uiso   1.00
C291   C     0.34963   0.52801   0.28171   0.00000  Uiso   1.00
C292   C     0.36767   0.47238   0.21583   0.00000  Uiso   1.00
C293   C     0.65085   0.47257   0.21636   0.00000  Uiso   1.00
C294   C     0.49988   0.42124   0.25037   0.00000  Uiso   1.00
C295   C     0.52561   0.50095   0.15124   0.00000  Uiso   1.00
C296   C     0.60063   0.49927   0.01255   0.00000  Uiso   1.00
C297   C     0.53947   0.50162   0.09421   0.00000  Uiso   1.00
C298   C     0.41280   0.49851   0.43445   0.00000  Uiso   1.00
C299   C     0.39885   0.50193   0.48602   0.00000  Uiso   1.00
C300   C     0.43205   0.50266   0.01064   0.00000  Uiso   1.00
Cu301  Cu    0.45311   0.49999   0.25000   0.00000  Uiso   1.00
Cu302  Cu    0.54689   0.50001   0.25000   0.00000  Uiso   1.00
H303   H     0.61365   0.50217   0.08316   0.00000  Uiso   1.00
H304   H     0.42739   0.36902   0.25405   0.00000  Uiso   1.00
H305   H     0.62328   0.55651   0.27411   0.00000  Uiso   1.00
H306   H     0.61750   0.49827   0.41279   0.00000  Uiso   1.00
H307   H     0.63721   0.49656   0.49065   0.00000  Uiso   1.00
H308   H     0.46888   0.50214   0.08914   0.00000  Uiso   1.00
H309   H     0.38622   0.49715   0.41662   0.00000  Uiso   1.00
H310   H     0.41778   0.50509   0.05022   0.00000  Uiso   1.00
H311   H     0.36268   0.50473   0.00884   0.00000  Uiso   1.00
N312   N     0.38265   0.49999   0.24999   0.00000  Uiso   1.00
N313   N     0.61735   0.50002   0.24999   0.00000  Uiso   1.00
O314   O     0.46042   0.56011   0.25000   0.00000  Uiso   1.00
O315   O     0.53961   0.56012   0.25000   0.00000  Uiso   1.00
O316   O     0.44108   0.49998   0.32549   0.00000  Uiso   1.00
O317   O     0.52027   0.49999   0.32549   0.00000  Uiso   1.00
O318   O     0.46039   0.43988   0.24999   0.00000  Uiso   1.00
O319   O     0.53958   0.43989   0.24999   0.00000  Uiso   1.00
O320   O     0.47973   0.50001   0.17451   0.00000  Uiso   1.00
O321   O     0.55892   0.50002   0.17451   0.00000  Uiso   1.00
C322   C     0.59011   0.37535   0.25413   0.00000  Uiso   1.00
O323   O     0.59852   0.40891   0.25498   0.00000  Uiso   1.00
O324   O     0.62841   0.35365   0.25059   0.00000  Uiso   1.00
H325   H     0.65659   0.36751   0.24974   0.00000  Uiso   1.00
H326   H     0.42803   0.63249   0.25004   0.00000  Uiso   1.00
C327   C     0.36524   0.55726   0.31842   0.00000  Uiso   1.00
O328   O     0.40515   0.55634   0.32065   0.00000  Uiso   1.00
O329   O     0.66525   0.58453   0.35386   0.00000  Uiso   1.00
H330   H     0.34271   0.60414   0.37676   0.00000  Uiso   1.00
H331   H     0.39285   0.45039   0.18897   0.00000  Uiso   1.00
C332   C     0.63491   0.44389   0.17973   0.00000  Uiso   1.00
O333   O     0.59472   0.44390   0.17889   0.00000  Uiso   1.00
O334   O     0.33475   0.41615   0.14503   0.00000  Uiso   1.00
H335   H     0.65695   0.39590   0.12288   0.00000  Uiso   1.00
C336   C     0.57447   0.50057   0.36012   0.00000  Uiso   1.00
O337   O     0.57376   0.53310   0.34468   0.00000  Uiso   1.00
O338   O     0.59112   0.46528   0.33060   0.00000  Uiso   1.00
H339   H     0.58554   0.47579   0.30689   0.00000  Uiso   1.00
H340   H     0.57247   0.63085   0.24606   0.00000  Uiso   1.00
C341   C     0.83342   0.57888   0.24951   0.00000  Uiso   1.00
C342   C     0.81534   0.50088   0.48579   0.00000  Uiso   1.00
C343   C     0.83019   0.50058   0.43206   0.00000  Uiso   1.00
C344   C     0.85089   0.50060   0.01350   0.00000  Uiso   1.00
C345   C     0.90023   0.49960   0.48625   0.00000  Uiso   1.00
C346   C     0.91396   0.49872   0.43411   0.00000  Uiso   1.00
C347   C     0.88100   0.50188   0.40875   0.00000  Uiso   1.00
C348   C     0.83878   0.50138   0.06747   0.00000  Uiso   1.00
C349   C     0.92037   0.50156   0.06516   0.00000  Uiso   1.00
C350   C     0.79423   0.49921   0.40551   0.00000  Uiso   1.00
C351   C     0.87463   0.64630   0.24833   0.00000  Uiso   1.00
C352   C     0.80756   0.49914   0.34874   0.00000  Uiso   1.00
C353   C     0.87618   0.35557   0.25013   0.00000  Uiso   1.00
C354   C     0.83394   0.37647   0.25142   0.00000  Uiso   1.00
C355   C     0.79281   0.35457   0.25174   0.00000  Uiso   1.00
C356   C     0.79331   0.64671   0.25094   0.00000  Uiso   1.00
C357   C     0.83347   0.62427   0.24876   0.00000  Uiso   1.00
C358   C     0.97024   0.53016   0.27293   0.00000  Uiso   1.00
C359   C     0.68296   0.52801   0.28171   0.00000  Uiso   1.00
C360   C     0.70101   0.47238   0.21583   0.00000  Uiso   1.00
C361   C     0.98419   0.47257   0.21636   0.00000  Uiso   1.00
C362   C     0.83322   0.42124   0.25037   0.00000  Uiso   1.00
C363   C     0.85894   0.50095   0.15124   0.00000  Uiso   1.00
C364   C     0.93397   0.49927   0.01255   0.00000  Uiso   1.00
C365   C     0.87280   0.50162   0.09421   0.00000  Uiso   1.00
C366   C     0.74613   0.49851   0.43445   0.00000  Uiso   1.00
C367   C     0.73219   0.50193   0.48602   0.00000  Uiso   1.00
C368   C     0.76539   0.50266   0.01064   0.00000  Uiso   1.00
Cu369  Cu    0.78645   0.49999   0.25000   0.00000  Uiso   1.00
Cu370  Cu    0.88022   0.50001   0.25000   0.00000  Uiso   1.00
H371   H     0.94698   0.50217   0.08316   0.00000  Uiso   1.00
H372   H     0.76073   0.36902   0.25405   0.00000  Uiso   1.00
H373   H     0.95661   0.55651   0.27411   0.00000  Uiso   1.00
H374   H     0.95083   0.49827   0.41279   0.00000  Uiso   1.00
H375   H     0.97055   0.49656   0.49065   0.00000  Uiso   1.00
H376   H     0.80221   0.50214   0.08914   0.00000  Uiso   1.00
H377   H     0.71955   0.49715   0.41662   0.00000  Uiso   1.00
H378   H     0.75111   0.50509   0.05022   0.00000  Uiso   1.00
H379   H     0.69601   0.50473   0.00884   0.00000  Uiso   1.00
N380   N     0.71598   0.49999   0.24999   0.00000  Uiso   1.00
N381   N     0.95069   0.50002   0.24999   0.00000  Uiso   1.00
O382   O     0.79375   0.56011   0.25000   0.00000  Uiso   1.00
O383   O     0.87294   0.56012   0.25000   0.00000  Uiso   1.00
O384   O     0.77441   0.49998   0.32549   0.00000  Uiso   1.00
O385   O     0.85360   0.49999   0.32549   0.00000  Uiso   1.00
O386   O     0.79373   0.43988   0.24999   0.00000  Uiso   1.00
O387   O     0.87292   0.43989   0.24999   0.00000  Uiso   1.00
O388   O     0.81306   0.50001   0.17451   0.00000  Uiso   1.00
O389   O     0.89225   0.50002   0.17451   0.00000  Uiso   1.00
C390   C     0.92344   0.37535   0.25413   0.00000  Uiso   1.00
O391   O     0.93186   0.40891   0.25498   0.00000  Uiso   1.00
O392   O     0.96174   0.35365   0.25059   0.00000  Uiso   1.00
H393   H     0.98993   0.36751   0.24974   0.00000  Uiso   1.00
H394   H     0.76136   0.63249   0.25004   0.00000  Uiso   1.00
C395   C     0.69857   0.55726   0.31842   0.00000  Uiso   1.00
O396   O     0.73849   0.55634   0.32065   0.00000  Uiso   1.00
O397   O     0.99859   0.58453   0.35386   0.00000  Uiso   1.00
H398   H     0.67604   0.60414   0.37676   0.00000  Uiso   1.00
H399   H     0.72619   0.45039   0.18897   0.00000  Uiso   1.00
C400   C     0.96824   0.44389   0.17973   0.00000  Uiso   1.00
O401   O     0.92806   0.44390   0.17889   0.00000  Uiso   1.00
O402   O     0.66809   0.41615   0.14503   0.00000  Uiso   1.00
H403   H     0.99029   0.39590   0.12288   0.00000  Uiso   1.00
C404   C     0.90781   0.50057   0.36012   0.00000  Uiso   1.00
O405   O     0.90710   0.53310   0.34468   0.00000  Uiso   1.00
O406   O     0.92445   0.46528   0.33060   0.00000  Uiso   1.00
H407   H     0.91887   0.47579   0.30689   0.00000  Uiso   1.00
H408   H     0.90581   0.63085   0.24606   0.00000  Uiso   1.00
C409   C     0.16676   0.91221   0.24951   0.00000  Uiso   1.00
C410   C     0.14867   0.83421   0.48579   0.00000  Uiso   1.00
C411   C     0.16352   0.83391   0.43206   0.00000  Uiso   1.00
C412   C     0.18423   0.83393   0.01350   0.00000  Uiso   1.00
C413   C     0.23356   0.83294   0.48625   0.00000  Uiso   1.00
C414   C     0.24729   0.83205   0.43411   0.00000  Uiso   1.00
C415   C     0.21433   0.83521   0.40875   0.00000  Uiso   1.00
C416   C     0.17211   0.83472   0.06747   0.00000  Uiso   1.00
C417   C     0.25371   0.83489   0.06516   0.00000  Uiso   1.00
C418   C     0.12756   0.83254   0.40551   0.00000  Uiso   1.00
C419   C     0.20797   0.97963   0.24833   0.00000  Uiso   1.00
C420   C     0.14090   0.83248   0.34874   0.00000  Uiso   1.00
C421   C     0.20951   0.68890   0.25013   0.00000  Uiso   1.00
C422   C     0.16727   0.70981   0.25142   0.00000  Uiso   1.00
C423   C     0.12614   0.68790   0.25174   0.00000  Uiso   1.00
C424   C     0.12665   0.98004   0.25094   0.00000  Uiso   1.00
C425   C     0.16680   0.95760   0.24876   0.00000  Uiso   1.00
C426   C     0.30357   0.86349   0.27293   0.00000  Uiso   1.00
C427   C     0.01630   0.86134   0.28171   0.00000  Uiso   1.00
C428   C     0.03434   0.80572   0.21583   0.00000  Uiso   1.00
C429   C     0.31752   0.80590   0.21636   0.00000  Uiso   1.00
C430   C     0.16655   0.75458   0.25037   0.00000  Uiso   1.00
C431   C     0.19227   0.83428   0.15124   0.00000  Uiso   1.00
C432   C     0.26730   0.83260   0.01255   0.00000  Uiso   1.00
C433   C     0.20613   0.83495   0.09421   0.00000  Uiso   1.00
C434   C     0.07946   0.83185   0.43445   0.00000  Uiso   1.00
C435   C     0.06552   0.83526   0.48602   0.00000  Uiso   1.00
C436   C     0.09872   0.83599   0.01064   0.00000  Uiso   1.00
Cu437  Cu    0.11978   0.83333   0.25000   0.00000  Uiso   1.00
Cu438  Cu    0.21355   0.83334   0.25000   0.00000  Uiso   1.00
H439   H     0.28031   0.83551   0.08316   0.00000  Uiso   1.00
H440   H     0.09406   0.70235   0.25405   0.00000  Uiso   1.00
H441   H     0.28995   0.88985   0.27411   0.00000  Uiso   1.00
H442   H     0.28416   0.83160   0.41279   0.00000  Uiso   1.00
H443   H     0.30388   0.82990   0.49065   0.00000  Uiso   1.00
H444   H     0.13554   0.83547   0.08914   0.00000  Uiso   1.00
H445   H     0.05288   0.83049   0.41662   0.00000  Uiso   1.00
H446   H     0.08445   0.83842   0.05022   0.00000  Uiso   1.00
H447   H     0.02934   0.83806   0.00884   0.00000  Uiso   1.00
N448   N     0.04931   0.83332   0.24999   0.00000  Uiso   1.00
N449   N     0.28402   0.83335   0.24999   0.00000  Uiso   1.00
O450   O     0.12708   0.89345   0.25000   0.00000  Uiso   1.00
O451   O     0.20627   0.89346   0.25000   0.00000  Uiso   1.00
O452   O     0.10775   0.83332   0.32549   0.00000  Uiso   1.00
O453   O     0.18694   0.83333   0.32549   0.00000  Uiso   1.00
O454   O     0.12706   0.77321   0.24999   0.00000  Uiso   1.00
O455   O     0.20625   0.77322   0.24999   0.00000  Uiso   1.00
O456   O     0.14640   0.83334   0.17451   0.00000  Uiso   1.00
O457   O     0.22559   0.83335   0.17451   0.00000  Uiso   1.00
C458   C     0.25677   0.70869   0.25413   0.00000  Uiso   1.00
O459   O     0.26519   0.74224   0.25498   0.00000  Uiso   1.00
O460   O     0.29508   0.68699   0.25059   0.00000  Uiso   1.00
H461   H     0.32326   0.70084   0.24974   0.00000  Uiso   1.00
H462   H     0.09470   0.96583   0.25004   0.00000  Uiso   1.00
C463   C     0.03191   0.89060   0.31842   0.00000  Uiso   1.00
O464   O     0.07182   0.88967   0.32065   0.00000  Uiso   1.00
O465   O     0.33192   0.91787   0.35386   0.00000  Uiso   1.00
H466   H     0.00938   0.93747   0.37676   0.00000  Uiso   1.00
H467   H     0.05952   0.78372   0.18897   0.00000  Uiso   1.00
C468   C     0.30157   0.77722   0.17973   0.00000  Uiso   1.00
O469   O     0.26139   0.77724   0.17889   0.00000  Uiso   1.00
O470   O     0.00142   0.74948   0.14503   0.00000  Uiso   1.00
H471   H     0.32362   0.72924   0.12288   0.00000  Uiso   1.00
C472   C     0.24114   0.83390   0.36012   0.00000  Uiso   1.00
O473   O     0.24043   0.86644   0.34468   0.00000  Uiso   1.00
O474   O     0.25778   0.79861   0.33060   0.00000  Uiso   1.00
H475   H     0.25220   0.80912   0.30689   0.00000  Uiso   1.00
H476   H     0.23914   0.96418   0.24606   0.00000  Uiso   1.00
C477   C     0.50009   0.91221   0.24951   0.00000  Uiso   1.00
C478   C     0.48200   0.83421   0.48579   0.00000  Uiso   1.00
C479   C     0.49686   0.83391   0.43206   0.00000  Uiso   1.00
C480   C     0.51756   0.83393   0.01350   0.00000  Uiso   1.00
C481   C     0.56690   0.83294   0.48625   0.00000  Uiso   1.00
C482   C     0.58062   0.83205   0.43411   0.00000  Uiso   1.00
C483   C     0.54766   0.83521   0.40875   0.00000  Uiso   1.00
C484   C     0.50545   0.83472   0.06747   0.00000  Uiso   1.00
C485   C     0.58704   0.83489   0.06516   0.00000  Uiso   1.00
C486   C     0.46090   0.83254   0.40551   0.00000  Uiso   1.00
C487   C     0.54130   0.97963   0.24833   0.00000  Uiso   1.00
C488   C     0.47423   0.83248   0.34874   0.00000  Uiso   1.00
C489   C     0.54284   0.68890   0.25013   0.00000  Uiso   1.00
C490   C     0.50061   0.70981   0.25142   0.00000  Uiso   1.00
C491   C     0.45948   0.68790   0.25174   0.00000  Uiso   1.00
C492   C     0.45998   0.98004   0.25094   0.00000  Uiso   1.00
C493   C     0.50014   0.95760   0.24876   0.00000  Uiso   1.00
C494   C     0.63691   0.86349   0.27293   0.00000  Uiso   1.00
C495   C     0.34963   0.86134   0.28171   0.00000  Uiso   1.00
C496   C     0.36767   0.80572   0.21583   0.00000  Uiso   1.00
C497   C     0.65085   0.80590   0.21636   0.00000  Uiso   1.00
C498   C     0.49988   0.75458   0.25037   0.00000  Uiso   1.00
C499   C     0.52561   0.83428   0.15124   0.00000  Uiso   1.00
C500   C     0.60063   0.83260   0.01255   0.00000  Uiso   1.00
C501   C     0.53947   0.83495   0.09421   0.00000  Uiso   1.00
C502   C     0.41280   0.83185   0.43445   0.00000  Uiso   1.00
C503   C     0.39885   0.83526   0.48602   0.00000  Uiso   1.00
C504   C     0.43205   0.83599   0.01064   0.00000  Uiso   1.00
Cu505  Cu    0.45311   0.83333   0.25000   0.00000  Uiso   1.00
Cu506  Cu    0.54689   0.83334   0.25000   0.00000  Uiso   1.00
H507   H     0.61365   0.83551   0.08316   0.00000  Uiso   1.00
H508   H     0.42739   0.70235   0.25405   0.00000  Uiso   1.00
H509   H     0.62328   0.88985   0.27411   0.00000  Uiso   1.00
H510   H     0.61750   0.83160   0.41279   0.00000  Uiso   1.00
H511   H     0.63721   0.82990   0.49065   0.00000  Uiso   1.00
H512   H     0.46888   0.83547   0.08914   0.00000  Uiso   1.00
H513   H     0.38622   0.83049   0.41662   0.00000  Uiso   1.00
H514   H     0.41778   0.83842   0.05022   0.00000  Uiso   1.00
H515   H     0.36268   0.83806   0.00884   0.00000  Uiso   1.00
N516   N     0.38265   0.83332   0.24999   0.00000  Uiso   1.00
N517   N     0.61735   0.83335   0.24999   0.00000  Uiso   1.00
O518   O     0.46042   0.89345   0.25000   0.00000  Uiso   1.00
O519   O     0.53961   0.89346   0.25000   0.00000  Uiso   1.00
O520   O     0.44108   0.83332   0.32549   0.00000  Uiso   1.00
O521   O     0.52027   0.83333   0.32549   0.00000  Uiso   1.00
O522   O     0.46039   0.77321   0.24999   0.00000  Uiso   1.00
O523   O     0.53958   0.77322   0.24999   0.00000  Uiso   1.00
O524   O     0.47973   0.83334   0.17451   0.00000  Uiso   1.00
O525   O     0.55892   0.83335   0.17451   0.00000  Uiso   1.00
C526   C     0.59011   0.70869   0.25413   0.00000  Uiso   1.00
O527   O     0.59852   0.74224   0.25498   0.00000  Uiso   1.00
O528   O     0.62841   0.68699   0.25059   0.00000  Uiso   1.00
H529   H     0.65659   0.70084   0.24974   0.00000  Uiso   1.00
H530   H     0.42803   0.96583   0.25004   0.00000  Uiso   1.00
C531   C     0.36524   0.89060   0.31842   0.00000  Uiso   1.00
O532   O     0.40515   0.88967   0.32065   0.00000  Uiso   1.00
O533   O     0.66525   0.91787   0.35386   0.00000  Uiso   1.00
H534   H     0.34271   0.93747   0.37676   0.00000  Uiso   1.00
H535   H     0.39285   0.78372   0.18897   0.00000  Uiso   1.00
C536   C     0.63491   0.77722   0.17973   0.00000  Uiso   1.00
O537   O     0.59472   0.77724   0.17889   0.00000  Uiso   1.00
O538   O     0.33475   0.74948   0.14503   0.00000  Uiso   1.00
H539   H     0.65695   0.72924   0.12288   0.00000  Uiso   1.00
C540   C     0.57447   0.83390   0.36012   0.00000  Uiso   1.00
O541   O     0.57376   0.86644   0.34468   0.00000  Uiso   1.00
O542   O     0.59112   0.79861   0.33060   0.00000  Uiso   1.00
H543   H     0.58554   0.80912   0.30689   0.00000  Uiso   1.00
H544   H     0.57247   0.96418   0.24606   0.00000  Uiso   1.00
C545   C     0.83342   0.91221   0.24951   0.00000  Uiso   1.00
C546   C     0.81534   0.83421   0.48579   0.00000  Uiso   1.00
C547   C     0.83019   0.83391   0.43206   0.00000  Uiso   1.00
C548   C     0.85089   0.83393   0.01350   0.00000  Uiso   1.00
C549   C     0.90023   0.83294   0.48625   0.00000  Uiso   1.00
C550   C     0.91396   0.83205   0.43411   0.00000  Uiso   1.00
C551   C     0.88100   0.83521   0.40875   0.00000  Uiso   1.00
C552   C     0.83878   0.83472   0.06747   0.00000  Uiso   1.00
C553   C     0.92037   0.83489   0.06516   0.00000  Uiso   1.00
C554   C     0.79423   0.83254   0.40551   0.00000  Uiso   1.00
C555   C     0.87463   0.97963   0.24833   0.00000  Uiso   1.00
C556   C     0.80756   0.83248   0.34874   0.00000  Uiso   1.00
C557   C     0.87618   0.68890   0.25013   0.00000  Uiso   1.00
C558   C     0.83394   0.70981   0.25142   0.00000  Uiso   1.00
C559   C     0.79281   0.68790   0.25174   0.00000  Uiso   1.00
C560   C     0.79331   0.98004   0.25094   0.00000  Uiso   1.00
C561   C     0.83347   0.95760   0.24876   0.00000  Uiso   1.00
C562   C     0.97024   0.86349   0.27293   0.00000  Uiso   1.00
C563   C     0.68296   0.86134   0.28171   0.00000  Uiso   1.00
C564   C     0.70101   0.80572   0.21583   0.00000  Uiso   1.00
C565   C     0.98419   0.80590   0.21636   0.00000  Uiso   1.00
C566   C     0.83322   0.75458   0.25037   0.00000  Uiso   1.00
C567   C     0.85894   0.83428   0.15124   0.00000  Uiso   1.00
C568   C     0.93397   0.83260   0.01255   0.00000  Uiso   1.00
C569   C     0.87280   0.83495   0.09421   0.00000  Uiso   1.00
C570   C     0.74613   0.83185   0.43445   0.00000  Uiso   1.00
C571   C     0.73219   0.83526   0.48602   0.00000  Uiso   1.00
C572   C     0.76539   0.83599   0.01064   0.00000  Uiso   1.00
Cu573  Cu    0.78645   0.83333   0.25000   0.00000  Uiso   1.00
Cu574  Cu    0.88022   0.83334   0.25000   0.00000  Uiso   1.00
H575   H     0.94698   0.83551   0.08316   0.00000  Uiso   1.00
H576   H     0.76073   0.70235   0.25405   0.00000  Uiso   1.00
H577   H     0.95661   0.88985   0.27411   0.00000  Uiso   1.00
H578   H     0.95083   0.83160   0.41279   0.00000  Uiso   1.00
H579   H     0.97055   0.82990   0.49065   0.00000  Uiso   1.00
H580   H     0.80221   0.83547   0.08914   0.00000  Uiso   1.00
H581   H     0.71955   0.83049   0.41662   0.00000  Uiso   1.00
H582   H     0.75111   0.83842   0.05022   0.00000  Uiso   1.00
H583   H     0.69601   0.83806   0.00884   0.00000  Uiso   1.00
N584   N     0.71598   0.83332   0.24999   0.00000  Uiso   1.00
N585   N     0.95069   0.83335   0.24999   0.00000  Uiso   1.00
O586   O     0.79375   0.89345   0.25000   0.00000  Uiso   1.00
O587   O     0.87294   0.89346   0.25000   0.00000  Uiso   1.00
O588   O     0.77441   0.83332   0.32549   0.00000  Uiso   1.00
O589   O     0.85360   0.83333   0.32549   0.00000  Uiso   1.00
O590   O     0.79373   0.77321   0.24999   0.00000  Uiso   1.00
O591   O     0.87292   0.77322   0.24999   0.00000  Uiso   1.00
O592   O     0.81306   0.83334   0.17451   0.00000  Uiso   1.00
O593   O     0.89225   0.83335   0.17451   0.00000  Uiso   1.00
C594   C     0.92344   0.70869   0.25413   0.00000  Uiso   1.00
O595   O     0.93186   0.74224   0.25498   0.00000  Uiso   1.00
O596   O     0.96174   0.68699   0.25059   0.00000  Uiso   1.00
H597   H     0.98993   0.70084   0.24974   0.00000  Uiso   1.00
H598   H     0.76136   0.96583   0.25004   0.00000  Uiso   1.00
C599   C     0.69857   0.89060   0.31842   0.00000  Uiso   1.00
O600   O     0.73849   0.88967   0.32065   0.00000  Uiso   1.00
O601   O     0.99859   0.91787   0.35386   0.00000  Uiso   1.00
H602   H     0.67604   0.93747   0.37676   0.00000  Uiso   1.00
H603   H     0.72619   0.78372   0.18897   0.00000  Uiso   1.00
C604   C     0.96824   0.77722   0.17973   0.00000  Uiso   1.00
O605   O     0.92806   0.77724   0.17889   0.00000  Uiso   1.00
O606   O     0.66809   0.74948   0.14503   0.00000  Uiso   1.00
H607   H     0.99029   0.72924   0.12288   0.00000  Uiso   1.00
C608   C     0.90781   0.83390   0.36012   0.00000  Uiso   1.00
O609   O     0.90710   0.86644   0.34468   0.00000  Uiso   1.00
O610   O     0.92445   0.79861   0.33060   0.00000  Uiso   1.00
H611   H     0.91887   0.80912   0.30689   0.00000  Uiso   1.00
H612   H     0.90581   0.96418   0.24606   0.00000  Uiso   1.00
C613   C     0.16676   0.24554   0.74951   0.00000  Uiso   1.00
C614   C     0.14867   0.16755   0.98579   0.00000  Uiso   1.00
C615   C     0.16352   0.16724   0.93206   0.00000  Uiso   1.00
C616   C     0.18423   0.16727   0.51350   0.00000  Uiso   1.00
C617   C     0.23356   0.16627   0.98625   0.00000  Uiso   1.00
C618   C     0.24729   0.16539   0.93411   0.00000  Uiso   1.00
C619   C     0.21433   0.16855   0.90875   0.00000  Uiso   1.00
C620   C     0.17211   0.16805   0.56747   0.00000  Uiso   1.00
C621   C     0.25371   0.16822   0.56516   0.00000  Uiso   1.00
C622   C     0.12756   0.16587   0.90551   0.00000  Uiso   1.00
C623   C     0.20797   0.31296   0.74833   0.00000  Uiso   1.00
C624   C     0.14090   0.16581   0.84874   0.00000  Uiso   1.00
C625   C     0.20951   0.02223   0.75013   0.00000  Uiso   1.00
C626   C     0.16727   0.04314   0.75142   0.00000  Uiso   1.00
C627   C     0.12614   0.02124   0.75174   0.00000  Uiso   1.00
C628   C     0.12665   0.31338   0.75094   0.00000  Uiso   1.00
C629   C     0.16680   0.29093   0.74876   0.00000  Uiso   1.00
C630   C     0.30357   0.19683   0.77293   0.00000  Uiso   1.00
C631   C     0.01630   0.19468   0.78171   0.00000  Uiso   1.00
C632   C     0.03434   0.13905   0.71583   0.00000  Uiso   1.00
C633   C     0.31752   0.13924   0.71636   0.00000  Uiso   1.00
C634   C     0.16655   0.08791   0.75037   0.00000  Uiso   1.00
C635   C     0.19227   0.16761   0.65124   0.00000  Uiso   1.00
C636   C     0.26730   0.16593   0.51255   0.00000  Uiso   1.00
C637   C     0.20613   0.16829   0.59421   0.00000  Uiso   1.00
C638   C     0.07946   0.16518   0.93445   0.00000  Uiso   1.00
C639   C     0.06552   0.16860   0.98602   0.00000  Uiso   1.00
C640   C     0.09872   0.16933   0.51064   0.00000  Uiso   1.00
Cu641  Cu    0.11978   0.16666   0.75000   0.00000  Uiso   1.00
Cu642  Cu    0.21355   0.16667   0.75000   0.00000  Uiso   1.00
H643   H     0.28031   0.16884   0.58316   0.00000  Uiso   1.00
H644   H     0.09406   0.03568   0.75405   0.00000  Uiso   1.00
H645   H     0.28995   0.22318   0.77411   0.00000  Uiso   1.00
H646   H     0.28416   0.16493   0.91279   0.00000  Uiso   1.00
H647   H     0.30388   0.16323   0.99065   0.00000  Uiso   1.00
H648   H     0.13554   0.16881   0.58914   0.00000  Uiso   1.00
H649   H     0.05288   0.16382   0.91662   0.00000  Uiso   1.00
H650   H     0.08445   0.17176   0.55022   0.00000  Uiso   1.00
H651   H     0.02934   0.17139   0.50884   0.00000  Uiso   1.00
N652   N     0.04931   0.16666   0.74999   0.00000  Uiso   1.00
N653   N     0.28402   0.16669   0.74999   0.00000  Uiso   1.00
O654   O     0.12708   0.22678   0.75000   0.00000  Uiso   1.00
O655   O     0.20627   0.22679   0.75000   0.00000  Uiso   1.00
O656   O     0.10775   0.16665   0.82549   0.00000  Uiso   1.00
O657   O     0.18694   0.16666   0.82549   0.00000  Uiso   1.00
O658   O     0.12706   0.10654   0.74999   0.00000  Uiso   1.00
O659   O     0.20625   0.10655   0.74999   0.00000  Uiso   1.00
O660   O     0.14640   0.16667   0.67451   0.00000  Uiso   1.00
O661   O     0.22559   0.16668   0.67451   0.00000  Uiso   1.00
C662   C     0.25677   0.04202   0.75413   0.00000  Uiso   1.00
O663   O     0.26519   0.07557   0.75498   0.00000  Uiso   1.00
O664   O     0.29508   0.02032   0.75059   0.00000  Uiso   1.00
H665   H     0.32326   0.03417   0.74974   0.00000  Uiso   1.00
H666   H     0.09470   0.29916   0.75004   0.00000  Uiso   1.00
C667   C     0.03191   0.22393   0.81842   0.00000  Uiso   1.00
O668   O     0.07182   0.22300   0.82065   0.00000  Uiso   1.00
O669   O     0.33192   0.25120   0.85386   0.00000  Uiso   1.00
H670   H     0.00938   0.27080   0.87676   0.00000  Uiso   1.00
H671   H     0.05952   0.11706   0.68897   0.00000  Uiso   1.00
C672   C     0.30157   0.11055   0.67973   0.00000  Uiso   1.00
O673   O     0.26139   0.11057   0.67889   0.00000  Uiso   1.00
O674   O     0.00142   0.08281   0.64503   0.00000  Uiso   1.00
H675   H     0.32362   0.06257   0.62288   0.00000  Uiso   1.00
C676   C     0.24114   0.16723   0.86012   0.00000  Uiso   1.00
O677   O     0.24043   0.19977   0.84468   0.00000  Uiso   1.00
O678   O     0.25778   0.13194   0.83060   0.00000  Uiso   1.00
H679   H     0.25220   0.14245   0.80689   0.00000  Uiso   1.00
H680   H     0.23914   0.29752   0.74606   0.00000  Uiso   1.00
C681   C     0.50009   0.24554   0.74951   0.00000  Uiso   1.00
C682   C     0.48200   0.16755   0.98579   0.00000  Uiso   1.00
C683   C     0.49686   0.16724   0.93206   0.00000  Uiso   1.00
C684   C     0.51756   0.16727   0.51350   0.00000  Uiso   1.00
C685   C     0.56690   0.16627   0.98625   0.00000  Uiso   1.00
C686   C     0.58062   0.16539   0.93411   0.00000  Uiso   1.00
C687   C     0.54766   0.16855   0.90875   0.00000  Uiso   1.00
C688   C     0.50545   0.16805   0.56747   0.00000  Uiso   1.00
C689   C     0.58704   0.16822   0.56516   0.00000  Uiso   1.00
C690   C     0.46090   0.16587   0.90551   0.00000  Uiso   1.00
C691   C     0.54130   0.31296   0.74833   0.00000  Uiso   1.00
C692   C     0.47423   0.16581   0.84874   0.00000  Uiso   1.00
C693   C     0.54284   0.02223   0.75013   0.00000  Uiso   1.00
C694   C     0.50061   0.04314   0.75142   0.00000  Uiso   1.00
C695   C     0.45948   0.02124   0.75174   0.00000  Uiso   1.00
C696   C     0.45998   0.31338   0.75094   0.00000  Uiso   1.00
C697   C     0.50014   0.29093   0.74876   0.00000  Uiso   1.00
C698   C     0.63691   0.19683   0.77293   0.00000  Uiso   1.00
C699   C     0.34963   0.19468   0.78171   0.00000  Uiso   1.00
C700   C     0.36767   0.13905   0.71583   0.00000  Uiso   1.00
C701   C     0.65085   0.13924   0.71636   0.00000  Uiso   1.00
C702   C     0.49988   0.08791   0.75037   0.00000  Uiso   1.00
C703   C     0.52561   0.16761   0.65124   0.00000  Uiso   1.00
C704   C     0.60063   0.16593   0.51255   0.00000  Uiso   1.00
C705   C     0.53947   0.16829   0.59421   0.00000  Uiso   1.00
C706   C     0.41280   0.16518   0.93445   0.00000  Uiso   1.00
C707   C     0.39885   0.16860   0.98602   0.00000  Uiso   1.00
C708   C     0.43205   0.16933   0.51064   0.00000  Uiso   1.00
Cu709  Cu    0.45311   0.16666   0.75000   0.00000  Uiso   1.00
Cu710  Cu    0.54689   0.16667   0.75000   0.00000  Uiso   1.00
H711   H     0.61365   0.16884   0.58316   0.00000  Uiso   1.00
H712   H     0.42739   0.03568   0.75405   0.00000  Uiso   1.00
H713   H     0.62328   0.22318   0.77411   0.00000  Uiso   1.00
H714   H     0.61750   0.16493   0.91279   0.00000  Uiso   1.00
H715   H     0.63721   0.16323   0.99065   0.00000  Uiso   1.00
H716   H     0.46888   0.16881   0.58914   0.00000  Uiso   1.00
H717   H     0.38622   0.16382   0.91662   0.00000  Uiso   1.00
H718   H     0.41778   0.17176   0.55022   0.00000  Uiso   1.00
H719   H     0.36268   0.17139   0.50884   0.00000  Uiso   1.00
N720   N     0.38265   0.16666   0.74999   0.00000  Uiso   1.00
N721   N     0.61735   0.16669   0.74999   0.00000  Uiso   1.00
O722   O     0.46042   0.22678   0.75000   0.00000  Uiso   1.00
O723   O     0.53961   0.22679   0.75000   0.00000  Uiso   1.00
O724   O     0.44108   0.16665   0.82549   0.00000  Uiso   1.00
O725   O     0.52027   0.16666   0.82549   0.00000  Uiso   1.00
O726   O     0.46039   0.10654   0.74999   0.00000  Uiso   1.00
O727   O     0.53958   0.10655   0.74999   0.00000  Uiso   1.00
O728   O     0.47973   0.16667   0.67451   0.00000  Uiso   1.00
O729   O     0.55892   0.16668   0.67451   0.00000  Uiso   1.00
C730   C     0.59011   0.04202   0.75413   0.00000  Uiso   1.00
O731   O     0.59852   0.07557   0.75498   0.00000  Uiso   1.00
O732   O     0.62841   0.02032   0.75059   0.00000  Uiso   1.00
H733   H     0.65659   0.03417   0.74974   0.00000  Uiso   1.00
H734   H     0.42803   0.29916   0.75004   0.00000  Uiso   1.00
C735   C     0.36524   0.22393   0.81842   0.00000  Uiso   1.00
O736   O     0.40515   0.22300   0.82065   0.00000  Uiso   1.00
O737   O     0.66525   0.25120   0.85386   0.00000  Uiso   1.00
H738   H     0.34271   0.27080   0.87676   0.00000  Uiso   1.00
H739   H     0.39285   0.11706   0.68897   0.00000  Uiso   1.00
C740   C     0.63491   0.11055   0.67973   0.00000  Uiso   1.00
O741   O     0.59472   0.11057   0.67889   0.00000  Uiso   1.00
O742   O     0.33475   0.08281   0.64503   0.00000  Uiso   1.00
H743   H     0.65695   0.06257   0.62288   0.00000  Uiso   1.00
C744   C     0.57447   0.16723   0.86012   0.00000  Uiso   1.00
O745   O     0.57376   0.19977   0.84468   0.00000  Uiso   1.00
O746   O     0.59112   0.13194   0.83060   0.00000  Uiso   1.00
H747   H     0.58554   0.14245   0.80689   0.00000  Uiso   1.00
H748   H     0.57247   0.29752   0.74606   0.00000  Uiso   1.00
C749   C     0.83342   0.24554   0.74951   0.00000  Uiso   1.00
C750   C     0.81534   0.16755   0.98579   0.00000  Uiso   1.00
C751   C     0.83019   0.16724   0.93206   0.00000  Uiso   1.00
C752   C     0.85089   0.16727   0.51350   0.00000  Uiso   1.00
C753   C     0.90023   0.16627   0.98625   0.00000  Uiso   1.00
C754   C     0.91396   0.16539   0.93411   0.00000  Uiso   1.00
C755   C     0.88100   0.16855   0.90875   0.00000  Uiso   1.00
C756   C     0.83878   0.16805   0.56747   0.00000  Uiso   1.00
C757   C     0.92037   0.16822   0.56516   0.00000  Uiso   1.00
C758   C     0.79423   0.16587   0.90551   0.00000  Uiso   1.00
C759   C     0.87463   0.31296   0.74833   0.00000  Uiso   1.00
C760   C     0.80756   0.16581   0.84874   0.00000  Uiso   1.00
C761   C     0.87618   0.02223   0.75013   0.00000  Uiso   1.00
C762   C     0.83394   0.04314   0.75142   0.00000  Uiso   1.00
C763   C     0.79281   0.02124   0.75174   0.00000  Uiso   1.00
C764   C     0.79331   0.31338   0.75094   0.00000  Uiso   1.00
C765   C     0.83347   0.29093   0.74876   0.00000  Uiso   1.00
C766   C     0.97024   0.19683   0.77293   0.00000  Uiso   1.00
C767   C     0.68296   0.19468   0.78171   0.00000  Uiso   1.00
C768   C     0.70101   0.13905   0.71583   0.00000  Uiso   1.00
C769   C     0.98419   0.13924   0.71636   0.00000  Uiso   1.00
C770   C     0.83322   0.08791   0.75037   0.00000  Uiso   1.00
C771   C     0.85894   0.16761   0.65124   0.00000  Uiso   1.00
C772   C     0.93397   0.16593   0.51255   0.00000  Uiso   1.00
C773   C     0.87280   0.16829   0.59421   0.00000  Uiso   1.00
C774   C     0.74613   0.16518   0.93445   0.00000  Uiso   1.00
C775   C     0.73219   0.16860   0.98602   0.00000  Uiso   1.00
C776   C     0.76539   0.16933   0.51064   0.00000  Uiso   1.00
Cu777  Cu    0.78645   0.16666   0.75000   0.00000  Uiso   1.00
Cu778  Cu    0.88022   0.16667   0.75000   0.00000  Uiso   1.00
H779   H     0.94698   0.16884   0.58316   0.00000  Uiso   1.00
H780   H     0.76073   0.03568   0.75405   0.00000  Uiso   1.00
H781   H     0.95661   0.22318   0.77411   0.00000  Uiso   1.00
H782   H     0.95083   0.16493   0.91279   0.00000  Uiso   1.00
H783   H     0.97055   0.16323   0.99065   0.00000  Uiso   1.00
H784   H     0.80221   0.16881   0.58914   0.00000  Uiso   1.00
H785   H     0.71955   0.16382   0.91662   0.00000  Uiso   1.00
H786   H     0.75111   0.17176   0.55022   0.00000  Uiso   1.00
H787   H     0.69601   0.17139   0.50884   0.00000  Uiso   1.00
N788   N     0.71598   0.16666   0.74999   0.00000  Uiso   1.00
N789   N     0.95069   0.16669   0.74999   0.00000  Uiso   1.00
O790   O     0.79375   0.22678   0.75000   0.00000  Uiso   1.00
O791   O     0.87294   0.22679   0.75000   0.00000  Uiso   1.00
O792   O     0.77441   0.16665   0.82549   0.00000  Uiso   1.00
O793   O     0.85360   0.16666   0.82549   0.00000  Uiso   1.00
O794   O     0.79373   0.10654   0.74999   0.00000  Uiso   1.00
O795   O     0.87292   0.10655   0.74999   0.00000  Uiso   1.00
O796   O     0.81306   0.16667   0.67451   0.00000  Uiso   1.00
O797   O     0.89225   0.16668   0.67451   0.00000  Uiso   1.00
C798   C     0.92344   0.04202   0.75413   0.00000  Uiso   1.00
O799   O     0.93186   0.07557   0.75498   0.00000  Uiso   1.00
O800   O     0.96174   0.02032   0.75059   0.00000  Uiso   1.00
H801   H     0.98993   0.03417   0.74974   0.00000  Uiso   1.00
H802   H     0.76136   0.29916   0.75004   0.00000  Uiso   1.00
C803   C     0.69857   0.22393   0.81842   0.00000  Uiso   1.00
O804   O     0.73849   0.22300   0.82065   0.00000  Uiso   1.00
O805   O     0.99859   0.25120   0.85386   0.00000  Uiso   1.00
H806   H     0.67604   0.27080   0.87676   0.00000  Uiso   1.00
H807   H     0.72619   0.11706   0.68897   0.00000  Uiso   1.00
C808   C     0.96824   0.11055   0.67973   0.00000  Uiso   1.00
O809   O     0.92806   0.11057   0.67889   0.00000  Uiso   1.00
O810   O     0.66809   0.08281   0.64503   0.00000  Uiso   1.00
H811   H     0.99029   0.06257   0.62288   0.00000  Uiso   1.00
C812   C     0.90781   0.16723   0.86012   0.00000  Uiso   1.00
O813   O     0.90710   0.19977   0.84468   0.00000  Uiso   1.00
O814   O     0.92445   0.13194   0.83060   0.00000  Uiso   1.00
H815   H     0.91887   0.14245   0.80689   0.00000  Uiso   1.00
H816   H     0.90581   0.29752   0.74606   0.00000  Uiso   1.00
C817   C     0.16676   0.57888   0.74951   0.00000  Uiso   1.00
C818   C     0.14867   0.50088   0.98579   0.00000  Uiso   1.00
C819   C     0.16352   0.50058   0.93206   0.00000  Uiso   1.00
C820   C     0.18423   0.50060   0.51350   0.00000  Uiso   1.00
C821   C     0.23356   0.49960   0.98625   0.00000  Uiso   1.00
C822   C     0.24729   0.49872   0.93411   0.00000  Uiso   1.00
C823   C     0.21433   0.50188   0.90875   0.00000  Uiso   1.00
C824   C     0.17211   0.50138   0.56747   0.00000  Uiso   1.00
C825   C     0.25371   0.50156   0.56516   0.00000  Uiso   1.00
C826   C     0.12756   0.49921   0.90551   0.00000  Uiso   1.00
C827   C     0.20797   0.64630   0.74833   0.00000  Uiso   1.00
C828   C     0.14090   0.49914   0.84874   0.00000  Uiso   1.00
C829   C     0.20951   0.35557   0.75013   0.00000  Uiso   1.00
C830   C     0.16727   0.37647   0.75142   0.00000  Uiso   1.00
C831   C     0.12614   0.35457   0.75174   0.00000  Uiso   1.00
C832   C     0.12665   0.64671   0.75094   0.00000  Uiso   1.00
C833   C     0.16680   0.62427   0.74876   0.00000  Uiso   1.00
C834   C     0.30357   0.53016   0.77293   0.00000  Uiso   1.00
C835   C     0.01630   0.52801   0.78171   0.00000  Uiso   1.00
C836   C     0.03434   0.47238   0.71583   0.00000  Uiso   1.00
C837   C     0.31752   0.47257   0.71636   0.00000  Uiso   1.00
C838   C     0.16655   0.42124   0.75037   0.00000  Uiso   1.00
C839   C     0.19227   0.50095   0.65124   0.00000  Uiso   1.00
C840   C     0.26730   0.49927   0.51255   0.00000  Uiso   1.00
C841   C     0.20613   0.50162   0.59421   0.00000  Uiso   1.00
C842   C     0.07946   0.49851   0.93445   0.00000  Uiso   1.00
C843   C     0.06552   0.50193   0.98602   0.00000  Uiso   1.00
C844   C     0.09872   0.50266   0.51064   0.00000  Uiso   1.00
Cu845  Cu    0.11978   0.49999   0.75000   0.00000  Uiso   1.00
Cu846  Cu    0.21355   0.50001   0.75000   0.00000  Uiso   1.00
H847   H     0.28031   0.50217   0.58316   0.00000  Uiso   1.00
H848   H     0.09406   0.36902   0.75405   0.00000  Uiso   1.00
H849   H     0.28995   0.55651   0.77411   0.00000  Uiso   1.00
H850   H     0.28416   0.49827   0.91279   0.00000  Uiso   1.00
H851   H     0.30388   0.49656   0.99065   0.00000  Uiso   1.00
H852   H     0.13554   0.50214   0.58914   0.00000  Uiso   1.00
H853   H     0.05288   0.49715   0.91662   0.00000  Uiso   1.00
H854   H     0.08445   0.50509   0.55022   0.00000  Uiso   1.00
H855   H     0.02934   0.50473   0.50884   0.00000  Uiso   1.00
N856   N     0.04931   0.49999   0.74999   0.00000  Uiso   1.00
N857   N     0.28402   0.50002   0.74999   0.00000  Uiso   1.00
O858   O     0.12708   0.56011   0.75000   0.00000  Uiso   1.00
O859   O     0.20627   0.56012   0.75000   0.00000  Uiso   1.00
O860   O     0.10775   0.49998   0.82549   0.00000  Uiso   1.00
O861   O     0.18694   0.49999   0.82549   0.00000  Uiso   1.00
O862   O     0.12706   0.43988   0.74999   0.00000  Uiso   1.00
O863   O     0.20625   0.43989   0.74999   0.00000  Uiso   1.00
O864   O     0.14640   0.50001   0.67451   0.00000  Uiso   1.00
O865   O     0.22559   0.50002   0.67451   0.00000  Uiso   1.00
C866   C     0.25677   0.37535   0.75413   0.00000  Uiso   1.00
O867   O     0.26519   0.40891   0.75498   0.00000  Uiso   1.00
O868   O     0.29508   0.35365   0.75059   0.00000  Uiso   1.00
H869   H     0.32326   0.36751   0.74974   0.00000  Uiso   1.00
H870   H     0.09470   0.63249   0.75004   0.00000  Uiso   1.00
C871   C     0.03191   0.55726   0.81842   0.00000  Uiso   1.00
O872   O     0.07182   0.55634   0.82065   0.00000  Uiso   1.00
O873   O     0.33192   0.58453   0.85386   0.00000  Uiso   1.00
H874   H     0.00938   0.60414   0.87676   0.00000  Uiso   1.00
H875   H     0.05952   0.45039   0.68897   0.00000  Uiso   1.00
C876   C     0.30157   0.44389   0.67973   0.00000  Uiso   1.00
O877   O     0.26139   0.44390   0.67889   0.00000  Uiso   1.00
O878   O     0.00142   0.41615   0.64503   0.00000  Uiso   1.00
H879   H     0.32362   0.39590   0.62288   0.00000  Uiso   1.00
C880   C     0.24114   0.50057   0.86012   0.00000  Uiso   1.00
O881   O     0.24043   0.53310   0.84468   0.00000  Uiso   1.00
O882   O     0.25778   0.46528   0.83060   0.00000  Uiso   1.00
H883   H     0.25220   0.47579   0.80689   0.00000  Uiso   1.00
H884   H     0.23914   0.63085   0.74606   0.00000  Uiso   1.00
C885   C     0.50009   0.57888   0.74951   0.00000  Uiso   1.00
C886   C     0.48200   0.50088   0.98579   0.00000  Uiso   1.00
C887   C     0.49686   0.50058   0.93206   0.00000  Uiso   1.00
C888   C     0.51756   0.50060   0.51350   0.00000  Uiso   1.00
C889   C     0.56690   0.49960   0.98625   0.00000  Uiso   1.00
C890   C     0.58062   0.49872   0.93411   0.00000  Uiso   1.00
C891   C     0.54766   0.50188   0.90875   0.00000  Uiso   1.00
C892   C     0.50545   0.50138   0.56747   0.00000  Uiso   1.00
C893   C     0.58704   0.50156   0.56516   0.00000  Uiso   1.00
C894   C     0.46090   0.49921   0.90551   0.00000  Uiso   1.00
C895   C     0.54130   0.64630   0.74833   0.00000  Uiso   1.00
C896   C     0.47423   0.49914   0.84874   0.00000  Uiso   1.00
C897   C     0.54284   0.35557   0.75013   0.00000  Uiso   1.00
C898   C     0.50061   0.37647   0.75142   0.00000  Uiso   1.00
C899   C     0.45948   0.35457   0.75174   0.00000  Uiso   1.00
C900   C     0.45998   0.64671   0.75094   0.00000  Uiso   1.00
C901   C     0.50014   0.62427   0.74876   0.00000  Uiso   1.00
C902   C     0.63691   0.53016   0.77293   0.00000  Uiso   1.00
C903   C     0.34963   0.52801   0.78171   0.00000  Uiso   1.00
C904   C     0.36767   0.47238   0.71583   0.00000  Uiso   1.00
C905   C     0.65085   0.47257   0.71636   0.00000  Uiso   1.00
C906   C     0.49988   0.42124   0.75037   0.00000  Uiso   1.00
C907   C     0.52561   0.50095   0.65124   0.00000  Uiso   1.00
C908   C     0.60063   0.49927   0.51255   0.00000  Uiso   1.00
C909   C     0.53947   0.50162   0.59421   0.00000  Uiso   1.00
C910   C     0.41280   0.49851   0.93445   0.00000  Uiso   1.00
C911   C     0.39885   0.50193   0.98602   0.00000  Uiso   1.00
C912   C     0.43205   0.50266   0.51064   0.00000  Uiso   1.00
Cu913  Cu    0.45311   0.49999   0.75000   0.00000  Uiso   1.00
Cu914  Cu    0.54689   0.50001   0.75000   0.00000  Uiso   1.00
H915   H     0.61365   0.50217   0.58316   0.00000  Uiso   1.00
H916   H     0.42739   0.36902   0.75405   0.00000  Uiso   1.00
H917   H     0.62328   0.55651   0.77411   0.00000  Uiso   1.00
H918   H     0.61750   0.49827   0.91279   0.00000  Uiso   1.00
H919   H     0.63721   0.49656   0.99065   0.00000  Uiso   1.00
H920   H     0.46888   0.50214   0.58914   0.00000  Uiso   1.00
H921   H     0.38622   0.49715   0.91662   0.00000  Uiso   1.00
H922   H     0.41778   0.50509   0.55022   0.00000  Uiso   1.00
H923   H     0.36268   0.50473   0.50884   0.00000  Uiso   1.00
N924   N     0.38265   0.49999   0.74999   0.00000  Uiso   1.00
N925   N     0.61735   0.50002   0.74999   0.00000  Uiso   1.00
O926   O     0.46042   0.56011   0.75000   0.00000  Uiso   1.00
O927   O     0.53961   0.56012   0.75000   0.00000  Uiso   1.00
O928   O     0.44108   0.49998   0.82549   0.00000  Uiso   1.00
O929   O     0.52027   0.49999   0.82549   0.00000  Uiso   1.00
O930   O     0.46039   0.43988   0.74999   0.00000  Uiso   1.00
O931   O     0.53958   0.43989   0.74999   0.00000  Uiso   1.00
O932   O     0.47973   0.50001   0.67451   0.00000  Uiso   1.00
O933   O     0.55892   0.50002   0.67451   0.00000  Uiso   1.00
C934   C     0.59011   0.37535   0.75413   0.00000  Uiso   1.00
O935   O     0.59852   0.40891   0.75498   0.00000  Uiso   1.00
O936   O     0.62841   0.35365   0.75059   0.00000  Uiso   1.00
H937   H     0.65659   0.36751   0.74974   0.00000  Uiso   1.00
H938   H     0.42803   0.63249   0.75004   0.00000  Uiso   1.00
C939   C     0.36524   0.55726   0.81842   0.00000  Uiso   1.00
O940   O     0.40515   0.55634   0.82065   0.00000  Uiso   1.00
O941   O     0.66525   0.58453   0.85386   0.00000  Uiso   1.00
H942   H     0.34271   0.60414   0.87676   0.00000  Uiso   1.00
H943   H     0.39285   0.45039   0.68897   0.00000  Uiso   1.00
C944   C     0.63491   0.44389   0.67973   0.00000  Uiso   1.00
O945   O     0.59472   0.44390   0.67889   0.00000  Uiso   1.00
O946   O     0.33475   0.41615   0.64503   0.00000  Uiso   1.00
H947   H     0.65695   0.39590   0.62288   0.00000  Uiso   1.00
C948   C     0.57447   0.50057   0.86012   0.00000  Uiso   1.00
O949   O     0.57376   0.53310   0.84468   0.00000  Uiso   1.00
O950   O     0.59112   0.46528   0.83060   0.00000  Uiso   1.00
H951   H     0.58554   0.47579   0.80689   0.00000  Uiso   1.00
H952   H     0.57247   0.63085   0.74606   0.00000  Uiso   1.00
C953   C     0.83342   0.57888   0.74951   0.00000  Uiso   1.00
C954   C     0.81534   0.50088   0.98579   0.00000  Uiso   1.00
C955   C     0.83019   0.50058   0.93206   0.00000  Uiso   1.00
C956   C     0.85089   0.50060   0.51350   0.00000  Uiso   1.00
C957   C     0.90023   0.49960   0.98625   0.00000  Uiso   1.00
C958   C     0.91396   0.49872   0.93411   0.00000  Uiso   1.00
C959   C     0.88100   0.50188   0.90875   0.00000  Uiso   1.00
C960   C     0.83878   0.50138   0.56747   0.00000  Uiso   1.00
C961   C     0.92037   0.50156   0.56516   0.00000  Uiso   1.00
C962   C     0.79423   0.49921   0.90551   0.00000  Uiso   1.00
C963   C     0.87463   0.64630   0.74833   0.00000  Uiso   1.00
C964   C     0.80756   0.49914   0.84874   0.00000  Uiso   1.00
C965   C     0.87618   0.35557   0.75013   0.00000  Uiso   1.00
C966   C     0.83394   0.37647   0.75142   0.00000  Uiso   1.00
C967   C     0.79281   0.35457   0.75174   0.00000  Uiso   1.00
C968   C     0.79331   0.64671   0.75094   0.00000  Uiso   1.00
C969   C     0.83347   0.62427   0.74876   0.00000  Uiso   1.00
C970   C     0.97024   0.53016   0.77293   0.00000  Uiso   1.00
C971   C     0.68296   0.52801   0.78171   0.00000  Uiso   1.00
C972   C     0.70101   0.47238   0.71583   0.00000  Uiso   1.00
C973   C     0.98419   0.47257   0.71636   0.00000  Uiso   1.00
C974   C     0.83322   0.42124   0.75037   0.00000  Uiso   1.00
C975   C     0.85894   0.50095   0.65124   0.00000  Uiso   1.00
C976   C     0.93397   0.49927   0.51255   0.00000  Uiso   1.00
C977   C     0.87280   0.50162   0.59421   0.00000  Uiso   1.00
C978   C     0.74613   0.49851   0.93445   0.00000  Uiso   1.00
C979   C     0.73219   0.50193   0.98602   0.00000  Uiso   1.00
C980   C     0.76539   0.50266   0.51064   0.00000  Uiso   1.00
Cu981  Cu    0.78645   0.49999   0.75000   0.00000  Uiso   1.00
Cu982  Cu    0.88022   0.50001   0.75000   0.00000  Uiso   1.00
H983   H     0.94698   0.50217   0.58316   0.00000  Uiso   1.00
H984   H     0.76073   0.36902   0.75405   0.00000  Uiso   1.00
H985   H     0.95661   0.55651   0.77411   0.00000  Uiso   1.00
H986   H     0.95083   0.49827   0.91279   0.00000  Uiso   1.00
H987   H     0.97055   0.49656   0.99065   0.00000  Uiso   1.00
H988   H     0.80221   0.50214   0.58914   0.00000  Uiso   1.00
H989   H     0.71955   0.49715   0.91662   0.00000  Uiso   1.00
H990   H     0.75111   0.50509   0.55022   0.00000  Uiso   1.00
H991   H     0.69601   0.50473   0.50884   0.00000  Uiso   1.00
N992   N     0.71598   0.49999   0.74999   0.00000  Uiso   1.00
N993   N     0.95069   0.50002   0.74999   0.00000  Uiso   1.00
O994   O     0.79375   0.56011   0.75000   0.00000  Uiso   1.00
O995   O     0.87294   0.56012   0.75000   0.00000  Uiso   1.00
O996   O     0.77441   0.49998   0.82549   0.00000  Uiso   1.00
O997   O     0.85360   0.49999   0.82549   0.00000  Uiso   1.00
O998   O     0.79373   0.43988   0.74999   0.00000  Uiso   1.00
O999   O     0.87292   0.43989   0.74999   0.00000  Uiso   1.00
O1000  O     0.81306   0.50001   0.67451   0.00000  Uiso   1.00
O1001  O     0.89225   0.50002   0.67451   0.00000  Uiso   1.00
C1002  C     0.92344   0.37535   0.75413   0.00000  Uiso   1.00
O1003  O     0.93186   0.40891   0.75498   0.00000  Uiso   1.00
O1004  O     0.96174   0.35365   0.75059   0.00000  Uiso   1.00
H1005  H     0.98993   0.36751   0.74974   0.00000  Uiso   1.00
H1006  H     0.76136   0.63249   0.75004   0.00000  Uiso   1.00
C1007  C     0.69857   0.55726   0.81842   0.00000  Uiso   1.00
O1008  O     0.73849   0.55634   0.82065   0.00000  Uiso   1.00
O1009  O     0.99859   0.58453   0.85386   0.00000  Uiso   1.00
H1010  H     0.67604   0.60414   0.87676   0.00000  Uiso   1.00
H1011  H     0.72619   0.45039   0.68897   0.00000  Uiso   1.00
C1012  C     0.96824   0.44389   0.67973   0.00000  Uiso   1.00
O1013  O     0.92806   0.44390   0.67889   0.00000  Uiso   1.00
O1014  O     0.66809   0.41615   0.64503   0.00000  Uiso   1.00
H1015  H     0.99029   0.39590   0.62288   0.00000  Uiso   1.00
C1016  C     0.90781   0.50057   0.86012   0.00000  Uiso   1.00
O1017  O     0.90710   0.53310   0.84468   0.00000  Uiso   1.00
O1018  O     0.92445   0.46528   0.83060   0.00000  Uiso   1.00
H1019  H     0.91887   0.47579   0.80689   0.00000  Uiso   1.00
H1020  H     0.90581   0.63085   0.74606   0.00000  Uiso   1.00
C1021  C     0.16676   0.91221   0.74951   0.00000  Uiso   1.00
C1022  C     0.14867   0.83421   0.98579   0.00000  Uiso   1.00
C1023  C     0.16352   0.83391   0.93206   0.00000  Uiso   1.00
C1024  C     0.18423   0.83393   0.51350   0.00000  Uiso   1.00
C1025  C     0.23356   0.83294   0.98625   0.00000  Uiso   1.00
C1026  C     0.24729   0.83205   0.93411   0.00000  Uiso   1.00
C1027  C     0.21433   0.83521   0.90875   0.00000  Uiso   1.00
C1028  C     0.17211   0.83472   0.56747   0.00000  Uiso   1.00
C1029  C     0.25371   0.83489   0.56516   0.00000  Uiso   1.00
C1030  C     0.12756   0.83254   0.90551   0.00000  Uiso   1.00
C1031  C     0.20797   0.97963   0.74833   0.00000  Uiso   1.00
C1032  C     0.14090   0.83248   0.84874   0.00000  Uiso   1.00
C1033  C     0.20951   0.68890   0.75013   0.00000  Uiso   1.00
C1034  C     0.16727   0.70981   0.75142   0.00000  Uiso   1.00
C1035  C     0.12614   0.68790   0.75174   0.00000  Uiso   1.00
C1036  C     0.12665   0.98004   0.75094   0.00000  Uiso   1.00
C1037  C     0.16680   0.95760   0.74876   0.00000  Uiso   1.00
C1038  C     0.30357   0.86349   0.77293   0.00000  Uiso   1.00
C1039  C     0.01630   0.86134   0.78171   0.00000  Uiso   1.00
C1040  C     0.03434   0.80572   0.71583   0.00000  Uiso   1.00
C1041  C     0.31752   0.80590   0.71636   0.00000  Uiso   1.00
C1042  C     0.16655   0.75458   0.75037   0.00000  Uiso   1.00
C1043  C     0.19227   0.83428   0.65124   0.00000  Uiso   1.00
C1044  C     0.26730   0.83260   0.51255   0.00000  Uiso   1.00
C1045  C     0.20613   0.83495   0.59421   0.00000  Uiso   1.00
C1046  C     0.07946   0.83185   0.93445   0.00000  Uiso   1.00
C1047  C     0.06552   0.83526   0.98602   0.00000  Uiso   1.00
C1048  C     0.09872   0.83599   0.51064   0.00000  Uiso   1.00
Cu1049 Cu    0.11978   0.83333   0.75000   0.00000  Uiso   1.00
Cu1050 Cu    0.21355   0.83334   0.75000   0.00000  Uiso   1.00
H1051  H     0.28031   0.83551   0.58316   0.00000  Uiso   1.00
H1052  H     0.09406   0.70235   0.75405   0.00000  Uiso   1.00
H1053  H     0.28995   0.88985   0.77411   0.00000  Uiso   1.00
H1054  H     0.28416   0.83160   0.91279   0.00000  Uiso   1.00
H1055  H     0.30388   0.82990   0.99065   0.00000  Uiso   1.00
H1056  H     0.13554   0.83547   0.58914   0.00000  Uiso   1.00
H1057  H     0.05288   0.83049   0.91662   0.00000  Uiso   1.00
H1058  H     0.08445   0.83842   0.55022   0.00000  Uiso   1.00
H1059  H     0.02934   0.83806   0.50884   0.00000  Uiso   1.00
N1060  N     0.04931   0.83332   0.74999   0.00000  Uiso   1.00
N1061  N     0.28402   0.83335   0.74999   0.00000  Uiso   1.00
O1062  O     0.12708   0.89345   0.75000   0.00000  Uiso   1.00
O1063  O     0.20627   0.89346   0.75000   0.00000  Uiso   1.00
O1064  O     0.10775   0.83332   0.82549   0.00000  Uiso   1.00
O1065  O     0.18694   0.83333   0.82549   0.00000  Uiso   1.00
O1066  O     0.12706   0.77321   0.74999   0.00000  Uiso   1.00
O1067  O     0.20625   0.77322   0.74999   0.00000  Uiso   1.00
O1068  O     0.14640   0.83334   0.67451   0.00000  Uiso   1.00
O1069  O     0.22559   0.83335   0.67451   0.00000  Uiso   1.00
C1070  C     0.25677   0.70869   0.75413   0.00000  Uiso   1.00
O1071  O     0.26519   0.74224   0.75498   0.00000  Uiso   1.00
O1072  O     0.29508   0.68699   0.75059   0.00000  Uiso   1.00
H1073  H     0.32326   0.70084   0.74974   0.00000  Uiso   1.00
H1074  H     0.09470   0.96583   0.75004   0.00000  Uiso   1.00
C1075  C     0.03191   0.89060   0.81842   0.00000  Uiso   1.00
O1076  O     0.07182   0.88967   0.82065   0.00000  Uiso   1.00
O1077  O     0.33192   0.91787   0.85386   0.00000  Uiso   1.00
H1078  H     0.00938   0.93747   0.87676   0.00000  Uiso   1.00
H1079  H     0.05952   0.78372   0.68897   0.00000  Uiso   1.00
C1080  C     0.30157   0.77722   0.67973   0.00000  Uiso   1.00
O1081  O     0.26139   0.77724   0.67889   0.00000  Uiso   1.00
O1082  O     0.00142   0.74948   0.64503   0.00000  Uiso   1.00
H1083  H     0.32362   0.72924   0.62288   0.00000  Uiso   1.00
C1084  C     0.24114   0.83390   0.86012   0.00000  Uiso   1.00
O1085  O     0.24043   0.86644   0.84468   0.00000  Uiso   1.00
O1086  O     0.25778   0.79861   0.83060   0.00000  Uiso   1.00
H1087  H     0.25220   0.80912   0.80689   0.00000  Uiso   1.00
H1088  H     0.23914   0.96418   0.74606   0.00000  Uiso   1.00
C1089  C     0.50009   0.91221   0.74951   0.00000  Uiso   1.00
C1090  C     0.48200   0.83421   0.98579   0.00000  Uiso   1.00
C1091  C     0.49686   0.83391   0.93206   0.00000  Uiso   1.00
C1092  C     0.51756   0.83393   0.51350   0.00000  Uiso   1.00
C1093  C     0.56690   0.83294   0.98625   0.00000  Uiso   1.00
C1094  C     0.58062   0.83205   0.93411   0.00000  Uiso   1.00
C1095  C     0.54766   0.83521   0.90875   0.00000  Uiso   1.00
C1096  C     0.50545   0.83472   0.56747   0.00000  Uiso   1.00
C1097  C     0.58704   0.83489   0.56516   0.00000  Uiso   1.00
C1098  C     0.46090   0.83254   0.90551   0.00000  Uiso   1.00
C1099  C     0.54130   0.97963   0.74833   0.00000  Uiso   1.00
C1100  C     0.47423   0.83248   0.84874   0.00000  Uiso   1.00
C1101  C     0.54284   0.68890   0.75013   0.00000  Uiso   1.00
C1102  C     0.50061   0.70981   0.75142   0.00000  Uiso   1.00
C1103  C     0.45948   0.68790   0.75174   0.00000  Uiso   1.00
C1104  C     0.45998   0.98004   0.75094   0.00000  Uiso   1.00
C1105  C     0.50014   0.95760   0.74876   0.00000  Uiso   1.00
C1106  C     0.63691   0.86349   0.77293   0.00000  Uiso   1.00
C1107  C     0.34963   0.86134   0.78171   0.00000  Uiso   1.00
C1108  C     0.36767   0.80572   0.71583   0.00000  Uiso   1.00
C1109  C     0.65085   0.80590   0.71636   0.00000  Uiso   1.00
C1110  C     0.49988   0.75458   0.75037   0.00000  Uiso   1.00
C1111  C     0.52561   0.83428   0.65124   0.00000  Uiso   1.00
C1112  C     0.60063   0.83260   0.51255   0.00000  Uiso   1.00
C1113  C     0.53947   0.83495   0.59421   0.00000  Uiso   1.00
C1114  C     0.41280   0.83185   0.93445   0.00000  Uiso   1.00
C1115  C     0.39885   0.83526   0.98602   0.00000  Uiso   1.00
C1116  C     0.43205   0.83599   0.51064   0.00000  Uiso   1.00
Cu1117 Cu    0.45311   0.83333   0.75000   0.00000  Uiso   1.00
Cu1118 Cu    0.54689   0.83334   0.75000   0.00000  Uiso   1.00
H1119  H     0.61365   0.83551   0.58316   0.00000  Uiso   1.00
H1120  H     0.42739   0.70235   0.75405   0.00000  Uiso   1.00
H1121  H     0.62328   0.88985   0.77411   0.00000  Uiso   1.00
H1122  H     0.61750   0.83160   0.91279   0.00000  Uiso   1.00
H1123  H     0.63721   0.82990   0.99065   0.00000  Uiso   1.00
H1124  H     0.46888   0.83547   0.58914   0.00000  Uiso   1.00
H1125  H     0.38622   0.83049   0.91662   0.00000  Uiso   1.00
H1126  H     0.41778   0.83842   0.55022   0.00000  Uiso   1.00
H1127  H     0.36268   0.83806   0.50884   0.00000  Uiso   1.00
N1128  N     0.38265   0.83332   0.74999   0.00000  Uiso   1.00
N1129  N     0.61735   0.83335   0.74999   0.00000  Uiso   1.00
O1130  O     0.46042   0.89345   0.75000   0.00000  Uiso   1.00
O1131  O     0.53961   0.89346   0.75000   0.00000  Uiso   1.00
O1132  O     0.44108   0.83332   0.82549   0.00000  Uiso   1.00
O1133  O     0.52027   0.83333   0.82549   0.00000  Uiso   1.00
O1134  O     0.46039   0.77321   0.74999   0.00000  Uiso   1.00
O1135  O     0.53958   0.77322   0.74999   0.00000  Uiso   1.00
O1136  O     0.47973   0.83334   0.67451   0.00000  Uiso   1.00
O1137  O     0.55892   0.83335   0.67451   0.00000  Uiso   1.00
C1138  C     0.59011   0.70869   0.75413   0.00000  Uiso   1.00
O1139  O     0.59852   0.74224   0.75498   0.00000  Uiso   1.00
O1140  O     0.62841   0.68699   0.75059   0.00000  Uiso   1.00
H1141  H     0.65659   0.70084   0.74974   0.00000  Uiso   1.00
H1142  H     0.42803   0.96583   0.75004   0.00000  Uiso   1.00
C1143  C     0.36524   0.89060   0.81842   0.00000  Uiso   1.00
O1144  O     0.40515   0.88967   0.82065   0.00000  Uiso   1.00
O1145  O     0.66525   0.91787   0.85386   0.00000  Uiso   1.00
H1146  H     0.34271   0.93747   0.87676   0.00000  Uiso   1.00
H1147  H     0.39285   0.78372   0.68897   0.00000  Uiso   1.00
C1148  C     0.63491   0.77722   0.67973   0.00000  Uiso   1.00
O1149  O     0.59472   0.77724   0.67889   0.00000  Uiso   1.00
O1150  O     0.33475   0.74948   0.64503   0.00000  Uiso   1.00
H1151  H     0.65695   0.72924   0.62288   0.00000  Uiso   1.00
C1152  C     0.57447   0.83390   0.86012   0.00000  Uiso   1.00
O1153  O     0.57376   0.86644   0.84468   0.00000  Uiso   1.00
O1154  O     0.59112   0.79861   0.83060   0.00000  Uiso   1.00
H1155  H     0.58554   0.80912   0.80689   0.00000  Uiso   1.00
H1156  H     0.57247   0.96418   0.74606   0.00000  Uiso   1.00
C1157  C     0.83342   0.91221   0.74951   0.00000  Uiso   1.00
C1158  C     0.81534   0.83421   0.98579   0.00000  Uiso   1.00
C1159  C     0.83019   0.83391   0.93206   0.00000  Uiso   1.00
C1160  C     0.85089   0.83393   0.51350   0.00000  Uiso   1.00
C1161  C     0.90023   0.83294   0.98625   0.00000  Uiso   1.00
C1162  C     0.91396   0.83205   0.93411   0.00000  Uiso   1.00
C1163  C     0.88100   0.83521   0.90875   0.00000  Uiso   1.00
C1164  C     0.83878   0.83472   0.56747   0.00000  Uiso   1.00
C1165  C     0.92037   0.83489   0.56516   0.00000  Uiso   1.00
C1166  C     0.79423   0.83254   0.90551   0.00000  Uiso   1.00
C1167  C     0.87463   0.97963   0.74833   0.00000  Uiso   1.00
C1168  C     0.80756   0.83248   0.84874   0.00000  Uiso   1.00
C1169  C     0.87618   0.68890   0.75013   0.00000  Uiso   1.00
C1170  C     0.83394   0.70981   0.75142   0.00000  Uiso   1.00
C1171  C     0.79281   0.68790   0.75174   0.00000  Uiso   1.00
C1172  C     0.79331   0.98004   0.75094   0.00000  Uiso   1.00
C1173  C     0.83347   0.95760   0.74876   0.00000  Uiso   1.00
C1174  C     0.97024   0.86349   0.77293   0.00000  Uiso   1.00
C1175  C     0.68296   0.86134   0.78171   0.00000  Uiso   1.00
C1176  C     0.70101   0.80572   0.71583   0.00000  Uiso   1.00
C1177  C     0.98419   0.80590   0.71636   0.00000  Uiso   1.00
C1178  C     0.83322   0.75458   0.75037   0.00000  Uiso   1.00
C1179  C     0.85894   0.83428   0.65124   0.00000  Uiso   1.00
C1180  C     0.93397   0.83260   0.51255   0.00000  Uiso   1.00
C1181  C     0.87280   0.83495   0.59421   0.00000  Uiso   1.00
C1182  C     0.74613   0.83185   0.93445   0.00000  Uiso   1.00
C1183  C     0.73219   0.83526   0.98602   0.00000  Uiso   1.00
C1184  C     0.76539   0.83599   0.51064   0.00000  Uiso   1.00
Cu1185 Cu    0.78645   0.83333   0.75000   0.00000  Uiso   1.00
Cu1186 Cu    0.88022   0.83334   0.75000   0.00000  Uiso   1.00
H1187  H     0.94698   0.83551   0.58316   0.00000  Uiso   1.00
H1188  H     0.76073   0.70235   0.75405   0.00000  Uiso   1.00
H1189  H     0.95661   0.88985   0.77411   0.00000  Uiso   1.00
H1190  H     0.95083   0.83160   0.91279   0.00000  Uiso   1.00
H1191  H     0.97055   0.82990   0.99065   0.00000  Uiso   1.00
H1192  H     0.80221   0.83547   0.58914   0.00000  Uiso   1.00
H1193  H     0.71955   0.83049   0.91662   0.00000  Uiso   1.00
H1194  H     0.75111   0.83842   0.55022   0.00000  Uiso   1.00
H1195  H     0.69601   0.83806   0.50884   0.00000  Uiso   1.00
N1196  N     0.71598   0.83332   0.74999   0.00000  Uiso   1.00
N1197  N     0.95069   0.83335   0.74999   0.00000  Uiso   1.00
O1198  O     0.79375   0.89345   0.75000   0.00000  Uiso   1.00
O1199  O     0.87294   0.89346   0.75000   0.00000  Uiso   1.00
O1200  O     0.77441   0.83332   0.82549   0.00000  Uiso   1.00
O1201  O     0.85360   0.83333   0.82549   0.00000  Uiso   1.00
O1202  O     0.79373   0.77321   0.74999   0.00000  Uiso   1.00
O1203  O     0.87292   0.77322   0.74999   0.00000  Uiso   1.00
O1204  O     0.81306   0.83334   0.67451   0.00000  Uiso   1.00
O1205  O     0.89225   0.83335   0.67451   0.00000  Uiso   1.00
C1206  C     0.92344   0.70869   0.75413   0.00000  Uiso   1.00
O1207  O     0.93186   0.74224   0.75498   0.00000  Uiso   1.00
O1208  O     0.96174   0.68699   0.75059   0.00000  Uiso   1.00
H1209  H     0.98993   0.70084   0.74974   0.00000  Uiso   1.00
H1210  H     0.76136   0.96583   0.75004   0.00000  Uiso   1.00
C1211  C     0.69857   0.89060   0.81842   0.00000  Uiso   1.00
O1212  O     0.73849   0.88967   0.82065   0.00000  Uiso   1.00
O1213  O     0.99859   0.91787   0.85386   0.00000  Uiso   1.00
H1214  H     0.67604   0.93747   0.87676   0.00000  Uiso   1.00
H1215  H     0.72619   0.78372   0.68897   0.00000  Uiso   1.00
C1216  C     0.96824   0.77722   0.67973   0.00000  Uiso   1.00
O1217  O     0.92806   0.77724   0.67889   0.00000  Uiso   1.00
O1218  O     0.66809   0.74948   0.64503   0.00000  Uiso   1.00
H1219  H     0.99029   0.72924   0.62288   0.00000  Uiso   1.00
C1220  C     0.90781   0.83390   0.86012   0.00000  Uiso   1.00
O1221  O     0.90710   0.86644   0.84468   0.00000  Uiso   1.00
O1222  O     0.92445   0.79861   0.83060   0.00000  Uiso   1.00
H1223  H     0.91887   0.80912   0.80689   0.00000  Uiso   1.00
H1224  H     0.90581   0.96418   0.74606   0.00000  Uiso   1.00
loop_
_geom_bond_atom_site_label_1
_geom_bond_atom_site_label_2
_geom_bond_distance
_geom_bond_site_symmetry_2
_ccdc_geom_bond_type
C1     C17     1.572   .     S
C1     O42     1.354   .     A
C1     O43     1.371   .     A
C2     C3      1.454   .     A
C2     C616    1.525   .     S
C2     C640    1.447   .     S
C3     C10     1.507   .     A
C3     C7      1.470   .     A
C4     C8      1.462   .     A
C4     C614    1.525   1_554 S
C4     C617    1.444   1_554 S
C5     C6      1.408   .     A
C5     C616    1.444   .     S
C5     C636    1.448   .     S
C6     C7      1.420   .     A
C6     H34     1.086   .     S
C7     C64     1.361   .     S
C8     C25     1.462   .     A
C8     H36     1.080   .     S
C9     C25     1.413   .     A
C9     H31     1.082   .     S
C9     C24     1.415   .     A
C10    C26     1.428   .     A
C10    C12     1.541   .     S
C11    H68     1.067   .     S
C11    C17     1.449   .     A
C11    C217    1.465   .     S
C12    O44     1.370   .     A
C12    O45     1.340   .     A
C13    C14     1.462   .     A
C13    C50     1.605   .     S
C13    C419    1.465   1_545 S
C14    C22     1.553   .     S
C14    C15     1.446   .     A
C15    H32     1.074   .     S
C15    C424    1.420   1_545 S
C16    H54     1.084   .     S
C16    C17     1.427   .     A
C16    C219    1.420   .     S
C18    H33     0.995   .     S
C18    N41     1.368   .     A
C18    C87     1.496   .     S
C19    N40     1.384   .     A
C19    C55     1.517   .     S
C19    C154    1.496   1_455 S
C20    H59     1.094   .     S
C20    N40     1.426   .     A
C20    C157    1.511   1_455 S
C21    N41     1.398   .     A
C21    C60     1.510   .     S
C21    C88     1.511   .     S
C22    O46     1.367   .     A
C22    O47     1.353   .     A
C23    O48     1.336   .     A
C23    C25     1.551   .     S
C23    O49     1.375   .     A
C24    C617    1.448   1_554 S
C24    H647    1.080   1_554 S
C26    H37     1.076   .     S
C26    C27     1.382   .     A
C27    C640    1.395   .     S
C27    H651    1.076   .     S
C28    H38     1.063   .     S
C28    C614    1.447   1_554 S
C28    C639    1.395   1_554 S
Cu29   O42     2.086   .     S
Cu29   O46     2.091   .     S
Cu29   N40     2.130   .     S
Cu29   O44     2.069   .     S
Cu29   O48     2.047   .     S
Cu30   O47     2.086   .     S
Cu30   O45     2.047   .     S
Cu30   N41     2.130   .     S
Cu30   O49     2.069   .     S
Cu30   O43     2.091   .     S
H35    C636    1.080   .     S
H39    C639    1.076   1_554 S
C50    O52     1.354   .     S
C50    O51     1.182   .     D
O52    H53     0.968   .     S
C55    O56     1.229   .     D
C55    O193    1.410   1_455 S
O57    C123    1.410   .     S
O57    H126    0.990   .     S
H58    O193    0.990   1_455 S
C60    O61     1.223   .     D
C60    O130    1.410   .     S
O62    C196    1.410   1_455 S
O62    H199    0.994   1_455 S
H63    O130    0.994   .     S
C64    O65     1.276   .     D
C64    O66     1.364   .     S
O66    H67     0.879   .     S
C69    C85     1.572   .     S
C69    O110    1.354   .     A
C69    O111    1.371   .     A
C70    C71     1.454   .     A
C70    C684    1.525   .     S
C70    C708    1.447   .     S
C71    C78     1.507   .     A
C71    C75     1.470   .     A
C72    C76     1.462   .     A
C72    C682    1.525   1_554 S
C72    C685    1.444   1_554 S
C73    C74     1.408   .     A
C73    C684    1.444   .     S
C73    C704    1.448   .     S
C74    C75     1.420   .     A
C74    H102    1.086   .     S
C75    C132    1.361   .     S
C76    C93     1.462   .     A
C76    H104    1.080   .     S
C77    C93     1.413   .     A
C77    H99     1.082   .     S
C77    C92     1.415   .     A
C78    C94     1.428   .     A
C78    C80     1.541   .     S
C79    H136    1.067   .     S
C79    C85     1.449   .     A
C79    C285    1.465   .     S
C80    O112    1.370   .     A
C80    O113    1.340   .     A
C81    C82     1.462   .     A
C81    C118    1.605   .     S
C81    C487    1.465   1_545 S
C82    C90     1.553   .     S
C82    C83     1.446   .     A
C83    H100    1.074   .     S
C83    C492    1.420   1_545 S
C84    H122    1.084   .     S
C84    C85     1.427   .     A
C84    C287    1.420   .     S
C86    H101    0.995   .     S
C86    N109    1.368   .     A
C86    C155    1.496   .     S
C87    N108    1.384   .     A
C87    C123    1.517   .     S
C88    H127    1.094   .     S
C88    N108    1.426   .     A
C89    N109    1.398   .     A
C89    C128    1.510   .     S
C89    C156    1.511   .     S
C90    O114    1.367   .     A
C90    O115    1.353   .     A
C91    O116    1.336   .     A
C91    C93     1.551   .     S
C91    O117    1.375   .     A
C92    C685    1.448   1_554 S
C92    H715    1.080   1_554 S
C94    H105    1.076   .     S
C94    C95     1.382   .     A
C95    C708    1.395   .     S
C95    H719    1.076   .     S
C96    H106    1.063   .     S
C96    C682    1.447   1_554 S
C96    C707    1.395   1_554 S
Cu97   O110    2.086   .     S
Cu97   O114    2.091   .     S
Cu97   N108    2.130   .     S
Cu97   O112    2.069   .     S
Cu97   O116    2.047   .     S
Cu98   O115    2.086   .     S
Cu98   O113    2.047   .     S
Cu98   N109    2.130   .     S
Cu98   O117    2.069   .     S
Cu98   O111    2.091   .     S
H103   C704    1.080   .     S
H107   C707    1.076   1_554 S
C118   O120    1.354   .     S
C118   O119    1.182   .     D
O120   H121    0.968   .     S
C123   O124    1.229   .     D
O125   C191    1.410   .     S
O125   H194    0.990   .     S
C128   O129    1.223   .     D
C128   O198    1.410   .     S
H131   O198    0.994   .     S
C132   O133    1.276   .     D
C132   O134    1.364   .     S
O134   H135    0.879   .     S
C137   C153    1.572   .     S
C137   O178    1.354   .     A
C137   O179    1.371   .     A
C138   C139    1.454   .     A
C138   C752    1.525   .     S
C138   C776    1.447   .     S
C139   C146    1.507   .     A
C139   C143    1.470   .     A
C140   C144    1.462   .     A
C140   C750    1.525   1_554 S
C140   C753    1.444   1_554 S
C141   C142    1.408   .     A
C141   C752    1.444   .     S
C141   C772    1.448   .     S
C142   C143    1.420   .     A
C142   H170    1.086   .     S
C143   C200    1.361   .     S
C144   C161    1.462   .     A
C144   H172    1.080   .     S
C145   C161    1.413   .     A
C145   H167    1.082   .     S
C145   C160    1.415   .     A
C146   C162    1.428   .     A
C146   C148    1.541   .     S
C147   H204    1.067   .     S
C147   C153    1.449   .     A
C147   C353    1.465   .     S
C148   O180    1.370   .     A
C148   O181    1.340   .     A
C149   C150    1.462   .     A
C149   C186    1.605   .     S
C149   C555    1.465   1_545 S
C150   C158    1.553   .     S
C150   C151    1.446   .     A
C151   H168    1.074   .     S
C151   C560    1.420   1_545 S
C152   H190    1.084   .     S
C152   C153    1.427   .     A
C152   C355    1.420   .     S
C154   H169    0.995   .     S
C154   N177    1.368   .     A
C154   C19     1.496   1_655 S
C155   N176    1.384   .     A
C155   C191    1.517   .     S
C156   H195    1.094   .     S
C156   N176    1.426   .     A
C157   N177    1.398   .     A
C157   C196    1.510   .     S
C157   C20     1.511   1_655 S
C158   O182    1.367   .     A
C158   O183    1.353   .     A
C159   O184    1.336   .     A
C159   C161    1.551   .     S
C159   O185    1.375   .     A
C160   C753    1.448   1_554 S
C160   H783    1.080   1_554 S
C162   H173    1.076   .     S
C162   C163    1.382   .     A
C163   C776    1.395   .     S
C163   H787    1.076   .     S
C164   H174    1.063   .     S
C164   C750    1.447   1_554 S
C164   C775    1.395   1_554 S
Cu165  O178    2.086   .     S
Cu165  O182    2.091   .     S
Cu165  N176    2.130   .     S
Cu165  O180    2.069   .     S
Cu165  O184    2.047   .     S
Cu166  O183    2.086   .     S
Cu166  O181    2.047   .     S
Cu166  N177    2.130   .     S
Cu166  O185    2.069   .     S
Cu166  O179    2.091   .     S
H171   C772    1.080   .     S
H175   C775    1.076   1_554 S
C186   O188    1.354   .     S
C186   O187    1.182   .     D
O188   H189    0.968   .     S
C191   O192    1.229   .     D
O193   C55     1.410   1_655 S
O193   H58     0.990   1_655 S
C196   O197    1.223   .     D
C196   O62     1.410   1_655 S
H199   O62     0.994   1_655 S
C200   O201    1.276   .     D
C200   O202    1.364   .     S
O202   H203    0.879   .     S
C205   C221    1.572   .     S
C205   O246    1.354   .     A
C205   O247    1.371   .     A
C206   C207    1.454   .     A
C206   C820    1.525   .     S
C206   C844    1.447   .     S
C207   C214    1.507   .     A
C207   C211    1.470   .     A
C208   C212    1.462   .     A
C208   C818    1.525   1_554 S
C208   C821    1.444   1_554 S
C209   C210    1.408   .     A
C209   C820    1.444   .     S
C209   C840    1.448   .     S
C210   C211    1.420   .     A
C210   H238    1.086   .     S
C211   C268    1.361   .     S
C212   C229    1.462   .     A
C212   H240    1.080   .     S
C213   C229    1.413   .     A
C213   H235    1.082   .     S
C213   C228    1.415   .     A
C214   C230    1.428   .     A
C214   C216    1.541   .     S
C215   H272    1.067   .     S
C215   C221    1.449   .     A
C215   C421    1.465   .     S
C216   O248    1.370   .     A
C216   O249    1.340   .     A
C217   C218    1.462   .     A
C217   C254    1.605   .     S
C218   C226    1.553   .     S
C218   C219    1.446   .     A
C219   H236    1.074   .     S
C220   H258    1.084   .     S
C220   C221    1.427   .     A
C220   C423    1.420   .     S
C222   H237    0.995   .     S
C222   N245    1.368   .     A
C222   C291    1.496   .     S
C223   N244    1.384   .     A
C223   C259    1.517   .     S
C223   C358    1.496   1_455 S
C224   H263    1.094   .     S
C224   N244    1.426   .     A
C224   C361    1.511   1_455 S
C225   N245    1.398   .     A
C225   C264    1.510   .     S
C225   C292    1.511   .     S
C226   O250    1.367   .     A
C226   O251    1.353   .     A
C227   O252    1.336   .     A
C227   C229    1.551   .     S
C227   O253    1.375   .     A
C228   C821    1.448   1_554 S
C228   H851    1.080   1_554 S
C230   H241    1.076   .     S
C230   C231    1.382   .     A
C231   C844    1.395   .     S
C231   H855    1.076   .     S
C232   H242    1.063   .     S
C232   C818    1.447   1_554 S
C232   C843    1.395   1_554 S
Cu233  O246    2.086   .     S
Cu233  O250    2.091   .     S
Cu233  N244    2.130   .     S
Cu233  O248    2.069   .     S
Cu233  O252    2.047   .     S
Cu234  O251    2.086   .     S
Cu234  O249    2.047   .     S
Cu234  N245    2.130   .     S
Cu234  O253    2.069   .     S
Cu234  O247    2.091   .     S
H239   C840    1.080   .     S
H243   C843    1.076   1_554 S
C254   O256    1.354   .     S
C254   O255    1.182   .     D
O256   H257    0.968   .     S
C259   O260    1.229   .     D
C259   O397    1.410   1_455 S
O261   C327    1.410   .     S
O261   H330    0.990   .     S
H262   O397    0.990   1_455 S
C264   O265    1.223   .     D
C264   O334    1.410   .     S
O266   C400    1.410   1_455 S
O266   H403    0.994   1_455 S
H267   O334    0.994   .     S
C268   O269    1.276   .     D
C268   O270    1.364   .     S
O270   H271    0.879   .     S
C273   C289    1.572   .     S
C273   O314    1.354   .     A
C273   O315    1.371   .     A
C274   C275    1.454   .     A
C274   C888    1.525   .     S
C274   C912    1.447   .     S
C275   C282    1.507   .     A
C275   C279    1.470   .     A
C276   C280    1.462   .     A
C276   C886    1.525   1_554 S
C276   C889    1.444   1_554 S
C277   C278    1.408   .     A
C277   C888    1.444   .     S
C277   C908    1.448   .     S
C278   C279    1.420   .     A
C278   H306    1.086   .     S
C279   C336    1.361   .     S
C280   C297    1.462   .     A
C280   H308    1.080   .     S
C281   C297    1.413   .     A
C281   H303    1.082   .     S
C281   C296    1.415   .     A
C282   C298    1.428   .     A
C282   C284    1.541   .     S
C283   H340    1.067   .     S
C283   C289    1.449   .     A
C283   C489    1.465   .     S
C284   O316    1.370   .     A
C284   O317    1.340   .     A
C285   C286    1.462   .     A
C285   C322    1.605   .     S
C286   C294    1.553   .     S
C286   C287    1.446   .     A
C287   H304    1.074   .     S
C288   H326    1.084   .     S
C288   C289    1.427   .     A
C288   C491    1.420   .     S
C290   H305    0.995   .     S
C290   N313    1.368   .     A
C290   C359    1.496   .     S
C291   N312    1.384   .     A
C291   C327    1.517   .     S
C292   H331    1.094   .     S
C292   N312    1.426   .     A
C293   N313    1.398   .     A
C293   C332    1.510   .     S
C293   C360    1.511   .     S
C294   O318    1.367   .     A
C294   O319    1.353   .     A
C295   O320    1.336   .     A
C295   C297    1.551   .     S
C295   O321    1.375   .     A
C296   C889    1.448   1_554 S
C296   H919    1.080   1_554 S
C298   H309    1.076   .     S
C298   C299    1.382   .     A
C299   C912    1.395   .     S
C299   H923    1.076   .     S
C300   H310    1.063   .     S
C300   C886    1.447   1_554 S
C300   C911    1.395   1_554 S
Cu301  O314    2.086   .     S
Cu301  O318    2.091   .     S
Cu301  N312    2.130   .     S
Cu301  O316    2.069   .     S
Cu301  O320    2.047   .     S
Cu302  O319    2.086   .     S
Cu302  O317    2.047   .     S
Cu302  N313    2.130   .     S
Cu302  O321    2.069   .     S
Cu302  O315    2.091   .     S
H307   C908    1.080   .     S
H311   C911    1.076   1_554 S
C322   O324    1.354   .     S
C322   O323    1.182   .     D
O324   H325    0.968   .     S
C327   O328    1.229   .     D
O329   C395    1.410   .     S
O329   H398    0.990   .     S
C332   O333    1.223   .     D
C332   O402    1.410   .     S
H335   O402    0.994   .     S
C336   O337    1.276   .     D
C336   O338    1.364   .     S
O338   H339    0.879   .     S
C341   C357    1.572   .     S
C341   O382    1.354   .     A
C341   O383    1.371   .     A
C342   C343    1.454   .     A
C342   C956    1.525   .     S
C342   C980    1.447   .     S
C343   C350    1.507   .     A
C343   C347    1.470   .     A
C344   C348    1.462   .     A
C344   C954    1.525   1_554 S
C344   C957    1.444   1_554 S
C345   C346    1.408   .     A
C345   C956    1.444   .     S
C345   C976    1.448   .     S
C346   C347    1.420   .     A
C346   H374    1.086   .     S
C347   C404    1.361   .     S
C348   C365    1.462   .     A
C348   H376    1.080   .     S
C349   C365    1.413   .     A
C349   H371    1.082   .     S
C349   C364    1.415   .     A
C350   C366    1.428   .     A
C350   C352    1.541   .     S
C351   H408    1.067   .     S
C351   C357    1.449   .     A
C351   C557    1.465   .     S
C352   O384    1.370   .     A
C352   O385    1.340   .     A
C353   C354    1.462   .     A
C353   C390    1.605   .     S
C354   C362    1.553   .     S
C354   C355    1.446   .     A
C355   H372    1.074   .     S
C356   H394    1.084   .     S
C356   C357    1.427   .     A
C356   C559    1.420   .     S
C358   H373    0.995   .     S
C358   N381    1.368   .     A
C358   C223    1.496   1_655 S
C359   N380    1.384   .     A
C359   C395    1.517   .     S
C360   H399    1.094   .     S
C360   N380    1.426   .     A
C361   N381    1.398   .     A
C361   C400    1.510   .     S
C361   C224    1.511   1_655 S
C362   O386    1.367   .     A
C362   O387    1.353   .     A
C363   O388    1.336   .     A
C363   C365    1.551   .     S
C363   O389    1.375   .     A
C364   C957    1.448   1_554 S
C364   H987    1.080   1_554 S
C366   H377    1.076   .     S
C366   C367    1.382   .     A
C367   C980    1.395   .     S
C367   H991    1.076   .     S
C368   H378    1.063   .     S
C368   C954    1.447   1_554 S
C368   C979    1.395   1_554 S
Cu369  O382    2.086   .     S
Cu369  O386    2.091   .     S
Cu369  N380    2.130   .     S
Cu369  O384    2.069   .     S
Cu369  O388    2.047   .     S
Cu370  O387    2.086   .     S
Cu370  O385    2.047   .     S
Cu370  N381    2.130   .     S
Cu370  O389    2.069   .     S
Cu370  O383    2.091   .     S
H375   C976    1.080   .     S
H379   C979    1.076   1_554 S
C390   O392    1.354   .     S
C390   O391    1.182   .     D
O392   H393    0.968   .     S
C395   O396    1.229   .     D
O397   C259    1.410   1_655 S
O397   H262    0.990   1_655 S
C400   O401    1.223   .     D
C400   O266    1.410   1_655 S
H403   O266    0.994   1_655 S
C404   O405    1.276   .     D
C404   O406    1.364   .     S
O406   H407    0.879   .     S
C409   C425    1.572   .     S
C409   O450    1.354   .     A
C409   O451    1.371   .     A
C410   C411    1.454   .     A
C410   C1024   1.525   .     S
C410   C1048   1.447   .     S
C411   C418    1.507   .     A
C411   C415    1.470   .     A
C412   C416    1.462   .     A
C412   C1022   1.525   1_554 S
C412   C1025   1.444   1_554 S
C413   C414    1.408   .     A
C413   C1024   1.444   .     S
C413   C1044   1.448   .     S
C414   C415    1.420   .     A
C414   H442    1.086   .     S
C415   C472    1.361   .     S
C416   C433    1.462   .     A
C416   H444    1.080   .     S
C417   C433    1.413   .     A
C417   H439    1.082   .     S
C417   C432    1.415   .     A
C418   C434    1.428   .     A
C418   C420    1.541   .     S
C419   H476    1.067   .     S
C419   C425    1.449   .     A
C419   C13     1.465   1_565 S
C420   O452    1.370   .     A
C420   O453    1.340   .     A
C421   C422    1.462   .     A
C421   C458    1.605   .     S
C422   C430    1.553   .     S
C422   C423    1.446   .     A
C423   H440    1.074   .     S
C424   H462    1.084   .     S
C424   C425    1.427   .     A
C424   C15     1.420   1_565 S
C426   H441    0.995   .     S
C426   N449    1.368   .     A
C426   C495    1.496   .     S
C427   N448    1.384   .     A
C427   C463    1.517   .     S
C427   C562    1.496   1_455 S
C428   H467    1.094   .     S
C428   N448    1.426   .     A
C428   C565    1.511   1_455 S
C429   N449    1.398   .     A
C429   C468    1.510   .     S
C429   C496    1.511   .     S
C430   O454    1.367   .     A
C430   O455    1.353   .     A
C431   O456    1.336   .     A
C431   C433    1.551   .     S
C431   O457    1.375   .     A
C432   C1025   1.448   1_554 S
C432   H1055   1.080   1_554 S
C434   H445    1.076   .     S
C434   C435    1.382   .     A
C435   C1048   1.395   .     S
C435   H1059   1.076   .     S
C436   H446    1.063   .     S
C436   C1022   1.447   1_554 S
C436   C1047   1.395   1_554 S
Cu437  O450    2.086   .     S
Cu437  O454    2.091   .     S
Cu437  N448    2.130   .     S
Cu437  O452    2.069   .     S
Cu437  O456    2.047   .     S
Cu438  O455    2.086   .     S
Cu438  O453    2.047   .     S
Cu438  N449    2.130   .     S
Cu438  O457    2.069   .     S
Cu438  O451    2.091   .     S
H443   C1044   1.080   .     S
H447   C1047   1.076   1_554 S
C458   O460    1.354   .     S
C458   O459    1.182   .     D
O460   H461    0.968   .     S
C463   O464    1.229   .     D
C463   O601    1.410   1_455 S
O465   C531    1.410   .     S
O465   H534    0.990   .     S
H466   O601    0.990   1_455 S
C468   O469    1.223   .     D
C468   O538    1.410   .     S
O470   C604    1.410   1_455 S
O470   H607    0.994   1_455 S
H471   O538    0.994   .     S
C472   O473    1.276   .     D
C472   O474    1.364   .     S
O474   H475    0.879   .     S
C477   C493    1.572   .     S
C477   O518    1.354   .     A
C477   O519    1.371   .     A
C478   C479    1.454   .     A
C478   C1092   1.525   .     S
C478   C1116   1.447   .     S
C479   C486    1.507   .     A
C479   C483    1.470   .     A
C480   C484    1.462   .     A
C480   C1090   1.525   1_554 S
C480   C1093   1.444   1_554 S
C481   C482    1.408   .     A
C481   C1092   1.444   .     S
C481   C1112   1.448   .     S
C482   C483    1.420   .     A
C482   H510    1.086   .     S
C483   C540    1.361   .     S
C484   C501    1.462   .     A
C484   H512    1.080   .     S
C485   C501    1.413   .     A
C485   H507    1.082   .     S
C485   C500    1.415   .     A
C486   C502    1.428   .     A
C486   C488    1.541   .     S
C487   H544    1.067   .     S
C487   C493    1.449   .     A
C487   C81     1.465   1_565 S
C488   O520    1.370   .     A
C488   O521    1.340   .     A
C489   C490    1.462   .     A
C489   C526    1.605   .     S
C490   C498    1.553   .     S
C490   C491    1.446   .     A
C491   H508    1.074   .     S
C492   H530    1.084   .     S
C492   C493    1.427   .     A
C492   C83     1.420   1_565 S
C494   H509    0.995   .     S
C494   N517    1.368   .     A
C494   C563    1.496   .     S
C495   N516    1.384   .     A
C495   C531    1.517   .     S
C496   H535    1.094   .     S
C496   N516    1.426   .     A
C497   N517    1.398   .     A
C497   C536    1.510   .     S
C497   C564    1.511   .     S
C498   O522    1.367   .     A
C498   O523    1.353   .     A
C499   O524    1.336   .     A
C499   C501    1.551   .     S
C499   O525    1.375   .     A
C500   C1093   1.448   1_554 S
C500   H1123   1.080   1_554 S
C502   H513    1.076   .     S
C502   C503    1.382   .     A
C503   C1116   1.395   .     S
C503   H1127   1.076   .     S
C504   H514    1.063   .     S
C504   C1090   1.447   1_554 S
C504   C1115   1.395   1_554 S
Cu505  O518    2.086   .     S
Cu505  O522    2.091   .     S
Cu505  N516    2.130   .     S
Cu505  O520    2.069   .     S
Cu505  O524    2.047   .     S
Cu506  O523    2.086   .     S
Cu506  O521    2.047   .     S
Cu506  N517    2.130   .     S
Cu506  O525    2.069   .     S
Cu506  O519    2.091   .     S
H511   C1112   1.080   .     S
H515   C1115   1.076   1_554 S
C526   O528    1.354   .     S
C526   O527    1.182   .     D
O528   H529    0.968   .     S
C531   O532    1.229   .     D
O533   C599    1.410   .     S
O533   H602    0.990   .     S
C536   O537    1.223   .     D
C536   O606    1.410   .     S
H539   O606    0.994   .     S
C540   O541    1.276   .     D
C540   O542    1.364   .     S
O542   H543    0.879   .     S
C545   C561    1.572   .     S
C545   O586    1.354   .     A
C545   O587    1.371   .     A
C546   C547    1.454   .     A
C546   C1160   1.525   .     S
C546   C1184   1.447   .     S
C547   C554    1.507   .     A
C547   C551    1.470   .     A
C548   C552    1.462   .     A
C548   C1158   1.525   1_554 S
C548   C1161   1.444   1_554 S
C549   C550    1.408   .     A
C549   C1160   1.444   .     S
C549   C1180   1.448   .     S
C550   C551    1.420   .     A
C550   H578    1.086   .     S
C551   C608    1.361   .     S
C552   C569    1.462   .     A
C552   H580    1.080   .     S
C553   C569    1.413   .     A
C553   H575    1.082   .     S
C553   C568    1.415   .     A
C554   C570    1.428   .     A
C554   C556    1.541   .     S
C555   H612    1.067   .     S
C555   C561    1.449   .     A
C555   C149    1.465   1_565 S
C556   O588    1.370   .     A
C556   O589    1.340   .     A
C557   C558    1.462   .     A
C557   C594    1.605   .     S
C558   C566    1.553   .     S
C558   C559    1.446   .     A
C559   H576    1.074   .     S
C560   H598    1.084   .     S
C560   C561    1.427   .     A
C560   C151    1.420   1_565 S
C562   H577    0.995   .     S
C562   N585    1.368   .     A
C562   C427    1.496   1_655 S
C563   N584    1.384   .     A
C563   C599    1.517   .     S
C564   H603    1.094   .     S
C564   N584    1.426   .     A
C565   N585    1.398   .     A
C565   C604    1.510   .     S
C565   C428    1.511   1_655 S
C566   O590    1.367   .     A
C566   O591    1.353   .     A
C567   O592    1.336   .     A
C567   C569    1.551   .     S
C567   O593    1.375   .     A
C568   C1161   1.448   1_554 S
C568   H1191   1.080   1_554 S
C570   H581    1.076   .     S
C570   C571    1.382   .     A
C571   C1184   1.395   .     S
C571   H1195   1.076   .     S
C572   H582    1.063   .     S
C572   C1158   1.447   1_554 S
C572   C1183   1.395   1_554 S
Cu573  O586    2.086   .     S
Cu573  O590    2.091   .     S
Cu573  N584    2.130   .     S
Cu573  O588    2.069   .     S
Cu573  O592    2.047   .     S
Cu574  O591    2.086   .     S
Cu574  O589    2.047   .     S
Cu574  N585    2.130   .     S
Cu574  O593    2.069   .     S
Cu574  O587    2.091   .     S
H579   C1180   1.080   .     S
H583   C1183   1.076   1_554 S
C594   O596    1.354   .     S
C594   O595    1.182   .     D
O596   H597    0.968   .     S
C599   O600    1.229   .     D
O601   C463    1.410   1_655 S
O601   H466    0.990   1_655 S
C604   O605    1.223   .     D
C604   O470    1.410   1_655 S
H607   O470    0.994   1_655 S
C608   O609    1.276   .     D
C608   O610    1.364   .     S
O610   H611    0.879   .     S
C613   C629    1.572   .     S
C613   O654    1.354   .     A
C613   O655    1.371   .     A
C614   C615    1.454   .     A
C614   C4      1.525   1_556 S
C614   C28     1.447   1_556 S
C615   C622    1.507   .     A
C615   C619    1.470   .     A
C616   C620    1.462   .     A
C617   C618    1.408   .     A
C617   C4      1.444   1_556 S
C617   C24     1.448   1_556 S
C618   C619    1.420   .     A
C618   H646    1.086   .     S
C619   C676    1.361   .     S
C620   C637    1.462   .     A
C620   H648    1.080   .     S
C621   C637    1.413   .     A
C621   H643    1.082   .     S
C621   C636    1.415   .     A
C622   C638    1.428   .     A
C622   C624    1.541   .     S
C623   H680    1.067   .     S
C623   C629    1.449   .     A
C623   C829    1.465   .     S
C624   O656    1.370   .     A
C624   O657    1.340   .     A
C625   C626    1.462   .     A
C625   C662    1.605   .     S
C625   C1031   1.465   1_545 S
C626   C634    1.553   .     S
C626   C627    1.446   .     A
C627   H644    1.074   .     S
C627   C1036   1.420   1_545 S
C628   H666    1.084   .     S
C628   C629    1.427   .     A
C628   C831    1.420   .     S
C630   H645    0.995   .     S
C630   N653    1.368   .     A
C630   C699    1.496   .     S
C631   N652    1.384   .     A
C631   C667    1.517   .     S
C631   C766    1.496   1_455 S
C632   H671    1.094   .     S
C632   N652    1.426   .     A
C632   C769    1.511   1_455 S
C633   N653    1.398   .     A
C633   C672    1.510   .     S
C633   C700    1.511   .     S
C634   O658    1.367   .     A
C634   O659    1.353   .     A
C635   O660    1.336   .     A
C635   C637    1.551   .     S
C635   O661    1.375   .     A
C638   H649    1.076   .     S
C638   C639    1.382   .     A
C639   C28     1.395   1_556 S
C639   H39     1.076   1_556 S
C640   H650    1.063   .     S
Cu641  O654    2.086   .     S
Cu641  O658    2.091   .     S
Cu641  N652    2.130   .     S
Cu641  O656    2.069   .     S
Cu641  O660    2.047   .     S
Cu642  O659    2.086   .     S
Cu642  O657    2.047   .     S
Cu642  N653    2.130   .     S
Cu642  O661    2.069   .     S
Cu642  O655    2.091   .     S
H647   C24     1.080   1_556 S
C662   O664    1.354   .     S
C662   O663    1.182   .     D
O664   H665    0.968   .     S
C667   O668    1.229   .     D
C667   O805    1.410   1_455 S
O669   C735    1.410   .     S
O669   H738    0.990   .     S
H670   O805    0.990   1_455 S
C672   O673    1.223   .     D
C672   O742    1.410   .     S
O674   C808    1.410   1_455 S
O674   H811    0.994   1_455 S
H675   O742    0.994   .     S
C676   O677    1.276   .     D
C676   O678    1.364   .     S
O678   H679    0.879   .     S
C681   C697    1.572   .     S
C681   O722    1.354   .     A
C681   O723    1.371   .     A
C682   C683    1.454   .     A
C682   C72     1.525   1_556 S
C682   C96     1.447   1_556 S
C683   C690    1.507   .     A
C683   C687    1.470   .     A
C684   C688    1.462   .     A
C685   C686    1.408   .     A
C685   C72     1.444   1_556 S
C685   C92     1.448   1_556 S
C686   C687    1.420   .     A
C686   H714    1.086   .     S
C687   C744    1.361   .     S
C688   C705    1.462   .     A
C688   H716    1.080   .     S
C689   C705    1.413   .     A
C689   H711    1.082   .     S
C689   C704    1.415   .     A
C690   C706    1.428   .     A
C690   C692    1.541   .     S
C691   H748    1.067   .     S
C691   C697    1.449   .     A
C691   C897    1.465   .     S
C692   O724    1.370   .     A
C692   O725    1.340   .     A
C693   C694    1.462   .     A
C693   C730    1.605   .     S
C693   C1099   1.465   1_545 S
C694   C702    1.553   .     S
C694   C695    1.446   .     A
C695   H712    1.074   .     S
C695   C1104   1.420   1_545 S
C696   H734    1.084   .     S
C696   C697    1.427   .     A
C696   C899    1.420   .     S
C698   H713    0.995   .     S
C698   N721    1.368   .     A
C698   C767    1.496   .     S
C699   N720    1.384   .     A
C699   C735    1.517   .     S
C700   H739    1.094   .     S
C700   N720    1.426   .     A
C701   N721    1.398   .     A
C701   C740    1.510   .     S
C701   C768    1.511   .     S
C702   O726    1.367   .     A
C702   O727    1.353   .     A
C703   O728    1.336   .     A
C703   C705    1.551   .     S
C703   O729    1.375   .     A
C706   H717    1.076   .     S
C706   C707    1.382   .     A
C707   C96     1.395   1_556 S
C707   H107    1.076   1_556 S
C708   H718    1.063   .     S
Cu709  O722    2.086   .     S
Cu709  O726    2.091   .     S
Cu709  N720    2.130   .     S
Cu709  O724    2.069   .     S
Cu709  O728    2.047   .     S
Cu710  O727    2.086   .     S
Cu710  O725    2.047   .     S
Cu710  N721    2.130   .     S
Cu710  O729    2.069   .     S
Cu710  O723    2.091   .     S
H715   C92     1.080   1_556 S
C730   O732    1.354   .     S
C730   O731    1.182   .     D
O732   H733    0.968   .     S
C735   O736    1.229   .     D
O737   C803    1.410   .     S
O737   H806    0.990   .     S
C740   O741    1.223   .     D
C740   O810    1.410   .     S
H743   O810    0.994   .     S
C744   O745    1.276   .     D
C744   O746    1.364   .     S
O746   H747    0.879   .     S
C749   C765    1.572   .     S
C749   O790    1.354   .     A
C749   O791    1.371   .     A
C750   C751    1.454   .     A
C750   C140    1.525   1_556 S
C750   C164    1.447   1_556 S
C751   C758    1.507   .     A
C751   C755    1.470   .     A
C752   C756    1.462   .     A
C753   C754    1.408   .     A
C753   C140    1.444   1_556 S
C753   C160    1.448   1_556 S
C754   C755    1.420   .     A
C754   H782    1.086   .     S
C755   C812    1.361   .     S
C756   C773    1.462   .     A
C756   H784    1.080   .     S
C757   C773    1.413   .     A
C757   H779    1.082   .     S
C757   C772    1.415   .     A
C758   C774    1.428   .     A
C758   C760    1.541   .     S
C759   H816    1.067   .     S
C759   C765    1.449   .     A
C759   C965    1.465   .     S
C760   O792    1.370   .     A
C760   O793    1.340   .     A
C761   C762    1.462   .     A
C761   C798    1.605   .     S
C761   C1167   1.465   1_545 S
C762   C770    1.553   .     S
C762   C763    1.446   .     A
C763   H780    1.074   .     S
C763   C1172   1.420   1_545 S
C764   H802    1.084   .     S
C764   C765    1.427   .     A
C764   C967    1.420   .     S
C766   H781    0.995   .     S
C766   N789    1.368   .     A
C766   C631    1.496   1_655 S
C767   N788    1.384   .     A
C767   C803    1.517   .     S
C768   H807    1.094   .     S
C768   N788    1.426   .     A
C769   N789    1.398   .     A
C769   C808    1.510   .     S
C769   C632    1.511   1_655 S
C770   O794    1.367   .     A
C770   O795    1.353   .     A
C771   O796    1.336   .     A
C771   C773    1.551   .     S
C771   O797    1.375   .     A
C774   H785    1.076   .     S
C774   C775    1.382   .     A
C775   C164    1.395   1_556 S
C775   H175    1.076   1_556 S
C776   H786    1.063   .     S
Cu777  O790    2.086   .     S
Cu777  O794    2.091   .     S
Cu777  N788    2.130   .     S
Cu777  O792    2.069   .     S
Cu777  O796    2.047   .     S
Cu778  O795    2.086   .     S
Cu778  O793    2.047   .     S
Cu778  N789    2.130   .     S
Cu778  O797    2.069   .     S
Cu778  O791    2.091   .     S
H783   C160    1.080   1_556 S
C798   O800    1.354   .     S
C798   O799    1.182   .     D
O800   H801    0.968   .     S
C803   O804    1.229   .     D
O805   C667    1.410   1_655 S
O805   H670    0.990   1_655 S
C808   O809    1.223   .     D
C808   O674    1.410   1_655 S
H811   O674    0.994   1_655 S
C812   O813    1.276   .     D
C812   O814    1.364   .     S
O814   H815    0.879   .     S
C817   C833    1.572   .     S
C817   O858    1.354   .     A
C817   O859    1.371   .     A
C818   C819    1.454   .     A
C818   C208    1.525   1_556 S
C818   C232    1.447   1_556 S
C819   C826    1.507   .     A
C819   C823    1.470   .     A
C820   C824    1.462   .     A
C821   C822    1.408   .     A
C821   C208    1.444   1_556 S
C821   C228    1.448   1_556 S
C822   C823    1.420   .     A
C822   H850    1.086   .     S
C823   C880    1.361   .     S
C824   C841    1.462   .     A
C824   H852    1.080   .     S
C825   C841    1.413   .     A
C825   H847    1.082   .     S
C825   C840    1.415   .     A
C826   C842    1.428   .     A
C826   C828    1.541   .     S
C827   H884    1.067   .     S
C827   C833    1.449   .     A
C827   C1033   1.465   .     S
C828   O860    1.370   .     A
C828   O861    1.340   .     A
C829   C830    1.462   .     A
C829   C866    1.605   .     S
C830   C838    1.553   .     S
C830   C831    1.446   .     A
C831   H848    1.074   .     S
C832   H870    1.084   .     S
C832   C833    1.427   .     A
C832   C1035   1.420   .     S
C834   H849    0.995   .     S
C834   N857    1.368   .     A
C834   C903    1.496   .     S
C835   N856    1.384   .     A
C835   C871    1.517   .     S
C835   C970    1.496   1_455 S
C836   H875    1.094   .     S
C836   N856    1.426   .     A
C836   C973    1.511   1_455 S
C837   N857    1.398   .     A
C837   C876    1.510   .     S
C837   C904    1.511   .     S
C838   O862    1.367   .     A
C838   O863    1.353   .     A
C839   O864    1.336   .     A
C839   C841    1.551   .     S
C839   O865    1.375   .     A
C842   H853    1.076   .     S
C842   C843    1.382   .     A
C843   C232    1.395   1_556 S
C843   H243    1.076   1_556 S
C844   H854    1.063   .     S
Cu845  O858    2.086   .     S
Cu845  O862    2.091   .     S
Cu845  N856    2.130   .     S
Cu845  O860    2.069   .     S
Cu845  O864    2.047   .     S
Cu846  O863    2.086   .     S
Cu846  O861    2.047   .     S
Cu846  N857    2.130   .     S
Cu846  O865    2.069   .     S
Cu846  O859    2.091   .     S
H851   C228    1.080   1_556 S
C866   O868    1.354   .     S
C866   O867    1.182   .     D
O868   H869    0.968   .     S
C871   O872    1.229   .     D
C871   O1009   1.410   1_455 S
O873   C939    1.410   .     S
O873   H942    0.990   .     S
H874   O1009   0.990   1_455 S
C876   O877    1.223   .     D
C876   O946    1.410   .     S
O878   C1012   1.410   1_455 S
O878   H1015   0.994   1_455 S
H879   O946    0.994   .     S
C880   O881    1.276   .     D
C880   O882    1.364   .     S
O882   H883    0.879   .     S
C885   C901    1.572   .     S
C885   O926    1.354   .     A
C885   O927    1.371   .     A
C886   C887    1.454   .     A
C886   C276    1.525   1_556 S
C886   C300    1.447   1_556 S
C887   C894    1.507   .     A
C887   C891    1.470   .     A
C888   C892    1.462   .     A
C889   C890    1.408   .     A
C889   C276    1.444   1_556 S
C889   C296    1.448   1_556 S
C890   C891    1.420   .     A
C890   H918    1.086   .     S
C891   C948    1.361   .     S
C892   C909    1.462   .     A
C892   H920    1.080   .     S
C893   C909    1.413   .     A
C893   H915    1.082   .     S
C893   C908    1.415   .     A
C894   C910    1.428   .     A
C894   C896    1.541   .     S
C895   H952    1.067   .     S
C895   C901    1.449   .     A
C895   C1101   1.465   .     S
C896   O928    1.370   .     A
C896   O929    1.340   .     A
C897   C898    1.462   .     A
C897   C934    1.605   .     S
C898   C906    1.553   .     S
C898   C899    1.446   .     A
C899   H916    1.074   .     S
C900   H938    1.084   .     S
C900   C901    1.427   .     A
C900   C1103   1.420   .     S
C902   H917    0.995   .     S
C902   N925    1.368   .     A
C902   C971    1.496   .     S
C903   N924    1.384   .     A
C903   C939    1.517   .     S
C904   H943    1.094   .     S
C904   N924    1.426   .     A
C905   N925    1.398   .     A
C905   C944    1.510   .     S
C905   C972    1.511   .     S
C906   O930    1.367   .     A
C906   O931    1.353   .     A
C907   O932    1.336   .     A
C907   C909    1.551   .     S
C907   O933    1.375   .     A
C910   H921    1.076   .     S
C910   C911    1.382   .     A
C911   C300    1.395   1_556 S
C911   H311    1.076   1_556 S
C912   H922    1.063   .     S
Cu913  O926    2.086   .     S
Cu913  O930    2.091   .     S
Cu913  N924    2.130   .     S
Cu913  O928    2.069   .     S
Cu913  O932    2.047   .     S
Cu914  O931    2.086   .     S
Cu914  O929    2.047   .     S
Cu914  N925    2.130   .     S
Cu914  O933    2.069   .     S
Cu914  O927    2.091   .     S
H919   C296    1.080   1_556 S
C934   O936    1.354   .     S
C934   O935    1.182   .     D
O936   H937    0.968   .     S
C939   O940    1.229   .     D
O941   C1007   1.410   .     S
O941   H1010   0.990   .     S
C944   O945    1.223   .     D
C944   O1014   1.410   .     S
H947   O1014   0.994   .     S
C948   O949    1.276   .     D
C948   O950    1.364   .     S
O950   H951    0.879   .     S
C953   C969    1.572   .     S
C953   O994    1.354   .     A
C953   O995    1.371   .     A
C954   C955    1.454   .     A
C954   C344    1.525   1_556 S
C954   C368    1.447   1_556 S
C955   C962    1.507   .     A
C955   C959    1.470   .     A
C956   C960    1.462   .     A
C957   C958    1.408   .     A
C957   C344    1.444   1_556 S
C957   C364    1.448   1_556 S
C958   C959    1.420   .     A
C958   H986    1.086   .     S
C959   C1016   1.361   .     S
C960   C977    1.462   .     A
C960   H988    1.080   .     S
C961   C977    1.413   .     A
C961   H983    1.082   .     S
C961   C976    1.415   .     A
C962   C978    1.428   .     A
C962   C964    1.541   .     S
C963   H1020   1.067   .     S
C963   C969    1.449   .     A
C963   C1169   1.465   .     S
C964   O996    1.370   .     A
C964   O997    1.340   .     A
C965   C966    1.462   .     A
C965   C1002   1.605   .     S
C966   C974    1.553   .     S
C966   C967    1.446   .     A
C967   H984    1.074   .     S
C968   H1006   1.084   .     S
C968   C969    1.427   .     A
C968   C1171   1.420   .     S
C970   H985    0.995   .     S
C970   N993    1.368   .     A
C970   C835    1.496   1_655 S
C971   N992    1.384   .     A
C971   C1007   1.517   .     S
C972   H1011   1.094   .     S
C972   N992    1.426   .     A
C973   N993    1.398   .     A
C973   C1012   1.510   .     S
C973   C836    1.511   1_655 S
C974   O998    1.367   .     A
C974   O999    1.353   .     A
C975   O1000   1.336   .     A
C975   C977    1.551   .     S
C975   O1001   1.375   .     A
C978   H989    1.076   .     S
C978   C979    1.382   .     A
C979   C368    1.395   1_556 S
C979   H379    1.076   1_556 S
C980   H990    1.063   .     S
Cu981  O994    2.086   .     S
Cu981  O998    2.091   .     S
Cu981  N992    2.130   .     S
Cu981  O996    2.069   .     S
Cu981  O1000   2.047   .     S
Cu982  O999    2.086   .     S
Cu982  O997    2.047   .     S
Cu982  N993    2.130   .     S
Cu982  O1001   2.069   .     S
Cu982  O995    2.091   .     S
H987   C364    1.080   1_556 S
C1002  O1004   1.354   .     S
C1002  O1003   1.182   .     D
O1004  H1005   0.968   .     S
C1007  O1008   1.229   .     D
O1009  C871    1.410   1_655 S
O1009  H874    0.990   1_655 S
C1012  O1013   1.223   .     D
C1012  O878    1.410   1_655 S
H1015  O878    0.994   1_655 S
C1016  O1017   1.276   .     D
C1016  O1018   1.364   .     S
O1018  H1019   0.879   .     S
C1021  C1037   1.572   .     S
C1021  O1062   1.354   .     A
C1021  O1063   1.371   .     A
C1022  C1023   1.454   .     A
C1022  C412    1.525   1_556 S
C1022  C436    1.447   1_556 S
C1023  C1030   1.507   .     A
C1023  C1027   1.470   .     A
C1024  C1028   1.462   .     A
C1025  C1026   1.408   .     A
C1025  C412    1.444   1_556 S
C1025  C432    1.448   1_556 S
C1026  C1027   1.420   .     A
C1026  H1054   1.086   .     S
C1027  C1084   1.361   .     S
C1028  C1045   1.462   .     A
C1028  H1056   1.080   .     S
C1029  C1045   1.413   .     A
C1029  H1051   1.082   .     S
C1029  C1044   1.415   .     A
C1030  C1046   1.428   .     A
C1030  C1032   1.541   .     S
C1031  H1088   1.067   .     S
C1031  C1037   1.449   .     A
C1031  C625    1.465   1_565 S
C1032  O1064   1.370   .     A
C1032  O1065   1.340   .     A
C1033  C1034   1.462   .     A
C1033  C1070   1.605   .     S
C1034  C1042   1.553   .     S
C1034  C1035   1.446   .     A
C1035  H1052   1.074   .     S
C1036  H1074   1.084   .     S
C1036  C1037   1.427   .     A
C1036  C627    1.420   1_565 S
C1038  H1053   0.995   .     S
C1038  N1061   1.368   .     A
C1038  C1107   1.496   .     S
C1039  N1060   1.384   .     A
C1039  C1075   1.517   .     S
C1039  C1174   1.496   1_455 S
C1040  H1079   1.094   .     S
C1040  N1060   1.426   .     A
C1040  C1177   1.511   1_455 S
C1041  N1061   1.398   .     A
C1041  C1080   1.510   .     S
C1041  C1108   1.511   .     S
C1042  O1066   1.367   .     A
C1042  O1067   1.353   .     A
C1043  O1068   1.336   .     A
C1043  C1045   1.551   .     S
C1043  O1069   1.375   .     A
C1046  H1057   1.076   .     S
C1046  C1047   1.382   .     A
C1047  C436    1.395   1_556 S
C1047  H447    1.076   1_556 S
C1048  H1058   1.063   .     S
Cu1049 O1062   2.086   .     S
Cu1049 O1066   2.091   .     S
Cu1049 N1060   2.130   .     S
Cu1049 O1064   2.069   .     S
Cu1049 O1068   2.047   .     S
Cu1050 O1067   2.086   .     S
Cu1050 O1065   2.047   .     S
Cu1050 N1061   2.130   .     S
Cu1050 O1069   2.069   .     S
Cu1050 O1063   2.091   .     S
H1055  C432    1.080   1_556 S
C1070  O1072   1.354   .     S
C1070  O1071   1.182   .     D
O1072  H1073   0.968   .     S
C1075  O1076   1.229   .     D
C1075  O1213   1.410   1_455 S
O1077  C1143   1.410   .     S
O1077  H1146   0.990   .     S
H1078  O1213   0.990   1_455 S
C1080  O1081   1.223   .     D
C1080  O1150   1.410   .     S
O1082  C1216   1.410   1_455 S
O1082  H1219   0.994   1_455 S
H1083  O1150   0.994   .     S
C1084  O1085   1.276   .     D
C1084  O1086   1.364   .     S
O1086  H1087   0.879   .     S
C1089  C1105   1.572   .     S
C1089  O1130   1.354   .     A
C1089  O1131   1.371   .     A
C1090  C1091   1.454   .     A
C1090  C480    1.525   1_556 S
C1090  C504    1.447   1_556 S
C1091  C1098   1.507   .     A
C1091  C1095   1.470   .     A
C1092  C1096   1.462   .     A
C1093  C1094   1.408   .     A
C1093  C480    1.444   1_556 S
C1093  C500    1.448   1_556 S
C1094  C1095   1.420   .     A
C1094  H1122   1.086   .     S
C1095  C1152   1.361   .     S
C1096  C1113   1.462   .     A
C1096  H1124   1.080   .     S
C1097  C1113   1.413   .     A
C1097  H1119   1.082   .     S
C1097  C1112   1.415   .     A
C1098  C1114   1.428   .     A
C1098  C1100   1.541   .     S
C1099  H1156   1.067   .     S
C1099  C1105   1.449   .     A
C1099  C693    1.465   1_565 S
C1100  O1132   1.370   .     A
C1100  O1133   1.340   .     A
C1101  C1102   1.462   .     A
C1101  C1138   1.605   .     S
C1102  C1110   1.553   .     S
C1102  C1103   1.446   .     A
C1103  H1120   1.074   .     S
C1104  H1142   1.084   .     S
C1104  C1105   1.427   .     A
C1104  C695    1.420   1_565 S
C1106  H1121   0.995   .     S
C1106  N1129   1.368   .     A
C1106  C1175   1.496   .     S
C1107  N1128   1.384   .     A
C1107  C1143   1.517   .     S
C1108  H1147   1.094   .     S
C1108  N1128   1.426   .     A
C1109  N1129   1.398   .     A
C1109  C1148   1.510   .     S
C1109  C1176   1.511   .     S
C1110  O1134   1.367   .     A
C1110  O1135   1.353   .     A
C1111  O1136   1.336   .     A
C1111  C1113   1.551   .     S
C1111  O1137   1.375   .     A
C1114  H1125   1.076   .     S
C1114  C1115   1.382   .     A
C1115  C504    1.395   1_556 S
C1115  H515    1.076   1_556 S
C1116  H1126   1.063   .     S
Cu1117 O1130   2.086   .     S
Cu1117 O1134   2.091   .     S
Cu1117 N1128   2.130   .     S
Cu1117 O1132   2.069   .     S
Cu1117 O1136   2.047   .     S
Cu1118 O1135   2.086   .     S
Cu1118 O1133   2.047   .     S
Cu1118 N1129   2.130   .     S
Cu1118 O1137   2.069   .     S
Cu1118 O1131   2.091   .     S
H1123  C500    1.080   1_556 S
C1138  O1140   1.354   .     S
C1138  O1139   1.182   .     D
O1140  H1141   0.968   .     S
C1143  O1144   1.229   .     D
O1145  C1211   1.410   .     S
O1145  H1214   0.990   .     S
C1148  O1149   1.223   .     D
C1148  O1218   1.410   .     S
H1151  O1218   0.994   .     S
C1152  O1153   1.276   .     D
C1152  O1154   1.364   .     S
O1154  H1155   0.879   .     S
C1157  C1173   1.572   .     S
C1157  O1198   1.354   .     A
C1157  O1199   1.371   .     A
C1158  C1159   1.454   .     A
C1158  C548    1.525   1_556 S
C1158  C572    1.447   1_556 S
C1159  C1166   1.507   .     A
C1159  C1163   1.470   .     A
C1160  C1164   1.462   .     A
C1161  C1162   1.408   .     A
C1161  C548    1.444   1_556 S
C1161  C568    1.448   1_556 S
C1162  C1163   1.420   .     A
C1162  H1190   1.086   .     S
C1163  C1220   1.361   .     S
C1164  C1181   1.462   .     A
C1164  H1192   1.080   .     S
C1165  C1181   1.413   .     A
C1165  H1187   1.082   .     S
C1165  C1180   1.415   .     A
C1166  C1182   1.428   .     A
C1166  C1168   1.541   .     S
C1167  H1224   1.067   .     S
C1167  C1173   1.449   .     A
C1167  C761    1.465   1_565 S
C1168  O1200   1.370   .     A
C1168  O1201   1.340   .     A
C1169  C1170   1.462   .     A
C1169  C1206   1.605   .     S
C1170  C1178   1.553   .     S
C1170  C1171   1.446   .     A
C1171  H1188   1.074   .     S
C1172  H1210   1.084   .     S
C1172  C1173   1.427   .     A
C1172  C763    1.420   1_565 S
C1174  H1189   0.995   .     S
C1174  N1197   1.368   .     A
C1174  C1039   1.496   1_655 S
C1175  N1196   1.384   .     A
C1175  C1211   1.517   .     S
C1176  H1215   1.094   .     S
C1176  N1196   1.426   .     A
C1177  N1197   1.398   .     A
C1177  C1216   1.510   .     S
C1177  C1040   1.511   1_655 S
C1178  O1202   1.367   .     A
C1178  O1203   1.353   .     A
C1179  O1204   1.336   .     A
C1179  C1181   1.551   .     S
C1179  O1205   1.375   .     A
C1182  H1193   1.076   .     S
C1182  C1183   1.382   .     A
C1183  C572    1.395   1_556 S
C1183  H583    1.076   1_556 S
C1184  H1194   1.063   .     S
Cu1185 O1198   2.086   .     S
Cu1185 O1202   2.091   .     S
Cu1185 N1196   2.130   .     S
Cu1185 O1200   2.069   .     S
Cu1185 O1204   2.047   .     S
Cu1186 O1203   2.086   .     S
Cu1186 O1201   2.047   .     S
Cu1186 N1197   2.130   .     S
Cu1186 O1205   2.069   .     S
Cu1186 O1199   2.091   .     S
H1191  C568    1.080   1_556 S
C1206  O1208   1.354   .     S
C1206  O1207   1.182   .     D
O1208  H1209   0.968   .     S
C1211  O1212   1.229   .     D
O1213  C1075   1.410   1_655 S
O1213  H1078   0.990   1_655 S
C1216  O1217   1.223   .     D
C1216  O1082   1.410   1_655 S
H1219  O1082   0.994   1_655 S
C1220  O1221   1.276   .     D
C1220  O1222   1.364   .     S
O1222  H1223   0.879   .     S
