data_str_m2_o2_o10_pcu_sym.237
_audit_creation_date              2020-01-03
_audit_creation_method            'Materials Studio'
_symmetry_space_group_name_H-M    'P1'
_symmetry_Int_Tables_number       1
_symmetry_cell_setting            triclinic
loop_
_symmetry_equiv_pos_as_xyz
  x,y,z
_cell_length_a                    26.1813
_cell_length_b                    30.3044
_cell_length_c                    27.6765
_cell_angle_alpha                 89.5514
_cell_angle_beta                  97.8693
_cell_angle_gamma                 90.1448
loop_
_atom_site_label
_atom_site_type_symbol
_atom_site_fract_x
_atom_site_fract_y
_atom_site_fract_z
_atom_site_U_iso_or_equiv
_atom_site_adp_type
_atom_site_occupancy
C1     C     0.16660   0.16479   0.25032   0.00000  Uiso   1.00
C2     C     0.16585   0.33500   0.24968   0.00000  Uiso   1.00
C3     C     0.20843   0.23068   0.05944   0.00000  Uiso   1.00
C4     C     0.12504   0.23022   0.44084   0.00000  Uiso   1.00
C5     C     0.20698   0.23152   0.11033   0.00000  Uiso   1.00
C6     C     0.12656   0.23104   0.38995   0.00000  Uiso   1.00
C7     C     0.12673   0.26822   0.09893   0.00000  Uiso   1.00
C8     C     0.20640   0.26858   0.40076   0.00000  Uiso   1.00
C9     C     0.12603   0.26780   0.04801   0.00000  Uiso   1.00
C10    C     0.20702   0.26820   0.45166   0.00000  Uiso   1.00
C11    C     0.16701   0.24903   0.02730   0.00000  Uiso   1.00
C12    C     0.16619   0.24904   0.47267   0.00000  Uiso   1.00
C13    C     0.06788   0.25000   0.23755   0.00000  Uiso   1.00
C14    C     0.26546   0.25001   0.26245   0.00000  Uiso   1.00
C15    C     0.01264   0.25011   0.23064   0.00000  Uiso   1.00
C16    C     0.32070   0.24999   0.26934   0.00000  Uiso   1.00
C17    C     0.15626   0.04591   0.29131   0.00000  Uiso   1.00
C18    C     0.14116   0.45289   0.20846   0.00000  Uiso   1.00
C19    C     0.15689   0.09191   0.29291   0.00000  Uiso   1.00
C20    C     0.13946   0.40680   0.20827   0.00000  Uiso   1.00
C21    C     0.16675   0.11627   0.25120   0.00000  Uiso   1.00
C22    C     0.16449   0.38316   0.24897   0.00000  Uiso   1.00
C23    C     0.17648   0.09368   0.20929   0.00000  Uiso   1.00
C24    C     0.18941   0.40593   0.28937   0.00000  Uiso   1.00
C25    C     0.17651   0.04785   0.20852   0.00000  Uiso   1.00
C26    C     0.19046   0.45170   0.28931   0.00000  Uiso   1.00
C27    C     0.16645   0.02377   0.24952   0.00000  Uiso   1.00
C28    C     0.16636   0.47542   0.24890   0.00000  Uiso   1.00
Cu29   Cu    0.16667   0.25000   0.29821   0.00000  Uiso   1.00
Cu30   Cu    0.16667   0.25001   0.20178   0.00000  Uiso   1.00
H31    H     0.18490   0.03120   0.17603   0.00000  Uiso   1.00
H32    H     0.21061   0.46860   0.32065   0.00000  Uiso   1.00
N33    N     0.16667   0.25001   0.12934   0.00000  Uiso   1.00
N34    N     0.16667   0.24999   0.37065   0.00000  Uiso   1.00
O35    O     0.16667   0.18573   0.29071   0.00000  Uiso   1.00
O36    O     0.16666   0.31428   0.20928   0.00000  Uiso   1.00
O37    O     0.16667   0.18573   0.20928   0.00000  Uiso   1.00
O38    O     0.16666   0.31427   0.29072   0.00000  Uiso   1.00
O39    O     0.09161   0.25000   0.28132   0.00000  Uiso   1.00
O40    O     0.24172   0.25001   0.21868   0.00000  Uiso   1.00
O41    O     0.09161   0.25000   0.19988   0.00000  Uiso   1.00
O42    O     0.24172   0.25000   0.30011   0.00000  Uiso   1.00
H43    H     0.32604   0.25030   0.19349   0.00000  Uiso   1.00
H44    H     0.00731   0.24983   0.30649   0.00000  Uiso   1.00
H45    H     0.14760   0.02744   0.32289   0.00000  Uiso   1.00
H46    H     0.12140   0.47112   0.17762   0.00000  Uiso   1.00
N47    N     0.14617   0.11313   0.33610   0.00000  Uiso   1.00
H48    H     0.11530   0.09946   0.35038   0.00000  Uiso   1.00
C49    C     0.19070   0.11801   0.37290   0.00000  Uiso   1.00
H50    H     0.20447   0.08514   0.38719   0.00000  Uiso   1.00
H51    H     0.18005   0.13787   0.40352   0.00000  Uiso   1.00
H52    H     0.22239   0.13534   0.35757   0.00000  Uiso   1.00
N53    N     0.11172   0.38464   0.16763   0.00000  Uiso   1.00
H54    H     0.11131   0.40136   0.13496   0.00000  Uiso   1.00
C55    C     0.06072   0.37005   0.17522   0.00000  Uiso   1.00
H56    H     0.03587   0.39895   0.17996   0.00000  Uiso   1.00
H57    H     0.06266   0.34828   0.20788   0.00000  Uiso   1.00
H58    H     0.04303   0.35104   0.14305   0.00000  Uiso   1.00
H59    H     0.18449   0.11142   0.17703   0.00000  Uiso   1.00
H60    H     0.20891   0.38825   0.32074   0.00000  Uiso   1.00
N61    N     0.25178   0.21184   0.04134   0.00000  Uiso   1.00
H62    H     0.28551   0.21384   0.06535   0.00000  Uiso   1.00
C63    C     0.24330   0.16796   0.02159   0.00000  Uiso   1.00
H64    H     0.27891   0.15626   0.00809   0.00000  Uiso   1.00
H65    H     0.21181   0.16804   0.49042   0.00000  Uiso   1.00
H66    H     0.23356   0.14475   0.05027   0.00000  Uiso   1.00
N67    N     0.08192   0.21086   0.45926   0.00000  Uiso   1.00
H68    H     0.04811   0.21279   0.43532   0.00000  Uiso   1.00
C69    C     0.09077   0.16684   0.47918   0.00000  Uiso   1.00
H70    H     0.05540   0.15478   0.49310   0.00000  Uiso   1.00
H71    H     0.12258   0.16682   0.01009   0.00000  Uiso   1.00
H72    H     0.10022   0.14397   0.45049   0.00000  Uiso   1.00
H73    H     0.23824   0.21680   0.13468   0.00000  Uiso   1.00
H74    H     0.09554   0.21591   0.36584   0.00000  Uiso   1.00
H75    H     0.09507   0.28326   0.11400   0.00000  Uiso   1.00
H76    H     0.23793   0.28392   0.38542   0.00000  Uiso   1.00
H77    H     0.09381   0.28260   0.02488   0.00000  Uiso   1.00
H78    H     0.23907   0.28332   0.47455   0.00000  Uiso   1.00
C79    C     0.49994   0.16479   0.25032   0.00000  Uiso   1.00
C80    C     0.49918   0.33500   0.24968   0.00000  Uiso   1.00
C81    C     0.54176   0.23068   0.05944   0.00000  Uiso   1.00
C82    C     0.45837   0.23022   0.44084   0.00000  Uiso   1.00
C83    C     0.54031   0.23152   0.11033   0.00000  Uiso   1.00
C84    C     0.45989   0.23104   0.38995   0.00000  Uiso   1.00
C85    C     0.46007   0.26822   0.09893   0.00000  Uiso   1.00
C86    C     0.53973   0.26858   0.40076   0.00000  Uiso   1.00
C87    C     0.45937   0.26780   0.04801   0.00000  Uiso   1.00
C88    C     0.54035   0.26820   0.45166   0.00000  Uiso   1.00
C89    C     0.50034   0.24903   0.02730   0.00000  Uiso   1.00
C90    C     0.49953   0.24904   0.47267   0.00000  Uiso   1.00
C91    C     0.40121   0.25000   0.23755   0.00000  Uiso   1.00
C92    C     0.59879   0.25001   0.26245   0.00000  Uiso   1.00
C93    C     0.34598   0.25011   0.23064   0.00000  Uiso   1.00
C94    C     0.65403   0.24999   0.26934   0.00000  Uiso   1.00
C95    C     0.48959   0.04591   0.29131   0.00000  Uiso   1.00
C96    C     0.47449   0.45289   0.20846   0.00000  Uiso   1.00
C97    C     0.49022   0.09191   0.29291   0.00000  Uiso   1.00
C98    C     0.47280   0.40680   0.20827   0.00000  Uiso   1.00
C99    C     0.50008   0.11627   0.25120   0.00000  Uiso   1.00
C100   C     0.49782   0.38316   0.24897   0.00000  Uiso   1.00
C101   C     0.50982   0.09368   0.20929   0.00000  Uiso   1.00
C102   C     0.52274   0.40593   0.28937   0.00000  Uiso   1.00
C103   C     0.50985   0.04785   0.20852   0.00000  Uiso   1.00
C104   C     0.52379   0.45170   0.28931   0.00000  Uiso   1.00
C105   C     0.49978   0.02377   0.24952   0.00000  Uiso   1.00
C106   C     0.49969   0.47542   0.24890   0.00000  Uiso   1.00
Cu107  Cu    0.50000   0.25000   0.29821   0.00000  Uiso   1.00
Cu108  Cu    0.50000   0.25001   0.20178   0.00000  Uiso   1.00
H109   H     0.51824   0.03120   0.17603   0.00000  Uiso   1.00
H110   H     0.54394   0.46860   0.32065   0.00000  Uiso   1.00
N111   N     0.50000   0.25001   0.12934   0.00000  Uiso   1.00
N112   N     0.50000   0.24999   0.37065   0.00000  Uiso   1.00
O113   O     0.50000   0.18573   0.29071   0.00000  Uiso   1.00
O114   O     0.50000   0.31428   0.20928   0.00000  Uiso   1.00
O115   O     0.50000   0.18573   0.20928   0.00000  Uiso   1.00
O116   O     0.50000   0.31427   0.29072   0.00000  Uiso   1.00
O117   O     0.42495   0.25000   0.28132   0.00000  Uiso   1.00
O118   O     0.57505   0.25001   0.21868   0.00000  Uiso   1.00
O119   O     0.42495   0.25000   0.19988   0.00000  Uiso   1.00
O120   O     0.57505   0.25000   0.30011   0.00000  Uiso   1.00
H121   H     0.65937   0.25030   0.19349   0.00000  Uiso   1.00
H122   H     0.34064   0.24983   0.30649   0.00000  Uiso   1.00
H123   H     0.48093   0.02744   0.32289   0.00000  Uiso   1.00
H124   H     0.45473   0.47112   0.17762   0.00000  Uiso   1.00
N125   N     0.47950   0.11313   0.33610   0.00000  Uiso   1.00
H126   H     0.44863   0.09946   0.35038   0.00000  Uiso   1.00
C127   C     0.52403   0.11801   0.37290   0.00000  Uiso   1.00
H128   H     0.53781   0.08514   0.38719   0.00000  Uiso   1.00
H129   H     0.51339   0.13787   0.40352   0.00000  Uiso   1.00
H130   H     0.55573   0.13534   0.35757   0.00000  Uiso   1.00
N131   N     0.44505   0.38464   0.16763   0.00000  Uiso   1.00
H132   H     0.44465   0.40136   0.13496   0.00000  Uiso   1.00
C133   C     0.39406   0.37005   0.17522   0.00000  Uiso   1.00
H134   H     0.36921   0.39895   0.17996   0.00000  Uiso   1.00
H135   H     0.39600   0.34828   0.20788   0.00000  Uiso   1.00
H136   H     0.37637   0.35104   0.14305   0.00000  Uiso   1.00
H137   H     0.51783   0.11142   0.17703   0.00000  Uiso   1.00
H138   H     0.54224   0.38825   0.32074   0.00000  Uiso   1.00
N139   N     0.58511   0.21184   0.04134   0.00000  Uiso   1.00
H140   H     0.61884   0.21384   0.06535   0.00000  Uiso   1.00
C141   C     0.57664   0.16796   0.02159   0.00000  Uiso   1.00
H142   H     0.61224   0.15626   0.00809   0.00000  Uiso   1.00
H143   H     0.54514   0.16804   0.49042   0.00000  Uiso   1.00
H144   H     0.56690   0.14475   0.05027   0.00000  Uiso   1.00
N145   N     0.41526   0.21086   0.45926   0.00000  Uiso   1.00
H146   H     0.38145   0.21279   0.43532   0.00000  Uiso   1.00
C147   C     0.42411   0.16684   0.47918   0.00000  Uiso   1.00
H148   H     0.38874   0.15478   0.49310   0.00000  Uiso   1.00
H149   H     0.45592   0.16682   0.01009   0.00000  Uiso   1.00
H150   H     0.43355   0.14397   0.45049   0.00000  Uiso   1.00
H151   H     0.57157   0.21680   0.13468   0.00000  Uiso   1.00
H152   H     0.42887   0.21591   0.36584   0.00000  Uiso   1.00
H153   H     0.42841   0.28326   0.11400   0.00000  Uiso   1.00
H154   H     0.57126   0.28392   0.38542   0.00000  Uiso   1.00
H155   H     0.42714   0.28260   0.02488   0.00000  Uiso   1.00
H156   H     0.57240   0.28332   0.47455   0.00000  Uiso   1.00
C157   C     0.83327   0.16479   0.25032   0.00000  Uiso   1.00
C158   C     0.83252   0.33500   0.24968   0.00000  Uiso   1.00
C159   C     0.87510   0.23068   0.05944   0.00000  Uiso   1.00
C160   C     0.79171   0.23022   0.44084   0.00000  Uiso   1.00
C161   C     0.87364   0.23152   0.11033   0.00000  Uiso   1.00
C162   C     0.79322   0.23104   0.38995   0.00000  Uiso   1.00
C163   C     0.79340   0.26822   0.09893   0.00000  Uiso   1.00
C164   C     0.87306   0.26858   0.40076   0.00000  Uiso   1.00
C165   C     0.79270   0.26780   0.04801   0.00000  Uiso   1.00
C166   C     0.87368   0.26820   0.45166   0.00000  Uiso   1.00
C167   C     0.83368   0.24903   0.02730   0.00000  Uiso   1.00
C168   C     0.83286   0.24904   0.47267   0.00000  Uiso   1.00
C169   C     0.73455   0.25000   0.23755   0.00000  Uiso   1.00
C170   C     0.93212   0.25001   0.26245   0.00000  Uiso   1.00
C171   C     0.67931   0.25011   0.23064   0.00000  Uiso   1.00
C172   C     0.98736   0.24999   0.26934   0.00000  Uiso   1.00
C173   C     0.82292   0.04591   0.29131   0.00000  Uiso   1.00
C174   C     0.80782   0.45289   0.20846   0.00000  Uiso   1.00
C175   C     0.82356   0.09191   0.29291   0.00000  Uiso   1.00
C176   C     0.80613   0.40680   0.20827   0.00000  Uiso   1.00
C177   C     0.83342   0.11627   0.25120   0.00000  Uiso   1.00
C178   C     0.83115   0.38316   0.24897   0.00000  Uiso   1.00
C179   C     0.84315   0.09368   0.20929   0.00000  Uiso   1.00
C180   C     0.85608   0.40593   0.28937   0.00000  Uiso   1.00
C181   C     0.84318   0.04785   0.20852   0.00000  Uiso   1.00
C182   C     0.85712   0.45170   0.28931   0.00000  Uiso   1.00
C183   C     0.83311   0.02377   0.24952   0.00000  Uiso   1.00
C184   C     0.83303   0.47542   0.24890   0.00000  Uiso   1.00
Cu185  Cu    0.83333   0.25000   0.29821   0.00000  Uiso   1.00
Cu186  Cu    0.83333   0.25001   0.20178   0.00000  Uiso   1.00
H187   H     0.85157   0.03120   0.17603   0.00000  Uiso   1.00
H188   H     0.87728   0.46860   0.32065   0.00000  Uiso   1.00
N189   N     0.83333   0.25001   0.12934   0.00000  Uiso   1.00
N190   N     0.83333   0.24999   0.37065   0.00000  Uiso   1.00
O191   O     0.83334   0.18573   0.29071   0.00000  Uiso   1.00
O192   O     0.83333   0.31428   0.20928   0.00000  Uiso   1.00
O193   O     0.83334   0.18573   0.20928   0.00000  Uiso   1.00
O194   O     0.83333   0.31427   0.29072   0.00000  Uiso   1.00
O195   O     0.75828   0.25000   0.28132   0.00000  Uiso   1.00
O196   O     0.90839   0.25001   0.21868   0.00000  Uiso   1.00
O197   O     0.75828   0.25000   0.19988   0.00000  Uiso   1.00
O198   O     0.90839   0.25000   0.30011   0.00000  Uiso   1.00
H199   H     0.99271   0.25030   0.19349   0.00000  Uiso   1.00
H200   H     0.67398   0.24983   0.30649   0.00000  Uiso   1.00
H201   H     0.81426   0.02744   0.32289   0.00000  Uiso   1.00
H202   H     0.78806   0.47112   0.17762   0.00000  Uiso   1.00
N203   N     0.81284   0.11313   0.33610   0.00000  Uiso   1.00
H204   H     0.78196   0.09946   0.35038   0.00000  Uiso   1.00
C205   C     0.85736   0.11801   0.37290   0.00000  Uiso   1.00
H206   H     0.87114   0.08514   0.38719   0.00000  Uiso   1.00
H207   H     0.84672   0.13787   0.40352   0.00000  Uiso   1.00
H208   H     0.88906   0.13534   0.35757   0.00000  Uiso   1.00
N209   N     0.77838   0.38464   0.16763   0.00000  Uiso   1.00
H210   H     0.77798   0.40136   0.13496   0.00000  Uiso   1.00
C211   C     0.72739   0.37005   0.17522   0.00000  Uiso   1.00
H212   H     0.70254   0.39895   0.17996   0.00000  Uiso   1.00
H213   H     0.72933   0.34828   0.20788   0.00000  Uiso   1.00
H214   H     0.70970   0.35104   0.14305   0.00000  Uiso   1.00
H215   H     0.85116   0.11142   0.17703   0.00000  Uiso   1.00
H216   H     0.87558   0.38825   0.32074   0.00000  Uiso   1.00
N217   N     0.91845   0.21184   0.04134   0.00000  Uiso   1.00
H218   H     0.95218   0.21384   0.06535   0.00000  Uiso   1.00
C219   C     0.90997   0.16796   0.02159   0.00000  Uiso   1.00
H220   H     0.94558   0.15626   0.00809   0.00000  Uiso   1.00
H221   H     0.87847   0.16804   0.49042   0.00000  Uiso   1.00
H222   H     0.90023   0.14475   0.05027   0.00000  Uiso   1.00
N223   N     0.74859   0.21086   0.45926   0.00000  Uiso   1.00
H224   H     0.71478   0.21279   0.43532   0.00000  Uiso   1.00
C225   C     0.75744   0.16684   0.47918   0.00000  Uiso   1.00
H226   H     0.72207   0.15478   0.49310   0.00000  Uiso   1.00
H227   H     0.78925   0.16682   0.01009   0.00000  Uiso   1.00
H228   H     0.76689   0.14397   0.45049   0.00000  Uiso   1.00
H229   H     0.90490   0.21680   0.13468   0.00000  Uiso   1.00
H230   H     0.76221   0.21591   0.36584   0.00000  Uiso   1.00
H231   H     0.76174   0.28326   0.11400   0.00000  Uiso   1.00
H232   H     0.90459   0.28392   0.38542   0.00000  Uiso   1.00
H233   H     0.76047   0.28260   0.02488   0.00000  Uiso   1.00
H234   H     0.90574   0.28332   0.47455   0.00000  Uiso   1.00
C235   C     0.16660   0.66479   0.25032   0.00000  Uiso   1.00
C236   C     0.16585   0.83500   0.24968   0.00000  Uiso   1.00
C237   C     0.20843   0.73068   0.05944   0.00000  Uiso   1.00
C238   C     0.12504   0.73022   0.44084   0.00000  Uiso   1.00
C239   C     0.20698   0.73152   0.11033   0.00000  Uiso   1.00
C240   C     0.12656   0.73104   0.38995   0.00000  Uiso   1.00
C241   C     0.12673   0.76822   0.09893   0.00000  Uiso   1.00
C242   C     0.20640   0.76858   0.40076   0.00000  Uiso   1.00
C243   C     0.12603   0.76780   0.04801   0.00000  Uiso   1.00
C244   C     0.20702   0.76820   0.45166   0.00000  Uiso   1.00
C245   C     0.16701   0.74903   0.02730   0.00000  Uiso   1.00
C246   C     0.16619   0.74904   0.47267   0.00000  Uiso   1.00
C247   C     0.06788   0.75000   0.23755   0.00000  Uiso   1.00
C248   C     0.26546   0.75001   0.26245   0.00000  Uiso   1.00
C249   C     0.01264   0.75011   0.23064   0.00000  Uiso   1.00
C250   C     0.32070   0.74999   0.26934   0.00000  Uiso   1.00
C251   C     0.15626   0.54591   0.29131   0.00000  Uiso   1.00
C252   C     0.14116   0.95289   0.20846   0.00000  Uiso   1.00
C253   C     0.15689   0.59191   0.29291   0.00000  Uiso   1.00
C254   C     0.13946   0.90680   0.20827   0.00000  Uiso   1.00
C255   C     0.16675   0.61627   0.25120   0.00000  Uiso   1.00
C256   C     0.16449   0.88316   0.24897   0.00000  Uiso   1.00
C257   C     0.17648   0.59368   0.20929   0.00000  Uiso   1.00
C258   C     0.18941   0.90593   0.28937   0.00000  Uiso   1.00
C259   C     0.17651   0.54785   0.20852   0.00000  Uiso   1.00
C260   C     0.19046   0.95170   0.28931   0.00000  Uiso   1.00
C261   C     0.16645   0.52377   0.24952   0.00000  Uiso   1.00
C262   C     0.16636   0.97542   0.24890   0.00000  Uiso   1.00
Cu263  Cu    0.16667   0.75000   0.29821   0.00000  Uiso   1.00
Cu264  Cu    0.16667   0.75001   0.20178   0.00000  Uiso   1.00
H265   H     0.18490   0.53120   0.17603   0.00000  Uiso   1.00
H266   H     0.21061   0.96860   0.32065   0.00000  Uiso   1.00
N267   N     0.16667   0.75001   0.12934   0.00000  Uiso   1.00
N268   N     0.16667   0.74999   0.37065   0.00000  Uiso   1.00
O269   O     0.16667   0.68573   0.29071   0.00000  Uiso   1.00
O270   O     0.16666   0.81428   0.20928   0.00000  Uiso   1.00
O271   O     0.16667   0.68573   0.20928   0.00000  Uiso   1.00
O272   O     0.16666   0.81427   0.29072   0.00000  Uiso   1.00
O273   O     0.09161   0.75000   0.28132   0.00000  Uiso   1.00
O274   O     0.24172   0.75001   0.21868   0.00000  Uiso   1.00
O275   O     0.09161   0.75000   0.19988   0.00000  Uiso   1.00
O276   O     0.24172   0.75000   0.30011   0.00000  Uiso   1.00
H277   H     0.32604   0.75030   0.19349   0.00000  Uiso   1.00
H278   H     0.00731   0.74983   0.30649   0.00000  Uiso   1.00
H279   H     0.14760   0.52744   0.32289   0.00000  Uiso   1.00
H280   H     0.12140   0.97112   0.17762   0.00000  Uiso   1.00
N281   N     0.14617   0.61313   0.33610   0.00000  Uiso   1.00
H282   H     0.11530   0.59946   0.35038   0.00000  Uiso   1.00
C283   C     0.19070   0.61801   0.37290   0.00000  Uiso   1.00
H284   H     0.20447   0.58514   0.38719   0.00000  Uiso   1.00
H285   H     0.18005   0.63787   0.40352   0.00000  Uiso   1.00
H286   H     0.22239   0.63534   0.35757   0.00000  Uiso   1.00
N287   N     0.11172   0.88464   0.16763   0.00000  Uiso   1.00
H288   H     0.11131   0.90136   0.13496   0.00000  Uiso   1.00
C289   C     0.06072   0.87005   0.17522   0.00000  Uiso   1.00
H290   H     0.03587   0.89895   0.17996   0.00000  Uiso   1.00
H291   H     0.06266   0.84828   0.20788   0.00000  Uiso   1.00
H292   H     0.04303   0.85104   0.14305   0.00000  Uiso   1.00
H293   H     0.18449   0.61142   0.17703   0.00000  Uiso   1.00
H294   H     0.20891   0.88825   0.32074   0.00000  Uiso   1.00
N295   N     0.25178   0.71184   0.04134   0.00000  Uiso   1.00
H296   H     0.28551   0.71384   0.06535   0.00000  Uiso   1.00
C297   C     0.24330   0.66796   0.02159   0.00000  Uiso   1.00
H298   H     0.27891   0.65626   0.00809   0.00000  Uiso   1.00
H299   H     0.21181   0.66804   0.49042   0.00000  Uiso   1.00
H300   H     0.23356   0.64475   0.05027   0.00000  Uiso   1.00
N301   N     0.08192   0.71086   0.45926   0.00000  Uiso   1.00
H302   H     0.04811   0.71279   0.43532   0.00000  Uiso   1.00
C303   C     0.09077   0.66684   0.47918   0.00000  Uiso   1.00
H304   H     0.05540   0.65478   0.49310   0.00000  Uiso   1.00
H305   H     0.12258   0.66682   0.01009   0.00000  Uiso   1.00
H306   H     0.10022   0.64397   0.45049   0.00000  Uiso   1.00
H307   H     0.23824   0.71680   0.13468   0.00000  Uiso   1.00
H308   H     0.09554   0.71591   0.36584   0.00000  Uiso   1.00
H309   H     0.09507   0.78326   0.11400   0.00000  Uiso   1.00
H310   H     0.23793   0.78392   0.38542   0.00000  Uiso   1.00
H311   H     0.09381   0.78260   0.02488   0.00000  Uiso   1.00
H312   H     0.23907   0.78332   0.47455   0.00000  Uiso   1.00
C313   C     0.49994   0.66479   0.25032   0.00000  Uiso   1.00
C314   C     0.49918   0.83500   0.24968   0.00000  Uiso   1.00
C315   C     0.54176   0.73068   0.05944   0.00000  Uiso   1.00
C316   C     0.45837   0.73022   0.44084   0.00000  Uiso   1.00
C317   C     0.54031   0.73152   0.11033   0.00000  Uiso   1.00
C318   C     0.45989   0.73104   0.38995   0.00000  Uiso   1.00
C319   C     0.46007   0.76822   0.09893   0.00000  Uiso   1.00
C320   C     0.53973   0.76858   0.40076   0.00000  Uiso   1.00
C321   C     0.45937   0.76780   0.04801   0.00000  Uiso   1.00
C322   C     0.54035   0.76820   0.45166   0.00000  Uiso   1.00
C323   C     0.50034   0.74903   0.02730   0.00000  Uiso   1.00
C324   C     0.49953   0.74904   0.47267   0.00000  Uiso   1.00
C325   C     0.40121   0.75000   0.23755   0.00000  Uiso   1.00
C326   C     0.59879   0.75001   0.26245   0.00000  Uiso   1.00
C327   C     0.34598   0.75011   0.23064   0.00000  Uiso   1.00
C328   C     0.65403   0.74999   0.26934   0.00000  Uiso   1.00
C329   C     0.48959   0.54591   0.29131   0.00000  Uiso   1.00
C330   C     0.47449   0.95289   0.20846   0.00000  Uiso   1.00
C331   C     0.49022   0.59191   0.29291   0.00000  Uiso   1.00
C332   C     0.47280   0.90680   0.20827   0.00000  Uiso   1.00
C333   C     0.50008   0.61627   0.25120   0.00000  Uiso   1.00
C334   C     0.49782   0.88316   0.24897   0.00000  Uiso   1.00
C335   C     0.50982   0.59368   0.20929   0.00000  Uiso   1.00
C336   C     0.52274   0.90593   0.28937   0.00000  Uiso   1.00
C337   C     0.50985   0.54785   0.20852   0.00000  Uiso   1.00
C338   C     0.52379   0.95170   0.28931   0.00000  Uiso   1.00
C339   C     0.49978   0.52377   0.24952   0.00000  Uiso   1.00
C340   C     0.49969   0.97542   0.24890   0.00000  Uiso   1.00
Cu341  Cu    0.50000   0.75000   0.29821   0.00000  Uiso   1.00
Cu342  Cu    0.50000   0.75001   0.20178   0.00000  Uiso   1.00
H343   H     0.51824   0.53120   0.17603   0.00000  Uiso   1.00
H344   H     0.54394   0.96860   0.32065   0.00000  Uiso   1.00
N345   N     0.50000   0.75001   0.12934   0.00000  Uiso   1.00
N346   N     0.50000   0.74999   0.37065   0.00000  Uiso   1.00
O347   O     0.50000   0.68573   0.29071   0.00000  Uiso   1.00
O348   O     0.50000   0.81428   0.20928   0.00000  Uiso   1.00
O349   O     0.50000   0.68573   0.20928   0.00000  Uiso   1.00
O350   O     0.50000   0.81427   0.29072   0.00000  Uiso   1.00
O351   O     0.42495   0.75000   0.28132   0.00000  Uiso   1.00
O352   O     0.57505   0.75001   0.21868   0.00000  Uiso   1.00
O353   O     0.42495   0.75000   0.19988   0.00000  Uiso   1.00
O354   O     0.57505   0.75000   0.30011   0.00000  Uiso   1.00
H355   H     0.65937   0.75030   0.19349   0.00000  Uiso   1.00
H356   H     0.34064   0.74983   0.30649   0.00000  Uiso   1.00
H357   H     0.48093   0.52744   0.32289   0.00000  Uiso   1.00
H358   H     0.45473   0.97112   0.17762   0.00000  Uiso   1.00
N359   N     0.47950   0.61313   0.33610   0.00000  Uiso   1.00
H360   H     0.44863   0.59946   0.35038   0.00000  Uiso   1.00
C361   C     0.52403   0.61801   0.37290   0.00000  Uiso   1.00
H362   H     0.53781   0.58514   0.38719   0.00000  Uiso   1.00
H363   H     0.51339   0.63787   0.40352   0.00000  Uiso   1.00
H364   H     0.55573   0.63534   0.35757   0.00000  Uiso   1.00
N365   N     0.44505   0.88464   0.16763   0.00000  Uiso   1.00
H366   H     0.44465   0.90136   0.13496   0.00000  Uiso   1.00
C367   C     0.39406   0.87005   0.17522   0.00000  Uiso   1.00
H368   H     0.36921   0.89895   0.17996   0.00000  Uiso   1.00
H369   H     0.39600   0.84828   0.20788   0.00000  Uiso   1.00
H370   H     0.37637   0.85104   0.14305   0.00000  Uiso   1.00
H371   H     0.51783   0.61142   0.17703   0.00000  Uiso   1.00
H372   H     0.54224   0.88825   0.32074   0.00000  Uiso   1.00
N373   N     0.58511   0.71184   0.04134   0.00000  Uiso   1.00
H374   H     0.61884   0.71384   0.06535   0.00000  Uiso   1.00
C375   C     0.57664   0.66796   0.02159   0.00000  Uiso   1.00
H376   H     0.61224   0.65626   0.00809   0.00000  Uiso   1.00
H377   H     0.54514   0.66804   0.49042   0.00000  Uiso   1.00
H378   H     0.56690   0.64475   0.05027   0.00000  Uiso   1.00
N379   N     0.41526   0.71086   0.45926   0.00000  Uiso   1.00
H380   H     0.38145   0.71279   0.43532   0.00000  Uiso   1.00
C381   C     0.42411   0.66684   0.47918   0.00000  Uiso   1.00
H382   H     0.38874   0.65478   0.49310   0.00000  Uiso   1.00
H383   H     0.45592   0.66682   0.01009   0.00000  Uiso   1.00
H384   H     0.43355   0.64397   0.45049   0.00000  Uiso   1.00
H385   H     0.57157   0.71680   0.13468   0.00000  Uiso   1.00
H386   H     0.42887   0.71591   0.36584   0.00000  Uiso   1.00
H387   H     0.42841   0.78326   0.11400   0.00000  Uiso   1.00
H388   H     0.57126   0.78392   0.38542   0.00000  Uiso   1.00
H389   H     0.42714   0.78260   0.02488   0.00000  Uiso   1.00
H390   H     0.57240   0.78332   0.47455   0.00000  Uiso   1.00
C391   C     0.83327   0.66479   0.25032   0.00000  Uiso   1.00
C392   C     0.83252   0.83500   0.24968   0.00000  Uiso   1.00
C393   C     0.87510   0.73068   0.05944   0.00000  Uiso   1.00
C394   C     0.79171   0.73022   0.44084   0.00000  Uiso   1.00
C395   C     0.87364   0.73152   0.11033   0.00000  Uiso   1.00
C396   C     0.79322   0.73104   0.38995   0.00000  Uiso   1.00
C397   C     0.79340   0.76822   0.09893   0.00000  Uiso   1.00
C398   C     0.87306   0.76858   0.40076   0.00000  Uiso   1.00
C399   C     0.79270   0.76780   0.04801   0.00000  Uiso   1.00
C400   C     0.87368   0.76820   0.45166   0.00000  Uiso   1.00
C401   C     0.83368   0.74903   0.02730   0.00000  Uiso   1.00
C402   C     0.83286   0.74904   0.47267   0.00000  Uiso   1.00
C403   C     0.73455   0.75000   0.23755   0.00000  Uiso   1.00
C404   C     0.93212   0.75001   0.26245   0.00000  Uiso   1.00
C405   C     0.67931   0.75011   0.23064   0.00000  Uiso   1.00
C406   C     0.98736   0.74999   0.26934   0.00000  Uiso   1.00
C407   C     0.82292   0.54591   0.29131   0.00000  Uiso   1.00
C408   C     0.80782   0.95289   0.20846   0.00000  Uiso   1.00
C409   C     0.82356   0.59191   0.29291   0.00000  Uiso   1.00
C410   C     0.80613   0.90680   0.20827   0.00000  Uiso   1.00
C411   C     0.83342   0.61627   0.25120   0.00000  Uiso   1.00
C412   C     0.83115   0.88316   0.24897   0.00000  Uiso   1.00
C413   C     0.84315   0.59368   0.20929   0.00000  Uiso   1.00
C414   C     0.85608   0.90593   0.28937   0.00000  Uiso   1.00
C415   C     0.84318   0.54785   0.20852   0.00000  Uiso   1.00
C416   C     0.85712   0.95170   0.28931   0.00000  Uiso   1.00
C417   C     0.83311   0.52377   0.24952   0.00000  Uiso   1.00
C418   C     0.83303   0.97542   0.24890   0.00000  Uiso   1.00
Cu419  Cu    0.83333   0.75000   0.29821   0.00000  Uiso   1.00
Cu420  Cu    0.83333   0.75001   0.20178   0.00000  Uiso   1.00
H421   H     0.85157   0.53120   0.17603   0.00000  Uiso   1.00
H422   H     0.87728   0.96860   0.32065   0.00000  Uiso   1.00
N423   N     0.83333   0.75001   0.12934   0.00000  Uiso   1.00
N424   N     0.83333   0.74999   0.37065   0.00000  Uiso   1.00
O425   O     0.83334   0.68573   0.29071   0.00000  Uiso   1.00
O426   O     0.83333   0.81428   0.20928   0.00000  Uiso   1.00
O427   O     0.83334   0.68573   0.20928   0.00000  Uiso   1.00
O428   O     0.83333   0.81427   0.29072   0.00000  Uiso   1.00
O429   O     0.75828   0.75000   0.28132   0.00000  Uiso   1.00
O430   O     0.90839   0.75001   0.21868   0.00000  Uiso   1.00
O431   O     0.75828   0.75000   0.19988   0.00000  Uiso   1.00
O432   O     0.90839   0.75000   0.30011   0.00000  Uiso   1.00
H433   H     0.99271   0.75030   0.19349   0.00000  Uiso   1.00
H434   H     0.67398   0.74983   0.30649   0.00000  Uiso   1.00
H435   H     0.81426   0.52744   0.32289   0.00000  Uiso   1.00
H436   H     0.78806   0.97112   0.17762   0.00000  Uiso   1.00
N437   N     0.81284   0.61313   0.33610   0.00000  Uiso   1.00
H438   H     0.78196   0.59946   0.35038   0.00000  Uiso   1.00
C439   C     0.85736   0.61801   0.37290   0.00000  Uiso   1.00
H440   H     0.87114   0.58514   0.38719   0.00000  Uiso   1.00
H441   H     0.84672   0.63787   0.40352   0.00000  Uiso   1.00
H442   H     0.88906   0.63534   0.35757   0.00000  Uiso   1.00
N443   N     0.77838   0.88464   0.16763   0.00000  Uiso   1.00
H444   H     0.77798   0.90136   0.13496   0.00000  Uiso   1.00
C445   C     0.72739   0.87005   0.17522   0.00000  Uiso   1.00
H446   H     0.70254   0.89895   0.17996   0.00000  Uiso   1.00
H447   H     0.72933   0.84828   0.20788   0.00000  Uiso   1.00
H448   H     0.70970   0.85104   0.14305   0.00000  Uiso   1.00
H449   H     0.85116   0.61142   0.17703   0.00000  Uiso   1.00
H450   H     0.87558   0.88825   0.32074   0.00000  Uiso   1.00
N451   N     0.91845   0.71184   0.04134   0.00000  Uiso   1.00
H452   H     0.95218   0.71384   0.06535   0.00000  Uiso   1.00
C453   C     0.90997   0.66796   0.02159   0.00000  Uiso   1.00
H454   H     0.94558   0.65626   0.00809   0.00000  Uiso   1.00
H455   H     0.87847   0.66804   0.49042   0.00000  Uiso   1.00
H456   H     0.90023   0.64475   0.05027   0.00000  Uiso   1.00
N457   N     0.74859   0.71086   0.45926   0.00000  Uiso   1.00
H458   H     0.71478   0.71279   0.43532   0.00000  Uiso   1.00
C459   C     0.75744   0.66684   0.47918   0.00000  Uiso   1.00
H460   H     0.72207   0.65478   0.49310   0.00000  Uiso   1.00
H461   H     0.78925   0.66682   0.01009   0.00000  Uiso   1.00
H462   H     0.76689   0.64397   0.45049   0.00000  Uiso   1.00
H463   H     0.90490   0.71680   0.13468   0.00000  Uiso   1.00
H464   H     0.76221   0.71591   0.36584   0.00000  Uiso   1.00
H465   H     0.76174   0.78326   0.11400   0.00000  Uiso   1.00
H466   H     0.90459   0.78392   0.38542   0.00000  Uiso   1.00
H467   H     0.76047   0.78260   0.02488   0.00000  Uiso   1.00
H468   H     0.90574   0.78332   0.47455   0.00000  Uiso   1.00
C469   C     0.16660   0.16479   0.75032   0.00000  Uiso   1.00
C470   C     0.16585   0.33500   0.74968   0.00000  Uiso   1.00
C471   C     0.20843   0.23068   0.55944   0.00000  Uiso   1.00
C472   C     0.12504   0.23022   0.94084   0.00000  Uiso   1.00
C473   C     0.20698   0.23152   0.61033   0.00000  Uiso   1.00
C474   C     0.12656   0.23104   0.88995   0.00000  Uiso   1.00
C475   C     0.12673   0.26822   0.59893   0.00000  Uiso   1.00
C476   C     0.20640   0.26858   0.90076   0.00000  Uiso   1.00
C477   C     0.12603   0.26780   0.54801   0.00000  Uiso   1.00
C478   C     0.20702   0.26820   0.95166   0.00000  Uiso   1.00
C479   C     0.16701   0.24903   0.52730   0.00000  Uiso   1.00
C480   C     0.16619   0.24904   0.97267   0.00000  Uiso   1.00
C481   C     0.06788   0.25000   0.73755   0.00000  Uiso   1.00
C482   C     0.26546   0.25001   0.76245   0.00000  Uiso   1.00
C483   C     0.01264   0.25011   0.73064   0.00000  Uiso   1.00
C484   C     0.32070   0.24999   0.76934   0.00000  Uiso   1.00
C485   C     0.15626   0.04591   0.79131   0.00000  Uiso   1.00
C486   C     0.14116   0.45289   0.70846   0.00000  Uiso   1.00
C487   C     0.15689   0.09191   0.79291   0.00000  Uiso   1.00
C488   C     0.13946   0.40680   0.70827   0.00000  Uiso   1.00
C489   C     0.16675   0.11627   0.75120   0.00000  Uiso   1.00
C490   C     0.16449   0.38316   0.74897   0.00000  Uiso   1.00
C491   C     0.17648   0.09368   0.70929   0.00000  Uiso   1.00
C492   C     0.18941   0.40593   0.78937   0.00000  Uiso   1.00
C493   C     0.17651   0.04785   0.70852   0.00000  Uiso   1.00
C494   C     0.19046   0.45170   0.78931   0.00000  Uiso   1.00
C495   C     0.16645   0.02377   0.74952   0.00000  Uiso   1.00
C496   C     0.16636   0.47542   0.74890   0.00000  Uiso   1.00
Cu497  Cu    0.16667   0.25000   0.79821   0.00000  Uiso   1.00
Cu498  Cu    0.16667   0.25001   0.70178   0.00000  Uiso   1.00
H499   H     0.18490   0.03120   0.67603   0.00000  Uiso   1.00
H500   H     0.21061   0.46860   0.82065   0.00000  Uiso   1.00
N501   N     0.16667   0.25001   0.62934   0.00000  Uiso   1.00
N502   N     0.16667   0.24999   0.87065   0.00000  Uiso   1.00
O503   O     0.16667   0.18573   0.79071   0.00000  Uiso   1.00
O504   O     0.16666   0.31428   0.70928   0.00000  Uiso   1.00
O505   O     0.16667   0.18573   0.70928   0.00000  Uiso   1.00
O506   O     0.16666   0.31427   0.79072   0.00000  Uiso   1.00
O507   O     0.09161   0.25000   0.78132   0.00000  Uiso   1.00
O508   O     0.24172   0.25001   0.71868   0.00000  Uiso   1.00
O509   O     0.09161   0.25000   0.69988   0.00000  Uiso   1.00
O510   O     0.24172   0.25000   0.80011   0.00000  Uiso   1.00
H511   H     0.32604   0.25030   0.69349   0.00000  Uiso   1.00
H512   H     0.00731   0.24983   0.80649   0.00000  Uiso   1.00
H513   H     0.14760   0.02744   0.82289   0.00000  Uiso   1.00
H514   H     0.12140   0.47112   0.67762   0.00000  Uiso   1.00
N515   N     0.14617   0.11313   0.83610   0.00000  Uiso   1.00
H516   H     0.11530   0.09946   0.85038   0.00000  Uiso   1.00
C517   C     0.19070   0.11801   0.87290   0.00000  Uiso   1.00
H518   H     0.20447   0.08514   0.88719   0.00000  Uiso   1.00
H519   H     0.18005   0.13787   0.90352   0.00000  Uiso   1.00
H520   H     0.22239   0.13534   0.85757   0.00000  Uiso   1.00
N521   N     0.11172   0.38464   0.66763   0.00000  Uiso   1.00
H522   H     0.11131   0.40136   0.63496   0.00000  Uiso   1.00
C523   C     0.06072   0.37005   0.67522   0.00000  Uiso   1.00
H524   H     0.03587   0.39895   0.67996   0.00000  Uiso   1.00
H525   H     0.06266   0.34828   0.70788   0.00000  Uiso   1.00
H526   H     0.04303   0.35104   0.64305   0.00000  Uiso   1.00
H527   H     0.18449   0.11142   0.67703   0.00000  Uiso   1.00
H528   H     0.20891   0.38825   0.82074   0.00000  Uiso   1.00
N529   N     0.25178   0.21184   0.54134   0.00000  Uiso   1.00
H530   H     0.28551   0.21384   0.56535   0.00000  Uiso   1.00
C531   C     0.24330   0.16796   0.52159   0.00000  Uiso   1.00
H532   H     0.27891   0.15626   0.50809   0.00000  Uiso   1.00
H533   H     0.21181   0.16804   0.99042   0.00000  Uiso   1.00
H534   H     0.23356   0.14475   0.55027   0.00000  Uiso   1.00
N535   N     0.08192   0.21086   0.95926   0.00000  Uiso   1.00
H536   H     0.04811   0.21279   0.93532   0.00000  Uiso   1.00
C537   C     0.09077   0.16684   0.97918   0.00000  Uiso   1.00
H538   H     0.05540   0.15478   0.99310   0.00000  Uiso   1.00
H539   H     0.12258   0.16682   0.51009   0.00000  Uiso   1.00
H540   H     0.10022   0.14397   0.95049   0.00000  Uiso   1.00
H541   H     0.23824   0.21680   0.63468   0.00000  Uiso   1.00
H542   H     0.09554   0.21591   0.86584   0.00000  Uiso   1.00
H543   H     0.09507   0.28326   0.61400   0.00000  Uiso   1.00
H544   H     0.23793   0.28392   0.88542   0.00000  Uiso   1.00
H545   H     0.09381   0.28260   0.52488   0.00000  Uiso   1.00
H546   H     0.23907   0.28332   0.97455   0.00000  Uiso   1.00
C547   C     0.49994   0.16479   0.75032   0.00000  Uiso   1.00
C548   C     0.49918   0.33500   0.74968   0.00000  Uiso   1.00
C549   C     0.54176   0.23068   0.55944   0.00000  Uiso   1.00
C550   C     0.45837   0.23022   0.94084   0.00000  Uiso   1.00
C551   C     0.54031   0.23152   0.61033   0.00000  Uiso   1.00
C552   C     0.45989   0.23104   0.88995   0.00000  Uiso   1.00
C553   C     0.46007   0.26822   0.59893   0.00000  Uiso   1.00
C554   C     0.53973   0.26858   0.90076   0.00000  Uiso   1.00
C555   C     0.45937   0.26780   0.54801   0.00000  Uiso   1.00
C556   C     0.54035   0.26820   0.95166   0.00000  Uiso   1.00
C557   C     0.50034   0.24903   0.52730   0.00000  Uiso   1.00
C558   C     0.49953   0.24904   0.97267   0.00000  Uiso   1.00
C559   C     0.40121   0.25000   0.73755   0.00000  Uiso   1.00
C560   C     0.59879   0.25001   0.76245   0.00000  Uiso   1.00
C561   C     0.34598   0.25011   0.73064   0.00000  Uiso   1.00
C562   C     0.65403   0.24999   0.76934   0.00000  Uiso   1.00
C563   C     0.48959   0.04591   0.79131   0.00000  Uiso   1.00
C564   C     0.47449   0.45289   0.70846   0.00000  Uiso   1.00
C565   C     0.49022   0.09191   0.79291   0.00000  Uiso   1.00
C566   C     0.47280   0.40680   0.70827   0.00000  Uiso   1.00
C567   C     0.50008   0.11627   0.75120   0.00000  Uiso   1.00
C568   C     0.49782   0.38316   0.74897   0.00000  Uiso   1.00
C569   C     0.50982   0.09368   0.70929   0.00000  Uiso   1.00
C570   C     0.52274   0.40593   0.78937   0.00000  Uiso   1.00
C571   C     0.50985   0.04785   0.70852   0.00000  Uiso   1.00
C572   C     0.52379   0.45170   0.78931   0.00000  Uiso   1.00
C573   C     0.49978   0.02377   0.74952   0.00000  Uiso   1.00
C574   C     0.49969   0.47542   0.74890   0.00000  Uiso   1.00
Cu575  Cu    0.50000   0.25000   0.79821   0.00000  Uiso   1.00
Cu576  Cu    0.50000   0.25001   0.70178   0.00000  Uiso   1.00
H577   H     0.51824   0.03120   0.67603   0.00000  Uiso   1.00
H578   H     0.54394   0.46860   0.82065   0.00000  Uiso   1.00
N579   N     0.50000   0.25001   0.62934   0.00000  Uiso   1.00
N580   N     0.50000   0.24999   0.87065   0.00000  Uiso   1.00
O581   O     0.50000   0.18573   0.79071   0.00000  Uiso   1.00
O582   O     0.50000   0.31428   0.70928   0.00000  Uiso   1.00
O583   O     0.50000   0.18573   0.70928   0.00000  Uiso   1.00
O584   O     0.50000   0.31427   0.79072   0.00000  Uiso   1.00
O585   O     0.42495   0.25000   0.78132   0.00000  Uiso   1.00
O586   O     0.57505   0.25001   0.71868   0.00000  Uiso   1.00
O587   O     0.42495   0.25000   0.69988   0.00000  Uiso   1.00
O588   O     0.57505   0.25000   0.80011   0.00000  Uiso   1.00
H589   H     0.65937   0.25030   0.69349   0.00000  Uiso   1.00
H590   H     0.34064   0.24983   0.80649   0.00000  Uiso   1.00
H591   H     0.48093   0.02744   0.82289   0.00000  Uiso   1.00
H592   H     0.45473   0.47112   0.67762   0.00000  Uiso   1.00
N593   N     0.47950   0.11313   0.83610   0.00000  Uiso   1.00
H594   H     0.44863   0.09946   0.85038   0.00000  Uiso   1.00
C595   C     0.52403   0.11801   0.87290   0.00000  Uiso   1.00
H596   H     0.53781   0.08514   0.88719   0.00000  Uiso   1.00
H597   H     0.51339   0.13787   0.90352   0.00000  Uiso   1.00
H598   H     0.55573   0.13534   0.85757   0.00000  Uiso   1.00
N599   N     0.44505   0.38464   0.66763   0.00000  Uiso   1.00
H600   H     0.44465   0.40136   0.63496   0.00000  Uiso   1.00
C601   C     0.39406   0.37005   0.67522   0.00000  Uiso   1.00
H602   H     0.36921   0.39895   0.67996   0.00000  Uiso   1.00
H603   H     0.39600   0.34828   0.70788   0.00000  Uiso   1.00
H604   H     0.37637   0.35104   0.64305   0.00000  Uiso   1.00
H605   H     0.51783   0.11142   0.67703   0.00000  Uiso   1.00
H606   H     0.54224   0.38825   0.82074   0.00000  Uiso   1.00
N607   N     0.58511   0.21184   0.54134   0.00000  Uiso   1.00
H608   H     0.61884   0.21384   0.56535   0.00000  Uiso   1.00
C609   C     0.57664   0.16796   0.52159   0.00000  Uiso   1.00
H610   H     0.61224   0.15626   0.50809   0.00000  Uiso   1.00
H611   H     0.54514   0.16804   0.99042   0.00000  Uiso   1.00
H612   H     0.56690   0.14475   0.55027   0.00000  Uiso   1.00
N613   N     0.41526   0.21086   0.95926   0.00000  Uiso   1.00
H614   H     0.38145   0.21279   0.93532   0.00000  Uiso   1.00
C615   C     0.42411   0.16684   0.97918   0.00000  Uiso   1.00
H616   H     0.38874   0.15478   0.99310   0.00000  Uiso   1.00
H617   H     0.45592   0.16682   0.51009   0.00000  Uiso   1.00
H618   H     0.43355   0.14397   0.95049   0.00000  Uiso   1.00
H619   H     0.57157   0.21680   0.63468   0.00000  Uiso   1.00
H620   H     0.42887   0.21591   0.86584   0.00000  Uiso   1.00
H621   H     0.42841   0.28326   0.61400   0.00000  Uiso   1.00
H622   H     0.57126   0.28392   0.88542   0.00000  Uiso   1.00
H623   H     0.42714   0.28260   0.52488   0.00000  Uiso   1.00
H624   H     0.57240   0.28332   0.97455   0.00000  Uiso   1.00
C625   C     0.83327   0.16479   0.75032   0.00000  Uiso   1.00
C626   C     0.83252   0.33500   0.74968   0.00000  Uiso   1.00
C627   C     0.87510   0.23068   0.55944   0.00000  Uiso   1.00
C628   C     0.79171   0.23022   0.94084   0.00000  Uiso   1.00
C629   C     0.87364   0.23152   0.61033   0.00000  Uiso   1.00
C630   C     0.79322   0.23104   0.88995   0.00000  Uiso   1.00
C631   C     0.79340   0.26822   0.59893   0.00000  Uiso   1.00
C632   C     0.87306   0.26858   0.90076   0.00000  Uiso   1.00
C633   C     0.79270   0.26780   0.54801   0.00000  Uiso   1.00
C634   C     0.87368   0.26820   0.95166   0.00000  Uiso   1.00
C635   C     0.83368   0.24903   0.52730   0.00000  Uiso   1.00
C636   C     0.83286   0.24904   0.97267   0.00000  Uiso   1.00
C637   C     0.73455   0.25000   0.73755   0.00000  Uiso   1.00
C638   C     0.93212   0.25001   0.76245   0.00000  Uiso   1.00
C639   C     0.67931   0.25011   0.73064   0.00000  Uiso   1.00
C640   C     0.98736   0.24999   0.76934   0.00000  Uiso   1.00
C641   C     0.82292   0.04591   0.79131   0.00000  Uiso   1.00
C642   C     0.80782   0.45289   0.70846   0.00000  Uiso   1.00
C643   C     0.82356   0.09191   0.79291   0.00000  Uiso   1.00
C644   C     0.80613   0.40680   0.70827   0.00000  Uiso   1.00
C645   C     0.83342   0.11627   0.75120   0.00000  Uiso   1.00
C646   C     0.83115   0.38316   0.74897   0.00000  Uiso   1.00
C647   C     0.84315   0.09368   0.70929   0.00000  Uiso   1.00
C648   C     0.85608   0.40593   0.78937   0.00000  Uiso   1.00
C649   C     0.84318   0.04785   0.70852   0.00000  Uiso   1.00
C650   C     0.85712   0.45170   0.78931   0.00000  Uiso   1.00
C651   C     0.83311   0.02377   0.74952   0.00000  Uiso   1.00
C652   C     0.83303   0.47542   0.74890   0.00000  Uiso   1.00
Cu653  Cu    0.83333   0.25000   0.79821   0.00000  Uiso   1.00
Cu654  Cu    0.83333   0.25001   0.70178   0.00000  Uiso   1.00
H655   H     0.85157   0.03120   0.67603   0.00000  Uiso   1.00
H656   H     0.87728   0.46860   0.82065   0.00000  Uiso   1.00
N657   N     0.83333   0.25001   0.62934   0.00000  Uiso   1.00
N658   N     0.83333   0.24999   0.87065   0.00000  Uiso   1.00
O659   O     0.83334   0.18573   0.79071   0.00000  Uiso   1.00
O660   O     0.83333   0.31428   0.70928   0.00000  Uiso   1.00
O661   O     0.83334   0.18573   0.70928   0.00000  Uiso   1.00
O662   O     0.83333   0.31427   0.79072   0.00000  Uiso   1.00
O663   O     0.75828   0.25000   0.78132   0.00000  Uiso   1.00
O664   O     0.90839   0.25001   0.71868   0.00000  Uiso   1.00
O665   O     0.75828   0.25000   0.69988   0.00000  Uiso   1.00
O666   O     0.90839   0.25000   0.80011   0.00000  Uiso   1.00
H667   H     0.99271   0.25030   0.69349   0.00000  Uiso   1.00
H668   H     0.67398   0.24983   0.80649   0.00000  Uiso   1.00
H669   H     0.81426   0.02744   0.82289   0.00000  Uiso   1.00
H670   H     0.78806   0.47112   0.67762   0.00000  Uiso   1.00
N671   N     0.81284   0.11313   0.83610   0.00000  Uiso   1.00
H672   H     0.78196   0.09946   0.85038   0.00000  Uiso   1.00
C673   C     0.85736   0.11801   0.87290   0.00000  Uiso   1.00
H674   H     0.87114   0.08514   0.88719   0.00000  Uiso   1.00
H675   H     0.84672   0.13787   0.90352   0.00000  Uiso   1.00
H676   H     0.88906   0.13534   0.85757   0.00000  Uiso   1.00
N677   N     0.77838   0.38464   0.66763   0.00000  Uiso   1.00
H678   H     0.77798   0.40136   0.63496   0.00000  Uiso   1.00
C679   C     0.72739   0.37005   0.67522   0.00000  Uiso   1.00
H680   H     0.70254   0.39895   0.67996   0.00000  Uiso   1.00
H681   H     0.72933   0.34828   0.70788   0.00000  Uiso   1.00
H682   H     0.70970   0.35104   0.64305   0.00000  Uiso   1.00
H683   H     0.85116   0.11142   0.67703   0.00000  Uiso   1.00
H684   H     0.87558   0.38825   0.82074   0.00000  Uiso   1.00
N685   N     0.91845   0.21184   0.54134   0.00000  Uiso   1.00
H686   H     0.95218   0.21384   0.56535   0.00000  Uiso   1.00
C687   C     0.90997   0.16796   0.52159   0.00000  Uiso   1.00
H688   H     0.94558   0.15626   0.50809   0.00000  Uiso   1.00
H689   H     0.87847   0.16804   0.99042   0.00000  Uiso   1.00
H690   H     0.90023   0.14475   0.55027   0.00000  Uiso   1.00
N691   N     0.74859   0.21086   0.95926   0.00000  Uiso   1.00
H692   H     0.71478   0.21279   0.93532   0.00000  Uiso   1.00
C693   C     0.75744   0.16684   0.97918   0.00000  Uiso   1.00
H694   H     0.72207   0.15478   0.99310   0.00000  Uiso   1.00
H695   H     0.78925   0.16682   0.51009   0.00000  Uiso   1.00
H696   H     0.76689   0.14397   0.95049   0.00000  Uiso   1.00
H697   H     0.90490   0.21680   0.63468   0.00000  Uiso   1.00
H698   H     0.76221   0.21591   0.86584   0.00000  Uiso   1.00
H699   H     0.76174   0.28326   0.61400   0.00000  Uiso   1.00
H700   H     0.90459   0.28392   0.88542   0.00000  Uiso   1.00
H701   H     0.76047   0.28260   0.52488   0.00000  Uiso   1.00
H702   H     0.90574   0.28332   0.97455   0.00000  Uiso   1.00
C703   C     0.16660   0.66479   0.75032   0.00000  Uiso   1.00
C704   C     0.16585   0.83500   0.74968   0.00000  Uiso   1.00
C705   C     0.20843   0.73068   0.55944   0.00000  Uiso   1.00
C706   C     0.12504   0.73022   0.94084   0.00000  Uiso   1.00
C707   C     0.20698   0.73152   0.61033   0.00000  Uiso   1.00
C708   C     0.12656   0.73104   0.88995   0.00000  Uiso   1.00
C709   C     0.12673   0.76822   0.59893   0.00000  Uiso   1.00
C710   C     0.20640   0.76858   0.90076   0.00000  Uiso   1.00
C711   C     0.12603   0.76780   0.54801   0.00000  Uiso   1.00
C712   C     0.20702   0.76820   0.95166   0.00000  Uiso   1.00
C713   C     0.16701   0.74903   0.52730   0.00000  Uiso   1.00
C714   C     0.16619   0.74904   0.97267   0.00000  Uiso   1.00
C715   C     0.06788   0.75000   0.73755   0.00000  Uiso   1.00
C716   C     0.26546   0.75001   0.76245   0.00000  Uiso   1.00
C717   C     0.01264   0.75011   0.73064   0.00000  Uiso   1.00
C718   C     0.32070   0.74999   0.76934   0.00000  Uiso   1.00
C719   C     0.15626   0.54591   0.79131   0.00000  Uiso   1.00
C720   C     0.14116   0.95289   0.70846   0.00000  Uiso   1.00
C721   C     0.15689   0.59191   0.79291   0.00000  Uiso   1.00
C722   C     0.13946   0.90680   0.70827   0.00000  Uiso   1.00
C723   C     0.16675   0.61627   0.75120   0.00000  Uiso   1.00
C724   C     0.16449   0.88316   0.74897   0.00000  Uiso   1.00
C725   C     0.17648   0.59368   0.70929   0.00000  Uiso   1.00
C726   C     0.18941   0.90593   0.78937   0.00000  Uiso   1.00
C727   C     0.17651   0.54785   0.70852   0.00000  Uiso   1.00
C728   C     0.19046   0.95170   0.78931   0.00000  Uiso   1.00
C729   C     0.16645   0.52377   0.74952   0.00000  Uiso   1.00
C730   C     0.16636   0.97542   0.74890   0.00000  Uiso   1.00
Cu731  Cu    0.16667   0.75000   0.79821   0.00000  Uiso   1.00
Cu732  Cu    0.16667   0.75001   0.70178   0.00000  Uiso   1.00
H733   H     0.18490   0.53120   0.67603   0.00000  Uiso   1.00
H734   H     0.21061   0.96860   0.82065   0.00000  Uiso   1.00
N735   N     0.16667   0.75001   0.62934   0.00000  Uiso   1.00
N736   N     0.16667   0.74999   0.87065   0.00000  Uiso   1.00
O737   O     0.16667   0.68573   0.79071   0.00000  Uiso   1.00
O738   O     0.16666   0.81428   0.70928   0.00000  Uiso   1.00
O739   O     0.16667   0.68573   0.70928   0.00000  Uiso   1.00
O740   O     0.16666   0.81427   0.79072   0.00000  Uiso   1.00
O741   O     0.09161   0.75000   0.78132   0.00000  Uiso   1.00
O742   O     0.24172   0.75001   0.71868   0.00000  Uiso   1.00
O743   O     0.09161   0.75000   0.69988   0.00000  Uiso   1.00
O744   O     0.24172   0.75000   0.80011   0.00000  Uiso   1.00
H745   H     0.32604   0.75030   0.69349   0.00000  Uiso   1.00
H746   H     0.00731   0.74983   0.80649   0.00000  Uiso   1.00
H747   H     0.14760   0.52744   0.82289   0.00000  Uiso   1.00
H748   H     0.12140   0.97112   0.67762   0.00000  Uiso   1.00
N749   N     0.14617   0.61313   0.83610   0.00000  Uiso   1.00
H750   H     0.11530   0.59946   0.85038   0.00000  Uiso   1.00
C751   C     0.19070   0.61801   0.87290   0.00000  Uiso   1.00
H752   H     0.20447   0.58514   0.88719   0.00000  Uiso   1.00
H753   H     0.18005   0.63787   0.90352   0.00000  Uiso   1.00
H754   H     0.22239   0.63534   0.85757   0.00000  Uiso   1.00
N755   N     0.11172   0.88464   0.66763   0.00000  Uiso   1.00
H756   H     0.11131   0.90136   0.63496   0.00000  Uiso   1.00
C757   C     0.06072   0.87005   0.67522   0.00000  Uiso   1.00
H758   H     0.03587   0.89895   0.67996   0.00000  Uiso   1.00
H759   H     0.06266   0.84828   0.70788   0.00000  Uiso   1.00
H760   H     0.04303   0.85104   0.64305   0.00000  Uiso   1.00
H761   H     0.18449   0.61142   0.67703   0.00000  Uiso   1.00
H762   H     0.20891   0.88825   0.82074   0.00000  Uiso   1.00
N763   N     0.25178   0.71184   0.54134   0.00000  Uiso   1.00
H764   H     0.28551   0.71384   0.56535   0.00000  Uiso   1.00
C765   C     0.24330   0.66796   0.52159   0.00000  Uiso   1.00
H766   H     0.27891   0.65626   0.50809   0.00000  Uiso   1.00
H767   H     0.21181   0.66804   0.99042   0.00000  Uiso   1.00
H768   H     0.23356   0.64475   0.55027   0.00000  Uiso   1.00
N769   N     0.08192   0.71086   0.95926   0.00000  Uiso   1.00
H770   H     0.04811   0.71279   0.93532   0.00000  Uiso   1.00
C771   C     0.09077   0.66684   0.97918   0.00000  Uiso   1.00
H772   H     0.05540   0.65478   0.99310   0.00000  Uiso   1.00
H773   H     0.12258   0.66682   0.51009   0.00000  Uiso   1.00
H774   H     0.10022   0.64397   0.95049   0.00000  Uiso   1.00
H775   H     0.23824   0.71680   0.63468   0.00000  Uiso   1.00
H776   H     0.09554   0.71591   0.86584   0.00000  Uiso   1.00
H777   H     0.09507   0.78326   0.61400   0.00000  Uiso   1.00
H778   H     0.23793   0.78392   0.88542   0.00000  Uiso   1.00
H779   H     0.09381   0.78260   0.52488   0.00000  Uiso   1.00
H780   H     0.23907   0.78332   0.97455   0.00000  Uiso   1.00
C781   C     0.49994   0.66479   0.75032   0.00000  Uiso   1.00
C782   C     0.49918   0.83500   0.74968   0.00000  Uiso   1.00
C783   C     0.54176   0.73068   0.55944   0.00000  Uiso   1.00
C784   C     0.45837   0.73022   0.94084   0.00000  Uiso   1.00
C785   C     0.54031   0.73152   0.61033   0.00000  Uiso   1.00
C786   C     0.45989   0.73104   0.88995   0.00000  Uiso   1.00
C787   C     0.46007   0.76822   0.59893   0.00000  Uiso   1.00
C788   C     0.53973   0.76858   0.90076   0.00000  Uiso   1.00
C789   C     0.45937   0.76780   0.54801   0.00000  Uiso   1.00
C790   C     0.54035   0.76820   0.95166   0.00000  Uiso   1.00
C791   C     0.50034   0.74903   0.52730   0.00000  Uiso   1.00
C792   C     0.49953   0.74904   0.97267   0.00000  Uiso   1.00
C793   C     0.40121   0.75000   0.73755   0.00000  Uiso   1.00
C794   C     0.59879   0.75001   0.76245   0.00000  Uiso   1.00
C795   C     0.34598   0.75011   0.73064   0.00000  Uiso   1.00
C796   C     0.65403   0.74999   0.76934   0.00000  Uiso   1.00
C797   C     0.48959   0.54591   0.79131   0.00000  Uiso   1.00
C798   C     0.47449   0.95289   0.70846   0.00000  Uiso   1.00
C799   C     0.49022   0.59191   0.79291   0.00000  Uiso   1.00
C800   C     0.47280   0.90680   0.70827   0.00000  Uiso   1.00
C801   C     0.50008   0.61627   0.75120   0.00000  Uiso   1.00
C802   C     0.49782   0.88316   0.74897   0.00000  Uiso   1.00
C803   C     0.50982   0.59368   0.70929   0.00000  Uiso   1.00
C804   C     0.52274   0.90593   0.78937   0.00000  Uiso   1.00
C805   C     0.50985   0.54785   0.70852   0.00000  Uiso   1.00
C806   C     0.52379   0.95170   0.78931   0.00000  Uiso   1.00
C807   C     0.49978   0.52377   0.74952   0.00000  Uiso   1.00
C808   C     0.49969   0.97542   0.74890   0.00000  Uiso   1.00
Cu809  Cu    0.50000   0.75000   0.79821   0.00000  Uiso   1.00
Cu810  Cu    0.50000   0.75001   0.70178   0.00000  Uiso   1.00
H811   H     0.51824   0.53120   0.67603   0.00000  Uiso   1.00
H812   H     0.54394   0.96860   0.82065   0.00000  Uiso   1.00
N813   N     0.50000   0.75001   0.62934   0.00000  Uiso   1.00
N814   N     0.50000   0.74999   0.87065   0.00000  Uiso   1.00
O815   O     0.50000   0.68573   0.79071   0.00000  Uiso   1.00
O816   O     0.50000   0.81428   0.70928   0.00000  Uiso   1.00
O817   O     0.50000   0.68573   0.70928   0.00000  Uiso   1.00
O818   O     0.50000   0.81427   0.79072   0.00000  Uiso   1.00
O819   O     0.42495   0.75000   0.78132   0.00000  Uiso   1.00
O820   O     0.57505   0.75001   0.71868   0.00000  Uiso   1.00
O821   O     0.42495   0.75000   0.69988   0.00000  Uiso   1.00
O822   O     0.57505   0.75000   0.80011   0.00000  Uiso   1.00
H823   H     0.65937   0.75030   0.69349   0.00000  Uiso   1.00
H824   H     0.34064   0.74983   0.80649   0.00000  Uiso   1.00
H825   H     0.48093   0.52744   0.82289   0.00000  Uiso   1.00
H826   H     0.45473   0.97112   0.67762   0.00000  Uiso   1.00
N827   N     0.47950   0.61313   0.83610   0.00000  Uiso   1.00
H828   H     0.44863   0.59946   0.85038   0.00000  Uiso   1.00
C829   C     0.52403   0.61801   0.87290   0.00000  Uiso   1.00
H830   H     0.53781   0.58514   0.88719   0.00000  Uiso   1.00
H831   H     0.51339   0.63787   0.90352   0.00000  Uiso   1.00
H832   H     0.55573   0.63534   0.85757   0.00000  Uiso   1.00
N833   N     0.44505   0.88464   0.66763   0.00000  Uiso   1.00
H834   H     0.44465   0.90136   0.63496   0.00000  Uiso   1.00
C835   C     0.39406   0.87005   0.67522   0.00000  Uiso   1.00
H836   H     0.36921   0.89895   0.67996   0.00000  Uiso   1.00
H837   H     0.39600   0.84828   0.70788   0.00000  Uiso   1.00
H838   H     0.37637   0.85104   0.64305   0.00000  Uiso   1.00
H839   H     0.51783   0.61142   0.67703   0.00000  Uiso   1.00
H840   H     0.54224   0.88825   0.82074   0.00000  Uiso   1.00
N841   N     0.58511   0.71184   0.54134   0.00000  Uiso   1.00
H842   H     0.61884   0.71384   0.56535   0.00000  Uiso   1.00
C843   C     0.57664   0.66796   0.52159   0.00000  Uiso   1.00
H844   H     0.61224   0.65626   0.50809   0.00000  Uiso   1.00
H845   H     0.54514   0.66804   0.99042   0.00000  Uiso   1.00
H846   H     0.56690   0.64475   0.55027   0.00000  Uiso   1.00
N847   N     0.41526   0.71086   0.95926   0.00000  Uiso   1.00
H848   H     0.38145   0.71279   0.93532   0.00000  Uiso   1.00
C849   C     0.42411   0.66684   0.97918   0.00000  Uiso   1.00
H850   H     0.38874   0.65478   0.99310   0.00000  Uiso   1.00
H851   H     0.45592   0.66682   0.51009   0.00000  Uiso   1.00
H852   H     0.43355   0.64397   0.95049   0.00000  Uiso   1.00
H853   H     0.57157   0.71680   0.63468   0.00000  Uiso   1.00
H854   H     0.42887   0.71591   0.86584   0.00000  Uiso   1.00
H855   H     0.42841   0.78326   0.61400   0.00000  Uiso   1.00
H856   H     0.57126   0.78392   0.88542   0.00000  Uiso   1.00
H857   H     0.42714   0.78260   0.52488   0.00000  Uiso   1.00
H858   H     0.57240   0.78332   0.97455   0.00000  Uiso   1.00
C859   C     0.83327   0.66479   0.75032   0.00000  Uiso   1.00
C860   C     0.83252   0.83500   0.74968   0.00000  Uiso   1.00
C861   C     0.87510   0.73068   0.55944   0.00000  Uiso   1.00
C862   C     0.79171   0.73022   0.94084   0.00000  Uiso   1.00
C863   C     0.87364   0.73152   0.61033   0.00000  Uiso   1.00
C864   C     0.79322   0.73104   0.88995   0.00000  Uiso   1.00
C865   C     0.79340   0.76822   0.59893   0.00000  Uiso   1.00
C866   C     0.87306   0.76858   0.90076   0.00000  Uiso   1.00
C867   C     0.79270   0.76780   0.54801   0.00000  Uiso   1.00
C868   C     0.87368   0.76820   0.95166   0.00000  Uiso   1.00
C869   C     0.83368   0.74903   0.52730   0.00000  Uiso   1.00
C870   C     0.83286   0.74904   0.97267   0.00000  Uiso   1.00
C871   C     0.73455   0.75000   0.73755   0.00000  Uiso   1.00
C872   C     0.93212   0.75001   0.76245   0.00000  Uiso   1.00
C873   C     0.67931   0.75011   0.73064   0.00000  Uiso   1.00
C874   C     0.98736   0.74999   0.76934   0.00000  Uiso   1.00
C875   C     0.82292   0.54591   0.79131   0.00000  Uiso   1.00
C876   C     0.80782   0.95289   0.70846   0.00000  Uiso   1.00
C877   C     0.82356   0.59191   0.79291   0.00000  Uiso   1.00
C878   C     0.80613   0.90680   0.70827   0.00000  Uiso   1.00
C879   C     0.83342   0.61627   0.75120   0.00000  Uiso   1.00
C880   C     0.83115   0.88316   0.74897   0.00000  Uiso   1.00
C881   C     0.84315   0.59368   0.70929   0.00000  Uiso   1.00
C882   C     0.85608   0.90593   0.78937   0.00000  Uiso   1.00
C883   C     0.84318   0.54785   0.70852   0.00000  Uiso   1.00
C884   C     0.85712   0.95170   0.78931   0.00000  Uiso   1.00
C885   C     0.83311   0.52377   0.74952   0.00000  Uiso   1.00
C886   C     0.83303   0.97542   0.74890   0.00000  Uiso   1.00
Cu887  Cu    0.83333   0.75000   0.79821   0.00000  Uiso   1.00
Cu888  Cu    0.83333   0.75001   0.70178   0.00000  Uiso   1.00
H889   H     0.85157   0.53120   0.67603   0.00000  Uiso   1.00
H890   H     0.87728   0.96860   0.82065   0.00000  Uiso   1.00
N891   N     0.83333   0.75001   0.62934   0.00000  Uiso   1.00
N892   N     0.83333   0.74999   0.87065   0.00000  Uiso   1.00
O893   O     0.83334   0.68573   0.79071   0.00000  Uiso   1.00
O894   O     0.83333   0.81428   0.70928   0.00000  Uiso   1.00
O895   O     0.83334   0.68573   0.70928   0.00000  Uiso   1.00
O896   O     0.83333   0.81427   0.79072   0.00000  Uiso   1.00
O897   O     0.75828   0.75000   0.78132   0.00000  Uiso   1.00
O898   O     0.90839   0.75001   0.71868   0.00000  Uiso   1.00
O899   O     0.75828   0.75000   0.69988   0.00000  Uiso   1.00
O900   O     0.90839   0.75000   0.80011   0.00000  Uiso   1.00
H901   H     0.99271   0.75030   0.69349   0.00000  Uiso   1.00
H902   H     0.67398   0.74983   0.80649   0.00000  Uiso   1.00
H903   H     0.81426   0.52744   0.82289   0.00000  Uiso   1.00
H904   H     0.78806   0.97112   0.67762   0.00000  Uiso   1.00
N905   N     0.81284   0.61313   0.83610   0.00000  Uiso   1.00
H906   H     0.78196   0.59946   0.85038   0.00000  Uiso   1.00
C907   C     0.85736   0.61801   0.87290   0.00000  Uiso   1.00
H908   H     0.87114   0.58514   0.88719   0.00000  Uiso   1.00
H909   H     0.84672   0.63787   0.90352   0.00000  Uiso   1.00
H910   H     0.88906   0.63534   0.85757   0.00000  Uiso   1.00
N911   N     0.77838   0.88464   0.66763   0.00000  Uiso   1.00
H912   H     0.77798   0.90136   0.63496   0.00000  Uiso   1.00
C913   C     0.72739   0.87005   0.67522   0.00000  Uiso   1.00
H914   H     0.70254   0.89895   0.67996   0.00000  Uiso   1.00
H915   H     0.72933   0.84828   0.70788   0.00000  Uiso   1.00
H916   H     0.70970   0.85104   0.64305   0.00000  Uiso   1.00
H917   H     0.85116   0.61142   0.67703   0.00000  Uiso   1.00
H918   H     0.87558   0.88825   0.82074   0.00000  Uiso   1.00
N919   N     0.91845   0.71184   0.54134   0.00000  Uiso   1.00
H920   H     0.95218   0.71384   0.56535   0.00000  Uiso   1.00
C921   C     0.90997   0.66796   0.52159   0.00000  Uiso   1.00
H922   H     0.94558   0.65626   0.50809   0.00000  Uiso   1.00
H923   H     0.87847   0.66804   0.99042   0.00000  Uiso   1.00
H924   H     0.90023   0.64475   0.55027   0.00000  Uiso   1.00
N925   N     0.74859   0.71086   0.95926   0.00000  Uiso   1.00
H926   H     0.71478   0.71279   0.93532   0.00000  Uiso   1.00
C927   C     0.75744   0.66684   0.97918   0.00000  Uiso   1.00
H928   H     0.72207   0.65478   0.99310   0.00000  Uiso   1.00
H929   H     0.78925   0.66682   0.51009   0.00000  Uiso   1.00
H930   H     0.76689   0.64397   0.95049   0.00000  Uiso   1.00
H931   H     0.90490   0.71680   0.63468   0.00000  Uiso   1.00
H932   H     0.76221   0.71591   0.86584   0.00000  Uiso   1.00
H933   H     0.76174   0.78326   0.61400   0.00000  Uiso   1.00
H934   H     0.90459   0.78392   0.88542   0.00000  Uiso   1.00
H935   H     0.76047   0.78260   0.52488   0.00000  Uiso   1.00
H936   H     0.90574   0.78332   0.97455   0.00000  Uiso   1.00
loop_
_geom_bond_atom_site_label_1
_geom_bond_atom_site_label_2
_geom_bond_distance
_geom_bond_site_symmetry_2
_ccdc_geom_bond_type
C1     C21     1.470   .     S
C1     O37     1.297   .     A
C1     O35     1.289   .     A
C2     C22     1.460   .     S
C2     O38     1.291   .     A
C2     O36     1.289   .     A
C3     N61     1.424   .     S
C3     C5      1.415   .     A
C3     C11     1.417   .     A
C4     C12     1.417   .     A
C4     C6      1.414   .     A
C4     N67     1.424   .     S
C5     N33     1.365   .     A
C5     H73     1.081   .     S
C6     H74     1.081   .     S
C6     N34     1.365   .     A
C7     N33     1.364   .     A
C7     H75     1.081   .     S
C7     C9      1.407   .     A
C8     H76     1.081   .     S
C8     N34     1.364   .     A
C8     C10     1.407   .     A
C9     H77     1.083   .     S
C9     C11     1.407   .     A
C10    H78     1.083   .     S
C10    C12     1.407   .     A
C11    C480    1.509   1_554 S
C12    C479    1.509   .     S
C13    O41     1.285   .     A
C13    C15     1.433   .     S
C13    O39     1.284   .     A
C14    O42     1.285   .     A
C14    C16     1.433   .     S
C14    O40     1.283   .     A
C15    C172    1.334   1_455 S
C15    H199    1.087   1_455 S
C16    C93     1.334   .     S
C16    H122    1.087   .     S
C17    C27     1.399   .     A
C17    H45     1.084   .     S
C17    C19     1.395   .     A
C18    C20     1.397   .     A
C18    H46     1.084   .     S
C18    C28     1.401   .     A
C19    C21     1.418   .     A
C19    N47     1.423   .     S
C20    C22     1.414   .     A
C20    N53     1.424   .     S
C21    C23     1.405   .     A
C22    C24     1.401   .     A
C23    H59     1.083   .     S
C23    C25     1.389   .     A
C24    C26     1.387   .     A
C24    H60     1.084   .     S
C25    H31     1.083   .     S
C25    C27     1.399   .     A
C26    H32     1.083   .     S
C26    C28     1.401   .     A
C27    C262    1.465   1_545 S
C28    C261    1.465   .     S
Cu29   O42     1.958   .     S
Cu29   O38     1.957   .     S
Cu29   N34     2.005   .     S
Cu29   Cu30    2.669   .     S
Cu29   O39     1.957   .     S
Cu29   O35     1.960   .     S
Cu30   O41     1.958   .     S
Cu30   O37     1.957   .     S
Cu30   O40     1.957   .     S
Cu30   N33     2.005   .     S
Cu30   O36     1.960   .     S
H43    C93     1.087   .     S
H44    C172    1.087   1_455 S
N47    C49     1.447   .     S
N47    H48     1.032   .     S
C49    H51     1.110   .     S
C49    H52     1.111   .     S
C49    H50     1.112   .     S
N53    H54     1.032   .     S
N53    C55     1.447   .     S
C55    H56     1.112   .     S
C55    H57     1.110   .     S
C55    H58     1.110   .     S
N61    C63     1.447   .     S
N61    H62     1.032   .     S
C63    H66     1.112   .     S
C63    H64     1.111   .     S
C63    H533    1.109   1_554 S
H65    C531    1.109   .     S
N67    H68     1.032   .     S
N67    C69     1.446   .     S
C69    H70     1.111   .     S
C69    H72     1.112   .     S
C69    H539    1.109   .     S
H71    C537    1.109   1_554 S
C79    C99     1.470   .     S
C79    O115    1.297   .     A
C79    O113    1.289   .     A
C80    C100    1.460   .     S
C80    O116    1.291   .     A
C80    O114    1.289   .     A
C81    N139    1.424   .     S
C81    C83     1.415   .     A
C81    C89     1.417   .     A
C82    C90     1.417   .     A
C82    C84     1.414   .     A
C82    N145    1.424   .     S
C83    N111    1.365   .     A
C83    H151    1.081   .     S
C84    H152    1.081   .     S
C84    N112    1.365   .     A
C85    N111    1.364   .     A
C85    H153    1.081   .     S
C85    C87     1.407   .     A
C86    H154    1.081   .     S
C86    N112    1.364   .     A
C86    C88     1.407   .     A
C87    H155    1.083   .     S
C87    C89     1.407   .     A
C88    H156    1.083   .     S
C88    C90     1.407   .     A
C89    C558    1.509   1_554 S
C90    C557    1.509   .     S
C91    O119    1.285   .     A
C91    C93     1.433   .     S
C91    O117    1.284   .     A
C92    O120    1.285   .     A
C92    C94     1.433   .     S
C92    O118    1.283   .     A
C94    C171    1.334   .     S
C94    H200    1.087   .     S
C95    C105    1.399   .     A
C95    H123    1.084   .     S
C95    C97     1.395   .     A
C96    C98     1.397   .     A
C96    H124    1.084   .     S
C96    C106    1.401   .     A
C97    C99     1.418   .     A
C97    N125    1.423   .     S
C98    C100    1.414   .     A
C98    N131    1.424   .     S
C99    C101    1.405   .     A
C100   C102    1.401   .     A
C101   H137    1.083   .     S
C101   C103    1.389   .     A
C102   C104    1.387   .     A
C102   H138    1.084   .     S
C103   H109    1.083   .     S
C103   C105    1.399   .     A
C104   H110    1.083   .     S
C104   C106    1.401   .     A
C105   C340    1.465   1_545 S
C106   C339    1.465   .     S
Cu107  O120    1.958   .     S
Cu107  O116    1.957   .     S
Cu107  N112    2.005   .     S
Cu107  Cu108   2.669   .     S
Cu107  O117    1.957   .     S
Cu107  O113    1.960   .     S
Cu108  O119    1.958   .     S
Cu108  O115    1.957   .     S
Cu108  O118    1.957   .     S
Cu108  N111    2.005   .     S
Cu108  O114    1.960   .     S
H121   C171    1.087   .     S
N125   C127    1.447   .     S
N125   H126    1.032   .     S
C127   H129    1.110   .     S
C127   H130    1.111   .     S
C127   H128    1.112   .     S
N131   H132    1.032   .     S
N131   C133    1.447   .     S
C133   H134    1.112   .     S
C133   H135    1.110   .     S
C133   H136    1.110   .     S
N139   C141    1.447   .     S
N139   H140    1.032   .     S
C141   H144    1.112   .     S
C141   H142    1.111   .     S
C141   H611    1.109   1_554 S
H143   C609    1.109   .     S
N145   H146    1.032   .     S
N145   C147    1.446   .     S
C147   H148    1.111   .     S
C147   H150    1.112   .     S
C147   H617    1.109   .     S
H149   C615    1.109   1_554 S
C157   C177    1.470   .     S
C157   O193    1.297   .     A
C157   O191    1.289   .     A
C158   C178    1.460   .     S
C158   O194    1.291   .     A
C158   O192    1.289   .     A
C159   N217    1.424   .     S
C159   C161    1.415   .     A
C159   C167    1.417   .     A
C160   C168    1.417   .     A
C160   C162    1.414   .     A
C160   N223    1.424   .     S
C161   N189    1.365   .     A
C161   H229    1.081   .     S
C162   H230    1.081   .     S
C162   N190    1.365   .     A
C163   N189    1.364   .     A
C163   H231    1.081   .     S
C163   C165    1.407   .     A
C164   H232    1.081   .     S
C164   N190    1.364   .     A
C164   C166    1.407   .     A
C165   H233    1.083   .     S
C165   C167    1.407   .     A
C166   H234    1.083   .     S
C166   C168    1.407   .     A
C167   C636    1.509   1_554 S
C168   C635    1.509   .     S
C169   O197    1.285   .     A
C169   C171    1.433   .     S
C169   O195    1.284   .     A
C170   O198    1.285   .     A
C170   C172    1.433   .     S
C170   O196    1.283   .     A
C172   C15     1.334   1_655 S
C172   H44     1.087   1_655 S
C173   C183    1.399   .     A
C173   H201    1.084   .     S
C173   C175    1.395   .     A
C174   C176    1.397   .     A
C174   H202    1.084   .     S
C174   C184    1.401   .     A
C175   C177    1.418   .     A
C175   N203    1.423   .     S
C176   C178    1.414   .     A
C176   N209    1.424   .     S
C177   C179    1.405   .     A
C178   C180    1.401   .     A
C179   H215    1.083   .     S
C179   C181    1.389   .     A
C180   C182    1.387   .     A
C180   H216    1.084   .     S
C181   H187    1.083   .     S
C181   C183    1.399   .     A
C182   H188    1.083   .     S
C182   C184    1.401   .     A
C183   C418    1.465   1_545 S
C184   C417    1.465   .     S
Cu185  O198    1.958   .     S
Cu185  O194    1.957   .     S
Cu185  N190    2.005   .     S
Cu185  Cu186   2.669   .     S
Cu185  O195    1.957   .     S
Cu185  O191    1.960   .     S
Cu186  O197    1.958   .     S
Cu186  O193    1.957   .     S
Cu186  O196    1.957   .     S
Cu186  N189    2.005   .     S
Cu186  O192    1.960   .     S
H199   C15     1.087   1_655 S
N203   C205    1.447   .     S
N203   H204    1.032   .     S
C205   H207    1.110   .     S
C205   H208    1.111   .     S
C205   H206    1.112   .     S
N209   H210    1.032   .     S
N209   C211    1.447   .     S
C211   H212    1.112   .     S
C211   H213    1.110   .     S
C211   H214    1.110   .     S
N217   C219    1.447   .     S
N217   H218    1.032   .     S
C219   H222    1.112   .     S
C219   H220    1.111   .     S
C219   H689    1.109   1_554 S
H221   C687    1.109   .     S
N223   H224    1.032   .     S
N223   C225    1.446   .     S
C225   H226    1.111   .     S
C225   H228    1.112   .     S
C225   H695    1.109   .     S
H227   C693    1.109   1_554 S
C235   C255    1.470   .     S
C235   O271    1.297   .     A
C235   O269    1.289   .     A
C236   C256    1.460   .     S
C236   O272    1.291   .     A
C236   O270    1.289   .     A
C237   N295    1.424   .     S
C237   C239    1.415   .     A
C237   C245    1.417   .     A
C238   C246    1.417   .     A
C238   C240    1.414   .     A
C238   N301    1.424   .     S
C239   N267    1.365   .     A
C239   H307    1.081   .     S
C240   H308    1.081   .     S
C240   N268    1.365   .     A
C241   N267    1.364   .     A
C241   H309    1.081   .     S
C241   C243    1.407   .     A
C242   H310    1.081   .     S
C242   N268    1.364   .     A
C242   C244    1.407   .     A
C243   H311    1.083   .     S
C243   C245    1.407   .     A
C244   H312    1.083   .     S
C244   C246    1.407   .     A
C245   C714    1.509   1_554 S
C246   C713    1.509   .     S
C247   O275    1.285   .     A
C247   C249    1.433   .     S
C247   O273    1.284   .     A
C248   O276    1.285   .     A
C248   C250    1.433   .     S
C248   O274    1.283   .     A
C249   C406    1.334   1_455 S
C249   H433    1.087   1_455 S
C250   C327    1.334   .     S
C250   H356    1.087   .     S
C251   C261    1.399   .     A
C251   H279    1.084   .     S
C251   C253    1.395   .     A
C252   C254    1.397   .     A
C252   H280    1.084   .     S
C252   C262    1.401   .     A
C253   C255    1.418   .     A
C253   N281    1.423   .     S
C254   C256    1.414   .     A
C254   N287    1.424   .     S
C255   C257    1.405   .     A
C256   C258    1.401   .     A
C257   H293    1.083   .     S
C257   C259    1.389   .     A
C258   C260    1.387   .     A
C258   H294    1.084   .     S
C259   H265    1.083   .     S
C259   C261    1.399   .     A
C260   H266    1.083   .     S
C260   C262    1.401   .     A
C262   C27     1.465   1_565 S
Cu263  O276    1.958   .     S
Cu263  O272    1.957   .     S
Cu263  N268    2.005   .     S
Cu263  Cu264   2.669   .     S
Cu263  O273    1.957   .     S
Cu263  O269    1.960   .     S
Cu264  O275    1.958   .     S
Cu264  O271    1.957   .     S
Cu264  O274    1.957   .     S
Cu264  N267    2.005   .     S
Cu264  O270    1.960   .     S
H277   C327    1.087   .     S
H278   C406    1.087   1_455 S
N281   C283    1.447   .     S
N281   H282    1.032   .     S
C283   H285    1.110   .     S
C283   H286    1.111   .     S
C283   H284    1.112   .     S
N287   H288    1.032   .     S
N287   C289    1.447   .     S
C289   H290    1.112   .     S
C289   H291    1.110   .     S
C289   H292    1.110   .     S
N295   C297    1.447   .     S
N295   H296    1.032   .     S
C297   H300    1.112   .     S
C297   H298    1.111   .     S
C297   H767    1.109   1_554 S
H299   C765    1.109   .     S
N301   H302    1.032   .     S
N301   C303    1.446   .     S
C303   H304    1.111   .     S
C303   H306    1.112   .     S
C303   H773    1.109   .     S
H305   C771    1.109   1_554 S
C313   C333    1.470   .     S
C313   O349    1.297   .     A
C313   O347    1.289   .     A
C314   C334    1.460   .     S
C314   O350    1.291   .     A
C314   O348    1.289   .     A
C315   N373    1.424   .     S
C315   C317    1.415   .     A
C315   C323    1.417   .     A
C316   C324    1.417   .     A
C316   C318    1.414   .     A
C316   N379    1.424   .     S
C317   N345    1.365   .     A
C317   H385    1.081   .     S
C318   H386    1.081   .     S
C318   N346    1.365   .     A
C319   N345    1.364   .     A
C319   H387    1.081   .     S
C319   C321    1.407   .     A
C320   H388    1.081   .     S
C320   N346    1.364   .     A
C320   C322    1.407   .     A
C321   H389    1.083   .     S
C321   C323    1.407   .     A
C322   H390    1.083   .     S
C322   C324    1.407   .     A
C323   C792    1.509   1_554 S
C324   C791    1.509   .     S
C325   O353    1.285   .     A
C325   C327    1.433   .     S
C325   O351    1.284   .     A
C326   O354    1.285   .     A
C326   C328    1.433   .     S
C326   O352    1.283   .     A
C328   C405    1.334   .     S
C328   H434    1.087   .     S
C329   C339    1.399   .     A
C329   H357    1.084   .     S
C329   C331    1.395   .     A
C330   C332    1.397   .     A
C330   H358    1.084   .     S
C330   C340    1.401   .     A
C331   C333    1.418   .     A
C331   N359    1.423   .     S
C332   C334    1.414   .     A
C332   N365    1.424   .     S
C333   C335    1.405   .     A
C334   C336    1.401   .     A
C335   H371    1.083   .     S
C335   C337    1.389   .     A
C336   C338    1.387   .     A
C336   H372    1.084   .     S
C337   H343    1.083   .     S
C337   C339    1.399   .     A
C338   H344    1.083   .     S
C338   C340    1.401   .     A
C340   C105    1.465   1_565 S
Cu341  O354    1.958   .     S
Cu341  O350    1.957   .     S
Cu341  N346    2.005   .     S
Cu341  Cu342   2.669   .     S
Cu341  O351    1.957   .     S
Cu341  O347    1.960   .     S
Cu342  O353    1.958   .     S
Cu342  O349    1.957   .     S
Cu342  O352    1.957   .     S
Cu342  N345    2.005   .     S
Cu342  O348    1.960   .     S
H355   C405    1.087   .     S
N359   C361    1.447   .     S
N359   H360    1.032   .     S
C361   H363    1.110   .     S
C361   H364    1.111   .     S
C361   H362    1.112   .     S
N365   H366    1.032   .     S
N365   C367    1.447   .     S
C367   H368    1.112   .     S
C367   H369    1.110   .     S
C367   H370    1.110   .     S
N373   C375    1.447   .     S
N373   H374    1.032   .     S
C375   H378    1.112   .     S
C375   H376    1.111   .     S
C375   H845    1.109   1_554 S
H377   C843    1.109   .     S
N379   H380    1.032   .     S
N379   C381    1.446   .     S
C381   H382    1.111   .     S
C381   H384    1.112   .     S
C381   H851    1.109   .     S
H383   C849    1.109   1_554 S
C391   C411    1.470   .     S
C391   O427    1.297   .     A
C391   O425    1.289   .     A
C392   C412    1.460   .     S
C392   O428    1.291   .     A
C392   O426    1.289   .     A
C393   N451    1.424   .     S
C393   C395    1.415   .     A
C393   C401    1.417   .     A
C394   C402    1.417   .     A
C394   C396    1.414   .     A
C394   N457    1.424   .     S
C395   N423    1.365   .     A
C395   H463    1.081   .     S
C396   H464    1.081   .     S
C396   N424    1.365   .     A
C397   N423    1.364   .     A
C397   H465    1.081   .     S
C397   C399    1.407   .     A
C398   H466    1.081   .     S
C398   N424    1.364   .     A
C398   C400    1.407   .     A
C399   H467    1.083   .     S
C399   C401    1.407   .     A
C400   H468    1.083   .     S
C400   C402    1.407   .     A
C401   C870    1.509   1_554 S
C402   C869    1.509   .     S
C403   O431    1.285   .     A
C403   C405    1.433   .     S
C403   O429    1.284   .     A
C404   O432    1.285   .     A
C404   C406    1.433   .     S
C404   O430    1.283   .     A
C406   C249    1.334   1_655 S
C406   H278    1.087   1_655 S
C407   C417    1.399   .     A
C407   H435    1.084   .     S
C407   C409    1.395   .     A
C408   C410    1.397   .     A
C408   H436    1.084   .     S
C408   C418    1.401   .     A
C409   C411    1.418   .     A
C409   N437    1.423   .     S
C410   C412    1.414   .     A
C410   N443    1.424   .     S
C411   C413    1.405   .     A
C412   C414    1.401   .     A
C413   H449    1.083   .     S
C413   C415    1.389   .     A
C414   C416    1.387   .     A
C414   H450    1.084   .     S
C415   H421    1.083   .     S
C415   C417    1.399   .     A
C416   H422    1.083   .     S
C416   C418    1.401   .     A
C418   C183    1.465   1_565 S
Cu419  O432    1.958   .     S
Cu419  O428    1.957   .     S
Cu419  N424    2.005   .     S
Cu419  Cu420   2.669   .     S
Cu419  O429    1.957   .     S
Cu419  O425    1.960   .     S
Cu420  O431    1.958   .     S
Cu420  O427    1.957   .     S
Cu420  O430    1.957   .     S
Cu420  N423    2.005   .     S
Cu420  O426    1.960   .     S
H433   C249    1.087   1_655 S
N437   C439    1.447   .     S
N437   H438    1.032   .     S
C439   H441    1.110   .     S
C439   H442    1.111   .     S
C439   H440    1.112   .     S
N443   H444    1.032   .     S
N443   C445    1.447   .     S
C445   H446    1.112   .     S
C445   H447    1.110   .     S
C445   H448    1.110   .     S
N451   C453    1.447   .     S
N451   H452    1.032   .     S
C453   H456    1.112   .     S
C453   H454    1.111   .     S
C453   H923    1.109   1_554 S
H455   C921    1.109   .     S
N457   H458    1.032   .     S
N457   C459    1.446   .     S
C459   H460    1.111   .     S
C459   H462    1.112   .     S
C459   H929    1.109   .     S
H461   C927    1.109   1_554 S
C469   C489    1.470   .     S
C469   O505    1.297   .     A
C469   O503    1.289   .     A
C470   C490    1.460   .     S
C470   O506    1.291   .     A
C470   O504    1.289   .     A
C471   N529    1.424   .     S
C471   C473    1.415   .     A
C471   C479    1.417   .     A
C472   C480    1.417   .     A
C472   C474    1.414   .     A
C472   N535    1.424   .     S
C473   N501    1.365   .     A
C473   H541    1.081   .     S
C474   H542    1.081   .     S
C474   N502    1.365   .     A
C475   N501    1.364   .     A
C475   H543    1.081   .     S
C475   C477    1.407   .     A
C476   H544    1.081   .     S
C476   N502    1.364   .     A
C476   C478    1.407   .     A
C477   H545    1.083   .     S
C477   C479    1.407   .     A
C478   H546    1.083   .     S
C478   C480    1.407   .     A
C480   C11     1.509   1_556 S
C481   O509    1.285   .     A
C481   C483    1.433   .     S
C481   O507    1.284   .     A
C482   O510    1.285   .     A
C482   C484    1.433   .     S
C482   O508    1.283   .     A
C483   C640    1.334   1_455 S
C483   H667    1.087   1_455 S
C484   C561    1.334   .     S
C484   H590    1.087   .     S
C485   C495    1.399   .     A
C485   H513    1.084   .     S
C485   C487    1.395   .     A
C486   C488    1.397   .     A
C486   H514    1.084   .     S
C486   C496    1.401   .     A
C487   C489    1.418   .     A
C487   N515    1.423   .     S
C488   C490    1.414   .     A
C488   N521    1.424   .     S
C489   C491    1.405   .     A
C490   C492    1.401   .     A
C491   H527    1.083   .     S
C491   C493    1.389   .     A
C492   C494    1.387   .     A
C492   H528    1.084   .     S
C493   H499    1.083   .     S
C493   C495    1.399   .     A
C494   H500    1.083   .     S
C494   C496    1.401   .     A
C495   C730    1.465   1_545 S
C496   C729    1.465   .     S
Cu497  O510    1.958   .     S
Cu497  O506    1.957   .     S
Cu497  N502    2.005   .     S
Cu497  Cu498   2.669   .     S
Cu497  O507    1.957   .     S
Cu497  O503    1.960   .     S
Cu498  O509    1.958   .     S
Cu498  O505    1.957   .     S
Cu498  O508    1.957   .     S
Cu498  N501    2.005   .     S
Cu498  O504    1.960   .     S
H511   C561    1.087   .     S
H512   C640    1.087   1_455 S
N515   C517    1.447   .     S
N515   H516    1.032   .     S
C517   H519    1.110   .     S
C517   H520    1.111   .     S
C517   H518    1.112   .     S
N521   H522    1.032   .     S
N521   C523    1.447   .     S
C523   H524    1.112   .     S
C523   H525    1.110   .     S
C523   H526    1.110   .     S
N529   C531    1.447   .     S
N529   H530    1.032   .     S
C531   H534    1.112   .     S
C531   H532    1.111   .     S
H533   C63     1.109   1_556 S
N535   H536    1.032   .     S
N535   C537    1.446   .     S
C537   H538    1.111   .     S
C537   H540    1.112   .     S
C537   H71     1.109   1_556 S
C547   C567    1.470   .     S
C547   O583    1.297   .     A
C547   O581    1.289   .     A
C548   C568    1.460   .     S
C548   O584    1.291   .     A
C548   O582    1.289   .     A
C549   N607    1.424   .     S
C549   C551    1.415   .     A
C549   C557    1.417   .     A
C550   C558    1.417   .     A
C550   C552    1.414   .     A
C550   N613    1.424   .     S
C551   N579    1.365   .     A
C551   H619    1.081   .     S
C552   H620    1.081   .     S
C552   N580    1.365   .     A
C553   N579    1.364   .     A
C553   H621    1.081   .     S
C553   C555    1.407   .     A
C554   H622    1.081   .     S
C554   N580    1.364   .     A
C554   C556    1.407   .     A
C555   H623    1.083   .     S
C555   C557    1.407   .     A
C556   H624    1.083   .     S
C556   C558    1.407   .     A
C558   C89     1.509   1_556 S
C559   O587    1.285   .     A
C559   C561    1.433   .     S
C559   O585    1.284   .     A
C560   O588    1.285   .     A
C560   C562    1.433   .     S
C560   O586    1.283   .     A
C562   C639    1.334   .     S
C562   H668    1.087   .     S
C563   C573    1.399   .     A
C563   H591    1.084   .     S
C563   C565    1.395   .     A
C564   C566    1.397   .     A
C564   H592    1.084   .     S
C564   C574    1.401   .     A
C565   C567    1.418   .     A
C565   N593    1.423   .     S
C566   C568    1.414   .     A
C566   N599    1.424   .     S
C567   C569    1.405   .     A
C568   C570    1.401   .     A
C569   H605    1.083   .     S
C569   C571    1.389   .     A
C570   C572    1.387   .     A
C570   H606    1.084   .     S
C571   H577    1.083   .     S
C571   C573    1.399   .     A
C572   H578    1.083   .     S
C572   C574    1.401   .     A
C573   C808    1.465   1_545 S
C574   C807    1.465   .     S
Cu575  O588    1.958   .     S
Cu575  O584    1.957   .     S
Cu575  N580    2.005   .     S
Cu575  Cu576   2.669   .     S
Cu575  O585    1.957   .     S
Cu575  O581    1.960   .     S
Cu576  O587    1.958   .     S
Cu576  O583    1.957   .     S
Cu576  O586    1.957   .     S
Cu576  N579    2.005   .     S
Cu576  O582    1.960   .     S
H589   C639    1.087   .     S
N593   C595    1.447   .     S
N593   H594    1.032   .     S
C595   H597    1.110   .     S
C595   H598    1.111   .     S
C595   H596    1.112   .     S
N599   H600    1.032   .     S
N599   C601    1.447   .     S
C601   H602    1.112   .     S
C601   H603    1.110   .     S
C601   H604    1.110   .     S
N607   C609    1.447   .     S
N607   H608    1.032   .     S
C609   H612    1.112   .     S
C609   H610    1.111   .     S
H611   C141    1.109   1_556 S
N613   H614    1.032   .     S
N613   C615    1.446   .     S
C615   H616    1.111   .     S
C615   H618    1.112   .     S
C615   H149    1.109   1_556 S
C625   C645    1.470   .     S
C625   O661    1.297   .     A
C625   O659    1.289   .     A
C626   C646    1.460   .     S
C626   O662    1.291   .     A
C626   O660    1.289   .     A
C627   N685    1.424   .     S
C627   C629    1.415   .     A
C627   C635    1.417   .     A
C628   C636    1.417   .     A
C628   C630    1.414   .     A
C628   N691    1.424   .     S
C629   N657    1.365   .     A
C629   H697    1.081   .     S
C630   H698    1.081   .     S
C630   N658    1.365   .     A
C631   N657    1.364   .     A
C631   H699    1.081   .     S
C631   C633    1.407   .     A
C632   H700    1.081   .     S
C632   N658    1.364   .     A
C632   C634    1.407   .     A
C633   H701    1.083   .     S
C633   C635    1.407   .     A
C634   H702    1.083   .     S
C634   C636    1.407   .     A
C636   C167    1.509   1_556 S
C637   O665    1.285   .     A
C637   C639    1.433   .     S
C637   O663    1.284   .     A
C638   O666    1.285   .     A
C638   C640    1.433   .     S
C638   O664    1.283   .     A
C640   C483    1.334   1_655 S
C640   H512    1.087   1_655 S
C641   C651    1.399   .     A
C641   H669    1.084   .     S
C641   C643    1.395   .     A
C642   C644    1.397   .     A
C642   H670    1.084   .     S
C642   C652    1.401   .     A
C643   C645    1.418   .     A
C643   N671    1.423   .     S
C644   C646    1.414   .     A
C644   N677    1.424   .     S
C645   C647    1.405   .     A
C646   C648    1.401   .     A
C647   H683    1.083   .     S
C647   C649    1.389   .     A
C648   C650    1.387   .     A
C648   H684    1.084   .     S
C649   H655    1.083   .     S
C649   C651    1.399   .     A
C650   H656    1.083   .     S
C650   C652    1.401   .     A
C651   C886    1.465   1_545 S
C652   C885    1.465   .     S
Cu653  O666    1.958   .     S
Cu653  O662    1.957   .     S
Cu653  N658    2.005   .     S
Cu653  Cu654   2.669   .     S
Cu653  O663    1.957   .     S
Cu653  O659    1.960   .     S
Cu654  O665    1.958   .     S
Cu654  O661    1.957   .     S
Cu654  O664    1.957   .     S
Cu654  N657    2.005   .     S
Cu654  O660    1.960   .     S
H667   C483    1.087   1_655 S
N671   C673    1.447   .     S
N671   H672    1.032   .     S
C673   H675    1.110   .     S
C673   H676    1.111   .     S
C673   H674    1.112   .     S
N677   H678    1.032   .     S
N677   C679    1.447   .     S
C679   H680    1.112   .     S
C679   H681    1.110   .     S
C679   H682    1.110   .     S
N685   C687    1.447   .     S
N685   H686    1.032   .     S
C687   H690    1.112   .     S
C687   H688    1.111   .     S
H689   C219    1.109   1_556 S
N691   H692    1.032   .     S
N691   C693    1.446   .     S
C693   H694    1.111   .     S
C693   H696    1.112   .     S
C693   H227    1.109   1_556 S
C703   C723    1.470   .     S
C703   O739    1.297   .     A
C703   O737    1.289   .     A
C704   C724    1.460   .     S
C704   O740    1.291   .     A
C704   O738    1.289   .     A
C705   N763    1.424   .     S
C705   C707    1.415   .     A
C705   C713    1.417   .     A
C706   C714    1.417   .     A
C706   C708    1.414   .     A
C706   N769    1.424   .     S
C707   N735    1.365   .     A
C707   H775    1.081   .     S
C708   H776    1.081   .     S
C708   N736    1.365   .     A
C709   N735    1.364   .     A
C709   H777    1.081   .     S
C709   C711    1.407   .     A
C710   H778    1.081   .     S
C710   N736    1.364   .     A
C710   C712    1.407   .     A
C711   H779    1.083   .     S
C711   C713    1.407   .     A
C712   H780    1.083   .     S
C712   C714    1.407   .     A
C714   C245    1.509   1_556 S
C715   O743    1.285   .     A
C715   C717    1.433   .     S
C715   O741    1.284   .     A
C716   O744    1.285   .     A
C716   C718    1.433   .     S
C716   O742    1.283   .     A
C717   C874    1.334   1_455 S
C717   H901    1.087   1_455 S
C718   C795    1.334   .     S
C718   H824    1.087   .     S
C719   C729    1.399   .     A
C719   H747    1.084   .     S
C719   C721    1.395   .     A
C720   C722    1.397   .     A
C720   H748    1.084   .     S
C720   C730    1.401   .     A
C721   C723    1.418   .     A
C721   N749    1.423   .     S
C722   C724    1.414   .     A
C722   N755    1.424   .     S
C723   C725    1.405   .     A
C724   C726    1.401   .     A
C725   H761    1.083   .     S
C725   C727    1.389   .     A
C726   C728    1.387   .     A
C726   H762    1.084   .     S
C727   H733    1.083   .     S
C727   C729    1.399   .     A
C728   H734    1.083   .     S
C728   C730    1.401   .     A
C730   C495    1.465   1_565 S
Cu731  O744    1.958   .     S
Cu731  O740    1.957   .     S
Cu731  N736    2.005   .     S
Cu731  Cu732   2.669   .     S
Cu731  O741    1.957   .     S
Cu731  O737    1.960   .     S
Cu732  O743    1.958   .     S
Cu732  O739    1.957   .     S
Cu732  O742    1.957   .     S
Cu732  N735    2.005   .     S
Cu732  O738    1.960   .     S
H745   C795    1.087   .     S
H746   C874    1.087   1_455 S
N749   C751    1.447   .     S
N749   H750    1.032   .     S
C751   H753    1.110   .     S
C751   H754    1.111   .     S
C751   H752    1.112   .     S
N755   H756    1.032   .     S
N755   C757    1.447   .     S
C757   H758    1.112   .     S
C757   H759    1.110   .     S
C757   H760    1.110   .     S
N763   C765    1.447   .     S
N763   H764    1.032   .     S
C765   H768    1.112   .     S
C765   H766    1.111   .     S
H767   C297    1.109   1_556 S
N769   H770    1.032   .     S
N769   C771    1.446   .     S
C771   H772    1.111   .     S
C771   H774    1.112   .     S
C771   H305    1.109   1_556 S
C781   C801    1.470   .     S
C781   O817    1.297   .     A
C781   O815    1.289   .     A
C782   C802    1.460   .     S
C782   O818    1.291   .     A
C782   O816    1.289   .     A
C783   N841    1.424   .     S
C783   C785    1.415   .     A
C783   C791    1.417   .     A
C784   C792    1.417   .     A
C784   C786    1.414   .     A
C784   N847    1.424   .     S
C785   N813    1.365   .     A
C785   H853    1.081   .     S
C786   H854    1.081   .     S
C786   N814    1.365   .     A
C787   N813    1.364   .     A
C787   H855    1.081   .     S
C787   C789    1.407   .     A
C788   H856    1.081   .     S
C788   N814    1.364   .     A
C788   C790    1.407   .     A
C789   H857    1.083   .     S
C789   C791    1.407   .     A
C790   H858    1.083   .     S
C790   C792    1.407   .     A
C792   C323    1.509   1_556 S
C793   O821    1.285   .     A
C793   C795    1.433   .     S
C793   O819    1.284   .     A
C794   O822    1.285   .     A
C794   C796    1.433   .     S
C794   O820    1.283   .     A
C796   C873    1.334   .     S
C796   H902    1.087   .     S
C797   C807    1.399   .     A
C797   H825    1.084   .     S
C797   C799    1.395   .     A
C798   C800    1.397   .     A
C798   H826    1.084   .     S
C798   C808    1.401   .     A
C799   C801    1.418   .     A
C799   N827    1.423   .     S
C800   C802    1.414   .     A
C800   N833    1.424   .     S
C801   C803    1.405   .     A
C802   C804    1.401   .     A
C803   H839    1.083   .     S
C803   C805    1.389   .     A
C804   C806    1.387   .     A
C804   H840    1.084   .     S
C805   H811    1.083   .     S
C805   C807    1.399   .     A
C806   H812    1.083   .     S
C806   C808    1.401   .     A
C808   C573    1.465   1_565 S
Cu809  O822    1.958   .     S
Cu809  O818    1.957   .     S
Cu809  N814    2.005   .     S
Cu809  Cu810   2.669   .     S
Cu809  O819    1.957   .     S
Cu809  O815    1.960   .     S
Cu810  O821    1.958   .     S
Cu810  O817    1.957   .     S
Cu810  O820    1.957   .     S
Cu810  N813    2.005   .     S
Cu810  O816    1.960   .     S
H823   C873    1.087   .     S
N827   C829    1.447   .     S
N827   H828    1.032   .     S
C829   H831    1.110   .     S
C829   H832    1.111   .     S
C829   H830    1.112   .     S
N833   H834    1.032   .     S
N833   C835    1.447   .     S
C835   H836    1.112   .     S
C835   H837    1.110   .     S
C835   H838    1.110   .     S
N841   C843    1.447   .     S
N841   H842    1.032   .     S
C843   H846    1.112   .     S
C843   H844    1.111   .     S
H845   C375    1.109   1_556 S
N847   H848    1.032   .     S
N847   C849    1.446   .     S
C849   H850    1.111   .     S
C849   H852    1.112   .     S
C849   H383    1.109   1_556 S
C859   C879    1.470   .     S
C859   O895    1.297   .     A
C859   O893    1.289   .     A
C860   C880    1.460   .     S
C860   O896    1.291   .     A
C860   O894    1.289   .     A
C861   N919    1.424   .     S
C861   C863    1.415   .     A
C861   C869    1.417   .     A
C862   C870    1.417   .     A
C862   C864    1.414   .     A
C862   N925    1.424   .     S
C863   N891    1.365   .     A
C863   H931    1.081   .     S
C864   H932    1.081   .     S
C864   N892    1.365   .     A
C865   N891    1.364   .     A
C865   H933    1.081   .     S
C865   C867    1.407   .     A
C866   H934    1.081   .     S
C866   N892    1.364   .     A
C866   C868    1.407   .     A
C867   H935    1.083   .     S
C867   C869    1.407   .     A
C868   H936    1.083   .     S
C868   C870    1.407   .     A
C870   C401    1.509   1_556 S
C871   O899    1.285   .     A
C871   C873    1.433   .     S
C871   O897    1.284   .     A
C872   O900    1.285   .     A
C872   C874    1.433   .     S
C872   O898    1.283   .     A
C874   C717    1.334   1_655 S
C874   H746    1.087   1_655 S
C875   C885    1.399   .     A
C875   H903    1.084   .     S
C875   C877    1.395   .     A
C876   C878    1.397   .     A
C876   H904    1.084   .     S
C876   C886    1.401   .     A
C877   C879    1.418   .     A
C877   N905    1.423   .     S
C878   C880    1.414   .     A
C878   N911    1.424   .     S
C879   C881    1.405   .     A
C880   C882    1.401   .     A
C881   H917    1.083   .     S
C881   C883    1.389   .     A
C882   C884    1.387   .     A
C882   H918    1.084   .     S
C883   H889    1.083   .     S
C883   C885    1.399   .     A
C884   H890    1.083   .     S
C884   C886    1.401   .     A
C886   C651    1.465   1_565 S
Cu887  O900    1.958   .     S
Cu887  O896    1.957   .     S
Cu887  N892    2.005   .     S
Cu887  Cu888   2.669   .     S
Cu887  O897    1.957   .     S
Cu887  O893    1.960   .     S
Cu888  O899    1.958   .     S
Cu888  O895    1.957   .     S
Cu888  O898    1.957   .     S
Cu888  N891    2.005   .     S
Cu888  O894    1.960   .     S
H901   C717    1.087   1_655 S
N905   C907    1.447   .     S
N905   H906    1.032   .     S
C907   H909    1.110   .     S
C907   H910    1.111   .     S
C907   H908    1.112   .     S
N911   H912    1.032   .     S
N911   C913    1.447   .     S
C913   H914    1.112   .     S
C913   H915    1.110   .     S
C913   H916    1.110   .     S
N919   C921    1.447   .     S
N919   H920    1.032   .     S
C921   H924    1.112   .     S
C921   H922    1.111   .     S
H923   C453    1.109   1_556 S
N925   H926    1.032   .     S
N925   C927    1.446   .     S
C927   H928    1.111   .     S
C927   H930    1.112   .     S
C927   H461    1.109   1_556 S
