data_str_m2_o1_o16_pcu_sym.13
_audit_creation_date              2020-01-03
_audit_creation_method            'Materials Studio'
_symmetry_space_group_name_H-M    'P1'
_symmetry_Int_Tables_number       1
_symmetry_cell_setting            triclinic
loop_
_symmetry_equiv_pos_as_xyz
  x,y,z
_cell_length_a                    28.8762
_cell_length_b                    32.4392
_cell_length_c                    27.0591
_cell_angle_alpha                 90.1856
_cell_angle_beta                  75.3511
_cell_angle_gamma                 89.7858
loop_
_atom_site_label
_atom_site_type_symbol
_atom_site_fract_x
_atom_site_fract_y
_atom_site_fract_z
_atom_site_U_iso_or_equiv
_atom_site_adp_type
_atom_site_occupancy
C1     C     0.16656   0.24578   0.25007   0.00000  Uiso   1.00
C2     C     0.12769   0.14830   0.40238   0.00000  Uiso   1.00
C3     C     0.20900   0.31091   0.22632   0.00000  Uiso   1.00
C4     C     0.14190   0.15963   0.34799   0.00000  Uiso   1.00
C5     C     0.20969   0.02023   0.22438   0.00000  Uiso   1.00
C6     C     0.16765   0.04264   0.24710   0.00000  Uiso   1.00
C7     C     0.12511   0.02167   0.26924   0.00000  Uiso   1.00
C8     C     0.12454   0.31233   0.27002   0.00000  Uiso   1.00
C9     C     0.16667   0.29030   0.24913   0.00000  Uiso   1.00
C10    C     0.30156   0.19271   0.28133   0.00000  Uiso   1.00
C11    C     0.01760   0.19289   0.28073   0.00000  Uiso   1.00
C12    C     0.14726   0.15498   0.48410   0.00000  Uiso   1.00
C13    C     0.03182   0.13989   0.21999   0.00000  Uiso   1.00
C14    C     0.31604   0.14043   0.21929   0.00000  Uiso   1.00
C15    C     0.16714   0.08745   0.24846   0.00000  Uiso   1.00
C16    C     0.19168   0.16481   0.15043   0.00000  Uiso   1.00
C17    C     0.26352   0.14296   0.01588   0.00000  Uiso   1.00
C18    C     0.20448   0.15897   0.09433   0.00000  Uiso   1.00
C19    C     0.07931   0.14956   0.42773   0.00000  Uiso   1.00
C20    C     0.06628   0.16601   0.47690   0.00000  Uiso   1.00
C21    C     0.10110   0.17194   0.00354   0.00000  Uiso   1.00
C22    C     0.16079   0.14275   0.43190   0.00000  Uiso   1.00
C23    C     0.18068   0.15081   0.01417   0.00000  Uiso   1.00
C24    C     0.22794   0.13944   0.48989   0.00000  Uiso   1.00
C25    C     0.23813   0.12178   0.44132   0.00000  Uiso   1.00
C26    C     0.20470   0.12216   0.41275   0.00000  Uiso   1.00
C27    C     0.16815   0.15293   0.06796   0.00000  Uiso   1.00
C28    C     0.25297   0.15582   0.06636   0.00000  Uiso   1.00
Cl29   Cl    0.30262   0.16323   0.09240   0.00000  Uiso   1.00
Cl30   Cl    0.26312   0.04334   0.18987   0.00000  Uiso   1.00
Cl31   Cl    0.26382   0.22654   0.32416   0.00000  Uiso   1.00
Cl32   Cl    0.11192   0.13195   0.10009   0.00000  Uiso   1.00
Cl33   Cl    0.21602   0.08933   0.35889   0.00000  Uiso   1.00
Cu34   Cu    0.11978   0.16666   0.25000   0.00000  Uiso   1.00
Cu35   Cu    0.21355   0.16667   0.25000   0.00000  Uiso   1.00
H36    H     0.09235   0.03824   0.28648   0.00000  Uiso   1.00
H37    H     0.24132   0.29378   0.20877   0.00000  Uiso   1.00
H38    H     0.03979   0.06939   0.45052   0.00000  Uiso   1.00
H39    H     0.09149   0.29658   0.28765   0.00000  Uiso   1.00
H40    H     0.03034   0.21387   0.30549   0.00000  Uiso   1.00
H41    H     0.05563   0.11768   0.19668   0.00000  Uiso   1.00
H42    H     0.30387   0.11968   0.19409   0.00000  Uiso   1.00
H43    H     0.27069   0.10474   0.42673   0.00000  Uiso   1.00
H44    H     0.29987   0.13642   0.49683   0.00000  Uiso   1.00
H45    H     0.09079   0.18723   0.04025   0.00000  Uiso   1.00
H46    H     0.02967   0.17400   0.49460   0.00000  Uiso   1.00
N47    N     0.04931   0.16666   0.24998   0.00000  Uiso   1.00
N48    N     0.28402   0.16669   0.24999   0.00000  Uiso   1.00
O49    O     0.12708   0.22678   0.25000   0.00000  Uiso   1.00
O50    O     0.05976   0.10082   0.35348   0.00000  Uiso   1.00
O51    O     0.01246   0.08578   0.44517   0.00000  Uiso   1.00
O52    O     0.20627   0.22679   0.25000   0.00000  Uiso   1.00
O53    O     0.10775   0.16665   0.32549   0.00000  Uiso   1.00
O54    O     0.18694   0.16666   0.32549   0.00000  Uiso   1.00
O55    O     0.12706   0.10654   0.24999   0.00000  Uiso   1.00
O56    O     0.20625   0.10655   0.24999   0.00000  Uiso   1.00
O57    O     0.14640   0.16667   0.17451   0.00000  Uiso   1.00
O58    O     0.22559   0.16668   0.17451   0.00000  Uiso   1.00
O59    O     0.00063   0.15273   0.39484   0.00000  Uiso   1.00
S60    S     0.03734   0.12239   0.40302   0.00000  Uiso   1.00
C61    C     0.49990   0.24578   0.25007   0.00000  Uiso   1.00
C62    C     0.46103   0.14830   0.40238   0.00000  Uiso   1.00
C63    C     0.54233   0.31091   0.22632   0.00000  Uiso   1.00
C64    C     0.47523   0.15963   0.34799   0.00000  Uiso   1.00
C65    C     0.54302   0.02023   0.22438   0.00000  Uiso   1.00
C66    C     0.50098   0.04264   0.24710   0.00000  Uiso   1.00
C67    C     0.45844   0.02167   0.26924   0.00000  Uiso   1.00
C68    C     0.45788   0.31233   0.27002   0.00000  Uiso   1.00
C69    C     0.50000   0.29030   0.24913   0.00000  Uiso   1.00
C70    C     0.63489   0.19271   0.28133   0.00000  Uiso   1.00
C71    C     0.35093   0.19289   0.28073   0.00000  Uiso   1.00
C72    C     0.48059   0.15498   0.48410   0.00000  Uiso   1.00
C73    C     0.36515   0.13989   0.21999   0.00000  Uiso   1.00
C74    C     0.64937   0.14043   0.21929   0.00000  Uiso   1.00
C75    C     0.50048   0.08745   0.24846   0.00000  Uiso   1.00
C76    C     0.52501   0.16481   0.15043   0.00000  Uiso   1.00
C77    C     0.59685   0.14296   0.01588   0.00000  Uiso   1.00
C78    C     0.53782   0.15897   0.09433   0.00000  Uiso   1.00
C79    C     0.41264   0.14956   0.42773   0.00000  Uiso   1.00
C80    C     0.39962   0.16601   0.47690   0.00000  Uiso   1.00
C81    C     0.43444   0.17194   0.00354   0.00000  Uiso   1.00
C82    C     0.49412   0.14275   0.43190   0.00000  Uiso   1.00
C83    C     0.51401   0.15081   0.01417   0.00000  Uiso   1.00
C84    C     0.56127   0.13944   0.48989   0.00000  Uiso   1.00
C85    C     0.57147   0.12178   0.44132   0.00000  Uiso   1.00
C86    C     0.53803   0.12216   0.41275   0.00000  Uiso   1.00
C87    C     0.50148   0.15293   0.06796   0.00000  Uiso   1.00
C88    C     0.58630   0.15582   0.06636   0.00000  Uiso   1.00
Cl89   Cl    0.63596   0.16323   0.09240   0.00000  Uiso   1.00
Cl90   Cl    0.59645   0.04334   0.18987   0.00000  Uiso   1.00
Cl91   Cl    0.59716   0.22654   0.32416   0.00000  Uiso   1.00
Cl92   Cl    0.44525   0.13195   0.10009   0.00000  Uiso   1.00
Cl93   Cl    0.54936   0.08933   0.35889   0.00000  Uiso   1.00
Cu94   Cu    0.45311   0.16666   0.25000   0.00000  Uiso   1.00
Cu95   Cu    0.54689   0.16667   0.25000   0.00000  Uiso   1.00
H96    H     0.42569   0.03824   0.28648   0.00000  Uiso   1.00
H97    H     0.57465   0.29378   0.20877   0.00000  Uiso   1.00
H98    H     0.37312   0.06939   0.45052   0.00000  Uiso   1.00
H99    H     0.42482   0.29658   0.28765   0.00000  Uiso   1.00
H100   H     0.36367   0.21387   0.30549   0.00000  Uiso   1.00
H101   H     0.38897   0.11768   0.19668   0.00000  Uiso   1.00
H102   H     0.63720   0.11968   0.19409   0.00000  Uiso   1.00
H103   H     0.60402   0.10474   0.42673   0.00000  Uiso   1.00
H104   H     0.63320   0.13642   0.49683   0.00000  Uiso   1.00
H105   H     0.42412   0.18723   0.04025   0.00000  Uiso   1.00
H106   H     0.36301   0.17400   0.49460   0.00000  Uiso   1.00
N107   N     0.38265   0.16666   0.24998   0.00000  Uiso   1.00
N108   N     0.61735   0.16669   0.24999   0.00000  Uiso   1.00
O109   O     0.46042   0.22678   0.25000   0.00000  Uiso   1.00
O110   O     0.39310   0.10082   0.35348   0.00000  Uiso   1.00
O111   O     0.34580   0.08578   0.44517   0.00000  Uiso   1.00
O112   O     0.53961   0.22679   0.25000   0.00000  Uiso   1.00
O113   O     0.44108   0.16665   0.32549   0.00000  Uiso   1.00
O114   O     0.52027   0.16666   0.32549   0.00000  Uiso   1.00
O115   O     0.46039   0.10654   0.24999   0.00000  Uiso   1.00
O116   O     0.53958   0.10655   0.24999   0.00000  Uiso   1.00
O117   O     0.47973   0.16667   0.17451   0.00000  Uiso   1.00
O118   O     0.55892   0.16668   0.17451   0.00000  Uiso   1.00
O119   O     0.33396   0.15273   0.39484   0.00000  Uiso   1.00
S120   S     0.37068   0.12239   0.40302   0.00000  Uiso   1.00
C121   C     0.83323   0.24578   0.25007   0.00000  Uiso   1.00
C122   C     0.79436   0.14830   0.40238   0.00000  Uiso   1.00
C123   C     0.87567   0.31091   0.22632   0.00000  Uiso   1.00
C124   C     0.80857   0.15963   0.34799   0.00000  Uiso   1.00
C125   C     0.87636   0.02023   0.22438   0.00000  Uiso   1.00
C126   C     0.83432   0.04264   0.24710   0.00000  Uiso   1.00
C127   C     0.79177   0.02167   0.26924   0.00000  Uiso   1.00
C128   C     0.79121   0.31233   0.27002   0.00000  Uiso   1.00
C129   C     0.83333   0.29030   0.24913   0.00000  Uiso   1.00
C130   C     0.96822   0.19271   0.28133   0.00000  Uiso   1.00
C131   C     0.68426   0.19289   0.28073   0.00000  Uiso   1.00
C132   C     0.81392   0.15498   0.48410   0.00000  Uiso   1.00
C133   C     0.69849   0.13989   0.21999   0.00000  Uiso   1.00
C134   C     0.98271   0.14043   0.21929   0.00000  Uiso   1.00
C135   C     0.83381   0.08745   0.24846   0.00000  Uiso   1.00
C136   C     0.85834   0.16481   0.15043   0.00000  Uiso   1.00
C137   C     0.93019   0.14296   0.01588   0.00000  Uiso   1.00
C138   C     0.87115   0.15897   0.09433   0.00000  Uiso   1.00
C139   C     0.74598   0.14956   0.42773   0.00000  Uiso   1.00
C140   C     0.73295   0.16601   0.47690   0.00000  Uiso   1.00
C141   C     0.76777   0.17194   0.00354   0.00000  Uiso   1.00
C142   C     0.82746   0.14275   0.43190   0.00000  Uiso   1.00
C143   C     0.84734   0.15081   0.01417   0.00000  Uiso   1.00
C144   C     0.89461   0.13944   0.48989   0.00000  Uiso   1.00
C145   C     0.90480   0.12178   0.44132   0.00000  Uiso   1.00
C146   C     0.87137   0.12216   0.41275   0.00000  Uiso   1.00
C147   C     0.83481   0.15293   0.06796   0.00000  Uiso   1.00
C148   C     0.91964   0.15582   0.06636   0.00000  Uiso   1.00
Cl149  Cl    0.96929   0.16323   0.09240   0.00000  Uiso   1.00
Cl150  Cl    0.92979   0.04334   0.18987   0.00000  Uiso   1.00
Cl151  Cl    0.93049   0.22654   0.32416   0.00000  Uiso   1.00
Cl152  Cl    0.77859   0.13195   0.10009   0.00000  Uiso   1.00
Cl153  Cl    0.88269   0.08933   0.35889   0.00000  Uiso   1.00
Cu154  Cu    0.78645   0.16666   0.25000   0.00000  Uiso   1.00
Cu155  Cu    0.88022   0.16667   0.25000   0.00000  Uiso   1.00
H156   H     0.75902   0.03824   0.28648   0.00000  Uiso   1.00
H157   H     0.90798   0.29378   0.20877   0.00000  Uiso   1.00
H158   H     0.70646   0.06939   0.45052   0.00000  Uiso   1.00
H159   H     0.75816   0.29658   0.28765   0.00000  Uiso   1.00
H160   H     0.69701   0.21387   0.30549   0.00000  Uiso   1.00
H161   H     0.72230   0.11768   0.19668   0.00000  Uiso   1.00
H162   H     0.97054   0.11968   0.19409   0.00000  Uiso   1.00
H163   H     0.93736   0.10474   0.42673   0.00000  Uiso   1.00
H164   H     0.96654   0.13642   0.49683   0.00000  Uiso   1.00
H165   H     0.75745   0.18723   0.04025   0.00000  Uiso   1.00
H166   H     0.69634   0.17400   0.49460   0.00000  Uiso   1.00
N167   N     0.71598   0.16666   0.24998   0.00000  Uiso   1.00
N168   N     0.95069   0.16669   0.24999   0.00000  Uiso   1.00
O169   O     0.79375   0.22678   0.25000   0.00000  Uiso   1.00
O170   O     0.72643   0.10082   0.35348   0.00000  Uiso   1.00
O171   O     0.67913   0.08578   0.44517   0.00000  Uiso   1.00
O172   O     0.87294   0.22679   0.25000   0.00000  Uiso   1.00
O173   O     0.77441   0.16665   0.32549   0.00000  Uiso   1.00
O174   O     0.85360   0.16666   0.32549   0.00000  Uiso   1.00
O175   O     0.79373   0.10654   0.24999   0.00000  Uiso   1.00
O176   O     0.87292   0.10655   0.24999   0.00000  Uiso   1.00
O177   O     0.81306   0.16667   0.17451   0.00000  Uiso   1.00
O178   O     0.89225   0.16668   0.17451   0.00000  Uiso   1.00
O179   O     0.66730   0.15273   0.39484   0.00000  Uiso   1.00
S180   S     0.70401   0.12239   0.40302   0.00000  Uiso   1.00
C181   C     0.16656   0.57911   0.25007   0.00000  Uiso   1.00
C182   C     0.12769   0.48163   0.40238   0.00000  Uiso   1.00
C183   C     0.20900   0.64424   0.22632   0.00000  Uiso   1.00
C184   C     0.14190   0.49297   0.34799   0.00000  Uiso   1.00
C185   C     0.20969   0.35357   0.22438   0.00000  Uiso   1.00
C186   C     0.16765   0.37598   0.24710   0.00000  Uiso   1.00
C187   C     0.12511   0.35500   0.26924   0.00000  Uiso   1.00
C188   C     0.12454   0.64566   0.27002   0.00000  Uiso   1.00
C189   C     0.16667   0.62364   0.24913   0.00000  Uiso   1.00
C190   C     0.30156   0.52605   0.28133   0.00000  Uiso   1.00
C191   C     0.01760   0.52622   0.28073   0.00000  Uiso   1.00
C192   C     0.14726   0.48831   0.48410   0.00000  Uiso   1.00
C193   C     0.03182   0.47323   0.21999   0.00000  Uiso   1.00
C194   C     0.31604   0.47377   0.21929   0.00000  Uiso   1.00
C195   C     0.16714   0.42078   0.24846   0.00000  Uiso   1.00
C196   C     0.19168   0.49814   0.15043   0.00000  Uiso   1.00
C197   C     0.26352   0.47630   0.01588   0.00000  Uiso   1.00
C198   C     0.20448   0.49231   0.09433   0.00000  Uiso   1.00
C199   C     0.07931   0.48289   0.42773   0.00000  Uiso   1.00
C200   C     0.06628   0.49934   0.47690   0.00000  Uiso   1.00
C201   C     0.10110   0.50527   0.00354   0.00000  Uiso   1.00
C202   C     0.16079   0.47609   0.43190   0.00000  Uiso   1.00
C203   C     0.18068   0.48414   0.01417   0.00000  Uiso   1.00
C204   C     0.22794   0.47278   0.48989   0.00000  Uiso   1.00
C205   C     0.23813   0.45511   0.44132   0.00000  Uiso   1.00
C206   C     0.20470   0.45549   0.41275   0.00000  Uiso   1.00
C207   C     0.16815   0.48626   0.06796   0.00000  Uiso   1.00
C208   C     0.25297   0.48915   0.06636   0.00000  Uiso   1.00
Cl209  Cl    0.30262   0.49657   0.09240   0.00000  Uiso   1.00
Cl210  Cl    0.26312   0.37667   0.18987   0.00000  Uiso   1.00
Cl211  Cl    0.26382   0.55987   0.32416   0.00000  Uiso   1.00
Cl212  Cl    0.11192   0.46528   0.10009   0.00000  Uiso   1.00
Cl213  Cl    0.21602   0.42267   0.35889   0.00000  Uiso   1.00
Cu214  Cu    0.11978   0.49999   0.25000   0.00000  Uiso   1.00
Cu215  Cu    0.21355   0.50001   0.25000   0.00000  Uiso   1.00
H216   H     0.09235   0.37157   0.28648   0.00000  Uiso   1.00
H217   H     0.24132   0.62711   0.20877   0.00000  Uiso   1.00
H218   H     0.03979   0.40272   0.45052   0.00000  Uiso   1.00
H219   H     0.09149   0.62991   0.28765   0.00000  Uiso   1.00
H220   H     0.03034   0.54721   0.30549   0.00000  Uiso   1.00
H221   H     0.05563   0.45102   0.19668   0.00000  Uiso   1.00
H222   H     0.30387   0.45302   0.19409   0.00000  Uiso   1.00
H223   H     0.27069   0.43808   0.42673   0.00000  Uiso   1.00
H224   H     0.29987   0.46975   0.49683   0.00000  Uiso   1.00
H225   H     0.09079   0.52056   0.04025   0.00000  Uiso   1.00
H226   H     0.02967   0.50733   0.49460   0.00000  Uiso   1.00
N227   N     0.04931   0.49999   0.24998   0.00000  Uiso   1.00
N228   N     0.28402   0.50002   0.24999   0.00000  Uiso   1.00
O229   O     0.12708   0.56011   0.25000   0.00000  Uiso   1.00
O230   O     0.05976   0.43416   0.35348   0.00000  Uiso   1.00
O231   O     0.01246   0.41912   0.44517   0.00000  Uiso   1.00
O232   O     0.20627   0.56012   0.25000   0.00000  Uiso   1.00
O233   O     0.10775   0.49998   0.32549   0.00000  Uiso   1.00
O234   O     0.18694   0.49999   0.32549   0.00000  Uiso   1.00
O235   O     0.12706   0.43988   0.24999   0.00000  Uiso   1.00
O236   O     0.20625   0.43989   0.24999   0.00000  Uiso   1.00
O237   O     0.14640   0.50001   0.17451   0.00000  Uiso   1.00
O238   O     0.22559   0.50002   0.17451   0.00000  Uiso   1.00
O239   O     0.00063   0.48606   0.39484   0.00000  Uiso   1.00
S240   S     0.03734   0.45572   0.40302   0.00000  Uiso   1.00
C241   C     0.49990   0.57911   0.25007   0.00000  Uiso   1.00
C242   C     0.46103   0.48163   0.40238   0.00000  Uiso   1.00
C243   C     0.54233   0.64424   0.22632   0.00000  Uiso   1.00
C244   C     0.47523   0.49297   0.34799   0.00000  Uiso   1.00
C245   C     0.54302   0.35357   0.22438   0.00000  Uiso   1.00
C246   C     0.50098   0.37598   0.24710   0.00000  Uiso   1.00
C247   C     0.45844   0.35500   0.26924   0.00000  Uiso   1.00
C248   C     0.45788   0.64566   0.27002   0.00000  Uiso   1.00
C249   C     0.50000   0.62364   0.24913   0.00000  Uiso   1.00
C250   C     0.63489   0.52605   0.28133   0.00000  Uiso   1.00
C251   C     0.35093   0.52622   0.28073   0.00000  Uiso   1.00
C252   C     0.48059   0.48831   0.48410   0.00000  Uiso   1.00
C253   C     0.36515   0.47323   0.21999   0.00000  Uiso   1.00
C254   C     0.64937   0.47377   0.21929   0.00000  Uiso   1.00
C255   C     0.50048   0.42078   0.24846   0.00000  Uiso   1.00
C256   C     0.52501   0.49814   0.15043   0.00000  Uiso   1.00
C257   C     0.59685   0.47630   0.01588   0.00000  Uiso   1.00
C258   C     0.53782   0.49231   0.09433   0.00000  Uiso   1.00
C259   C     0.41264   0.48289   0.42773   0.00000  Uiso   1.00
C260   C     0.39962   0.49934   0.47690   0.00000  Uiso   1.00
C261   C     0.43444   0.50527   0.00354   0.00000  Uiso   1.00
C262   C     0.49412   0.47609   0.43190   0.00000  Uiso   1.00
C263   C     0.51401   0.48414   0.01417   0.00000  Uiso   1.00
C264   C     0.56127   0.47278   0.48989   0.00000  Uiso   1.00
C265   C     0.57147   0.45511   0.44132   0.00000  Uiso   1.00
C266   C     0.53803   0.45549   0.41275   0.00000  Uiso   1.00
C267   C     0.50148   0.48626   0.06796   0.00000  Uiso   1.00
C268   C     0.58630   0.48915   0.06636   0.00000  Uiso   1.00
Cl269  Cl    0.63596   0.49657   0.09240   0.00000  Uiso   1.00
Cl270  Cl    0.59645   0.37667   0.18987   0.00000  Uiso   1.00
Cl271  Cl    0.59716   0.55987   0.32416   0.00000  Uiso   1.00
Cl272  Cl    0.44525   0.46528   0.10009   0.00000  Uiso   1.00
Cl273  Cl    0.54936   0.42267   0.35889   0.00000  Uiso   1.00
Cu274  Cu    0.45311   0.49999   0.25000   0.00000  Uiso   1.00
Cu275  Cu    0.54689   0.50001   0.25000   0.00000  Uiso   1.00
H276   H     0.42569   0.37157   0.28648   0.00000  Uiso   1.00
H277   H     0.57465   0.62711   0.20877   0.00000  Uiso   1.00
H278   H     0.37312   0.40272   0.45052   0.00000  Uiso   1.00
H279   H     0.42482   0.62991   0.28765   0.00000  Uiso   1.00
H280   H     0.36367   0.54721   0.30549   0.00000  Uiso   1.00
H281   H     0.38897   0.45102   0.19668   0.00000  Uiso   1.00
H282   H     0.63720   0.45302   0.19409   0.00000  Uiso   1.00
H283   H     0.60402   0.43808   0.42673   0.00000  Uiso   1.00
H284   H     0.63320   0.46975   0.49683   0.00000  Uiso   1.00
H285   H     0.42412   0.52056   0.04025   0.00000  Uiso   1.00
H286   H     0.36301   0.50733   0.49460   0.00000  Uiso   1.00
N287   N     0.38265   0.49999   0.24998   0.00000  Uiso   1.00
N288   N     0.61735   0.50002   0.24999   0.00000  Uiso   1.00
O289   O     0.46042   0.56011   0.25000   0.00000  Uiso   1.00
O290   O     0.39310   0.43416   0.35348   0.00000  Uiso   1.00
O291   O     0.34580   0.41912   0.44517   0.00000  Uiso   1.00
O292   O     0.53961   0.56012   0.25000   0.00000  Uiso   1.00
O293   O     0.44108   0.49998   0.32549   0.00000  Uiso   1.00
O294   O     0.52027   0.49999   0.32549   0.00000  Uiso   1.00
O295   O     0.46039   0.43988   0.24999   0.00000  Uiso   1.00
O296   O     0.53958   0.43989   0.24999   0.00000  Uiso   1.00
O297   O     0.47973   0.50001   0.17451   0.00000  Uiso   1.00
O298   O     0.55892   0.50002   0.17451   0.00000  Uiso   1.00
O299   O     0.33396   0.48606   0.39484   0.00000  Uiso   1.00
S300   S     0.37068   0.45572   0.40302   0.00000  Uiso   1.00
C301   C     0.83323   0.57911   0.25007   0.00000  Uiso   1.00
C302   C     0.79436   0.48163   0.40238   0.00000  Uiso   1.00
C303   C     0.87567   0.64424   0.22632   0.00000  Uiso   1.00
C304   C     0.80857   0.49297   0.34799   0.00000  Uiso   1.00
C305   C     0.87636   0.35357   0.22438   0.00000  Uiso   1.00
C306   C     0.83432   0.37598   0.24710   0.00000  Uiso   1.00
C307   C     0.79177   0.35500   0.26924   0.00000  Uiso   1.00
C308   C     0.79121   0.64566   0.27002   0.00000  Uiso   1.00
C309   C     0.83333   0.62364   0.24913   0.00000  Uiso   1.00
C310   C     0.96822   0.52605   0.28133   0.00000  Uiso   1.00
C311   C     0.68426   0.52622   0.28073   0.00000  Uiso   1.00
C312   C     0.81392   0.48831   0.48410   0.00000  Uiso   1.00
C313   C     0.69849   0.47323   0.21999   0.00000  Uiso   1.00
C314   C     0.98271   0.47377   0.21929   0.00000  Uiso   1.00
C315   C     0.83381   0.42078   0.24846   0.00000  Uiso   1.00
C316   C     0.85834   0.49814   0.15043   0.00000  Uiso   1.00
C317   C     0.93019   0.47630   0.01588   0.00000  Uiso   1.00
C318   C     0.87115   0.49231   0.09433   0.00000  Uiso   1.00
C319   C     0.74598   0.48289   0.42773   0.00000  Uiso   1.00
C320   C     0.73295   0.49934   0.47690   0.00000  Uiso   1.00
C321   C     0.76777   0.50527   0.00354   0.00000  Uiso   1.00
C322   C     0.82746   0.47609   0.43190   0.00000  Uiso   1.00
C323   C     0.84734   0.48414   0.01417   0.00000  Uiso   1.00
C324   C     0.89461   0.47278   0.48989   0.00000  Uiso   1.00
C325   C     0.90480   0.45511   0.44132   0.00000  Uiso   1.00
C326   C     0.87137   0.45549   0.41275   0.00000  Uiso   1.00
C327   C     0.83481   0.48626   0.06796   0.00000  Uiso   1.00
C328   C     0.91964   0.48915   0.06636   0.00000  Uiso   1.00
Cl329  Cl    0.96929   0.49657   0.09240   0.00000  Uiso   1.00
Cl330  Cl    0.92979   0.37667   0.18987   0.00000  Uiso   1.00
Cl331  Cl    0.93049   0.55987   0.32416   0.00000  Uiso   1.00
Cl332  Cl    0.77859   0.46528   0.10009   0.00000  Uiso   1.00
Cl333  Cl    0.88269   0.42267   0.35889   0.00000  Uiso   1.00
Cu334  Cu    0.78645   0.49999   0.25000   0.00000  Uiso   1.00
Cu335  Cu    0.88022   0.50001   0.25000   0.00000  Uiso   1.00
H336   H     0.75902   0.37157   0.28648   0.00000  Uiso   1.00
H337   H     0.90798   0.62711   0.20877   0.00000  Uiso   1.00
H338   H     0.70646   0.40272   0.45052   0.00000  Uiso   1.00
H339   H     0.75816   0.62991   0.28765   0.00000  Uiso   1.00
H340   H     0.69701   0.54721   0.30549   0.00000  Uiso   1.00
H341   H     0.72230   0.45102   0.19668   0.00000  Uiso   1.00
H342   H     0.97054   0.45302   0.19409   0.00000  Uiso   1.00
H343   H     0.93736   0.43808   0.42673   0.00000  Uiso   1.00
H344   H     0.96654   0.46975   0.49683   0.00000  Uiso   1.00
H345   H     0.75745   0.52056   0.04025   0.00000  Uiso   1.00
H346   H     0.69634   0.50733   0.49460   0.00000  Uiso   1.00
N347   N     0.71598   0.49999   0.24998   0.00000  Uiso   1.00
N348   N     0.95069   0.50002   0.24999   0.00000  Uiso   1.00
O349   O     0.79375   0.56011   0.25000   0.00000  Uiso   1.00
O350   O     0.72643   0.43416   0.35348   0.00000  Uiso   1.00
O351   O     0.67913   0.41912   0.44517   0.00000  Uiso   1.00
O352   O     0.87294   0.56012   0.25000   0.00000  Uiso   1.00
O353   O     0.77441   0.49998   0.32549   0.00000  Uiso   1.00
O354   O     0.85360   0.49999   0.32549   0.00000  Uiso   1.00
O355   O     0.79373   0.43988   0.24999   0.00000  Uiso   1.00
O356   O     0.87292   0.43989   0.24999   0.00000  Uiso   1.00
O357   O     0.81306   0.50001   0.17451   0.00000  Uiso   1.00
O358   O     0.89225   0.50002   0.17451   0.00000  Uiso   1.00
O359   O     0.66730   0.48606   0.39484   0.00000  Uiso   1.00
S360   S     0.70401   0.45572   0.40302   0.00000  Uiso   1.00
C361   C     0.16656   0.91245   0.25007   0.00000  Uiso   1.00
C362   C     0.12769   0.81497   0.40238   0.00000  Uiso   1.00
C363   C     0.20900   0.97757   0.22632   0.00000  Uiso   1.00
C364   C     0.14190   0.82630   0.34799   0.00000  Uiso   1.00
C365   C     0.20969   0.68690   0.22438   0.00000  Uiso   1.00
C366   C     0.16765   0.70931   0.24710   0.00000  Uiso   1.00
C367   C     0.12511   0.68834   0.26924   0.00000  Uiso   1.00
C368   C     0.12454   0.97899   0.27002   0.00000  Uiso   1.00
C369   C     0.16667   0.95697   0.24913   0.00000  Uiso   1.00
C370   C     0.30156   0.85938   0.28133   0.00000  Uiso   1.00
C371   C     0.01760   0.85956   0.28073   0.00000  Uiso   1.00
C372   C     0.14726   0.82164   0.48410   0.00000  Uiso   1.00
C373   C     0.03182   0.80656   0.21999   0.00000  Uiso   1.00
C374   C     0.31604   0.80710   0.21929   0.00000  Uiso   1.00
C375   C     0.16714   0.75412   0.24846   0.00000  Uiso   1.00
C376   C     0.19168   0.83147   0.15043   0.00000  Uiso   1.00
C377   C     0.26352   0.80963   0.01588   0.00000  Uiso   1.00
C378   C     0.20448   0.82564   0.09433   0.00000  Uiso   1.00
C379   C     0.07931   0.81622   0.42773   0.00000  Uiso   1.00
C380   C     0.06628   0.83268   0.47690   0.00000  Uiso   1.00
C381   C     0.10110   0.83861   0.00354   0.00000  Uiso   1.00
C382   C     0.16079   0.80942   0.43190   0.00000  Uiso   1.00
C383   C     0.18068   0.81748   0.01417   0.00000  Uiso   1.00
C384   C     0.22794   0.80611   0.48989   0.00000  Uiso   1.00
C385   C     0.23813   0.78845   0.44132   0.00000  Uiso   1.00
C386   C     0.20470   0.78883   0.41275   0.00000  Uiso   1.00
C387   C     0.16815   0.81960   0.06796   0.00000  Uiso   1.00
C388   C     0.25297   0.82248   0.06636   0.00000  Uiso   1.00
Cl389  Cl    0.30262   0.82990   0.09240   0.00000  Uiso   1.00
Cl390  Cl    0.26312   0.71000   0.18987   0.00000  Uiso   1.00
Cl391  Cl    0.26382   0.89321   0.32416   0.00000  Uiso   1.00
Cl392  Cl    0.11192   0.79861   0.10009   0.00000  Uiso   1.00
Cl393  Cl    0.21602   0.75600   0.35889   0.00000  Uiso   1.00
Cu394  Cu    0.11978   0.83333   0.25000   0.00000  Uiso   1.00
Cu395  Cu    0.21355   0.83334   0.25000   0.00000  Uiso   1.00
H396   H     0.09235   0.70490   0.28648   0.00000  Uiso   1.00
H397   H     0.24132   0.96044   0.20877   0.00000  Uiso   1.00
H398   H     0.03979   0.73606   0.45052   0.00000  Uiso   1.00
H399   H     0.09149   0.96325   0.28765   0.00000  Uiso   1.00
H400   H     0.03034   0.88054   0.30549   0.00000  Uiso   1.00
H401   H     0.05563   0.78435   0.19668   0.00000  Uiso   1.00
H402   H     0.30387   0.78635   0.19409   0.00000  Uiso   1.00
H403   H     0.27069   0.77141   0.42673   0.00000  Uiso   1.00
H404   H     0.29987   0.80309   0.49683   0.00000  Uiso   1.00
H405   H     0.09079   0.85390   0.04025   0.00000  Uiso   1.00
H406   H     0.02967   0.84067   0.49460   0.00000  Uiso   1.00
N407   N     0.04931   0.83332   0.24998   0.00000  Uiso   1.00
N408   N     0.28402   0.83335   0.24999   0.00000  Uiso   1.00
O409   O     0.12708   0.89345   0.25000   0.00000  Uiso   1.00
O410   O     0.05976   0.76749   0.35348   0.00000  Uiso   1.00
O411   O     0.01246   0.75245   0.44517   0.00000  Uiso   1.00
O412   O     0.20627   0.89346   0.25000   0.00000  Uiso   1.00
O413   O     0.10775   0.83332   0.32549   0.00000  Uiso   1.00
O414   O     0.18694   0.83333   0.32549   0.00000  Uiso   1.00
O415   O     0.12706   0.77321   0.24999   0.00000  Uiso   1.00
O416   O     0.20625   0.77322   0.24999   0.00000  Uiso   1.00
O417   O     0.14640   0.83334   0.17451   0.00000  Uiso   1.00
O418   O     0.22559   0.83335   0.17451   0.00000  Uiso   1.00
O419   O     0.00063   0.81939   0.39484   0.00000  Uiso   1.00
S420   S     0.03734   0.78906   0.40302   0.00000  Uiso   1.00
C421   C     0.49990   0.91245   0.25007   0.00000  Uiso   1.00
C422   C     0.46103   0.81497   0.40238   0.00000  Uiso   1.00
C423   C     0.54233   0.97757   0.22632   0.00000  Uiso   1.00
C424   C     0.47523   0.82630   0.34799   0.00000  Uiso   1.00
C425   C     0.54302   0.68690   0.22438   0.00000  Uiso   1.00
C426   C     0.50098   0.70931   0.24710   0.00000  Uiso   1.00
C427   C     0.45844   0.68834   0.26924   0.00000  Uiso   1.00
C428   C     0.45788   0.97899   0.27002   0.00000  Uiso   1.00
C429   C     0.50000   0.95697   0.24913   0.00000  Uiso   1.00
C430   C     0.63489   0.85938   0.28133   0.00000  Uiso   1.00
C431   C     0.35093   0.85956   0.28073   0.00000  Uiso   1.00
C432   C     0.48059   0.82164   0.48410   0.00000  Uiso   1.00
C433   C     0.36515   0.80656   0.21999   0.00000  Uiso   1.00
C434   C     0.64937   0.80710   0.21929   0.00000  Uiso   1.00
C435   C     0.50048   0.75412   0.24846   0.00000  Uiso   1.00
C436   C     0.52501   0.83147   0.15043   0.00000  Uiso   1.00
C437   C     0.59685   0.80963   0.01588   0.00000  Uiso   1.00
C438   C     0.53782   0.82564   0.09433   0.00000  Uiso   1.00
C439   C     0.41264   0.81622   0.42773   0.00000  Uiso   1.00
C440   C     0.39962   0.83268   0.47690   0.00000  Uiso   1.00
C441   C     0.43444   0.83861   0.00354   0.00000  Uiso   1.00
C442   C     0.49412   0.80942   0.43190   0.00000  Uiso   1.00
C443   C     0.51401   0.81748   0.01417   0.00000  Uiso   1.00
C444   C     0.56127   0.80611   0.48989   0.00000  Uiso   1.00
C445   C     0.57147   0.78845   0.44132   0.00000  Uiso   1.00
C446   C     0.53803   0.78883   0.41275   0.00000  Uiso   1.00
C447   C     0.50148   0.81960   0.06796   0.00000  Uiso   1.00
C448   C     0.58630   0.82248   0.06636   0.00000  Uiso   1.00
Cl449  Cl    0.63596   0.82990   0.09240   0.00000  Uiso   1.00
Cl450  Cl    0.59645   0.71000   0.18987   0.00000  Uiso   1.00
Cl451  Cl    0.59716   0.89321   0.32416   0.00000  Uiso   1.00
Cl452  Cl    0.44525   0.79861   0.10009   0.00000  Uiso   1.00
Cl453  Cl    0.54936   0.75600   0.35889   0.00000  Uiso   1.00
Cu454  Cu    0.45311   0.83333   0.25000   0.00000  Uiso   1.00
Cu455  Cu    0.54689   0.83334   0.25000   0.00000  Uiso   1.00
H456   H     0.42569   0.70490   0.28648   0.00000  Uiso   1.00
H457   H     0.57465   0.96044   0.20877   0.00000  Uiso   1.00
H458   H     0.37312   0.73606   0.45052   0.00000  Uiso   1.00
H459   H     0.42482   0.96325   0.28765   0.00000  Uiso   1.00
H460   H     0.36367   0.88054   0.30549   0.00000  Uiso   1.00
H461   H     0.38897   0.78435   0.19668   0.00000  Uiso   1.00
H462   H     0.63720   0.78635   0.19409   0.00000  Uiso   1.00
H463   H     0.60402   0.77141   0.42673   0.00000  Uiso   1.00
H464   H     0.63320   0.80309   0.49683   0.00000  Uiso   1.00
H465   H     0.42412   0.85390   0.04025   0.00000  Uiso   1.00
H466   H     0.36301   0.84067   0.49460   0.00000  Uiso   1.00
N467   N     0.38265   0.83332   0.24998   0.00000  Uiso   1.00
N468   N     0.61735   0.83335   0.24999   0.00000  Uiso   1.00
O469   O     0.46042   0.89345   0.25000   0.00000  Uiso   1.00
O470   O     0.39310   0.76749   0.35348   0.00000  Uiso   1.00
O471   O     0.34580   0.75245   0.44517   0.00000  Uiso   1.00
O472   O     0.53961   0.89346   0.25000   0.00000  Uiso   1.00
O473   O     0.44108   0.83332   0.32549   0.00000  Uiso   1.00
O474   O     0.52027   0.83333   0.32549   0.00000  Uiso   1.00
O475   O     0.46039   0.77321   0.24999   0.00000  Uiso   1.00
O476   O     0.53958   0.77322   0.24999   0.00000  Uiso   1.00
O477   O     0.47973   0.83334   0.17451   0.00000  Uiso   1.00
O478   O     0.55892   0.83335   0.17451   0.00000  Uiso   1.00
O479   O     0.33396   0.81939   0.39484   0.00000  Uiso   1.00
S480   S     0.37068   0.78906   0.40302   0.00000  Uiso   1.00
C481   C     0.83323   0.91245   0.25007   0.00000  Uiso   1.00
C482   C     0.79436   0.81497   0.40238   0.00000  Uiso   1.00
C483   C     0.87567   0.97757   0.22632   0.00000  Uiso   1.00
C484   C     0.80857   0.82630   0.34799   0.00000  Uiso   1.00
C485   C     0.87636   0.68690   0.22438   0.00000  Uiso   1.00
C486   C     0.83432   0.70931   0.24710   0.00000  Uiso   1.00
C487   C     0.79177   0.68834   0.26924   0.00000  Uiso   1.00
C488   C     0.79121   0.97899   0.27002   0.00000  Uiso   1.00
C489   C     0.83333   0.95697   0.24913   0.00000  Uiso   1.00
C490   C     0.96822   0.85938   0.28133   0.00000  Uiso   1.00
C491   C     0.68426   0.85956   0.28073   0.00000  Uiso   1.00
C492   C     0.81392   0.82164   0.48410   0.00000  Uiso   1.00
C493   C     0.69849   0.80656   0.21999   0.00000  Uiso   1.00
C494   C     0.98271   0.80710   0.21929   0.00000  Uiso   1.00
C495   C     0.83381   0.75412   0.24846   0.00000  Uiso   1.00
C496   C     0.85834   0.83147   0.15043   0.00000  Uiso   1.00
C497   C     0.93019   0.80963   0.01588   0.00000  Uiso   1.00
C498   C     0.87115   0.82564   0.09433   0.00000  Uiso   1.00
C499   C     0.74598   0.81622   0.42773   0.00000  Uiso   1.00
C500   C     0.73295   0.83268   0.47690   0.00000  Uiso   1.00
C501   C     0.76777   0.83861   0.00354   0.00000  Uiso   1.00
C502   C     0.82746   0.80942   0.43190   0.00000  Uiso   1.00
C503   C     0.84734   0.81748   0.01417   0.00000  Uiso   1.00
C504   C     0.89461   0.80611   0.48989   0.00000  Uiso   1.00
C505   C     0.90480   0.78845   0.44132   0.00000  Uiso   1.00
C506   C     0.87137   0.78883   0.41275   0.00000  Uiso   1.00
C507   C     0.83481   0.81960   0.06796   0.00000  Uiso   1.00
C508   C     0.91964   0.82248   0.06636   0.00000  Uiso   1.00
Cl509  Cl    0.96929   0.82990   0.09240   0.00000  Uiso   1.00
Cl510  Cl    0.92979   0.71000   0.18987   0.00000  Uiso   1.00
Cl511  Cl    0.93049   0.89321   0.32416   0.00000  Uiso   1.00
Cl512  Cl    0.77859   0.79861   0.10009   0.00000  Uiso   1.00
Cl513  Cl    0.88269   0.75600   0.35889   0.00000  Uiso   1.00
Cu514  Cu    0.78645   0.83333   0.25000   0.00000  Uiso   1.00
Cu515  Cu    0.88022   0.83334   0.25000   0.00000  Uiso   1.00
H516   H     0.75902   0.70490   0.28648   0.00000  Uiso   1.00
H517   H     0.90798   0.96044   0.20877   0.00000  Uiso   1.00
H518   H     0.70646   0.73606   0.45052   0.00000  Uiso   1.00
H519   H     0.75816   0.96325   0.28765   0.00000  Uiso   1.00
H520   H     0.69701   0.88054   0.30549   0.00000  Uiso   1.00
H521   H     0.72230   0.78435   0.19668   0.00000  Uiso   1.00
H522   H     0.97054   0.78635   0.19409   0.00000  Uiso   1.00
H523   H     0.93736   0.77141   0.42673   0.00000  Uiso   1.00
H524   H     0.96654   0.80309   0.49683   0.00000  Uiso   1.00
H525   H     0.75745   0.85390   0.04025   0.00000  Uiso   1.00
H526   H     0.69634   0.84067   0.49460   0.00000  Uiso   1.00
N527   N     0.71598   0.83332   0.24998   0.00000  Uiso   1.00
N528   N     0.95069   0.83335   0.24999   0.00000  Uiso   1.00
O529   O     0.79375   0.89345   0.25000   0.00000  Uiso   1.00
O530   O     0.72643   0.76749   0.35348   0.00000  Uiso   1.00
O531   O     0.67913   0.75245   0.44517   0.00000  Uiso   1.00
O532   O     0.87294   0.89346   0.25000   0.00000  Uiso   1.00
O533   O     0.77441   0.83332   0.32549   0.00000  Uiso   1.00
O534   O     0.85360   0.83333   0.32549   0.00000  Uiso   1.00
O535   O     0.79373   0.77321   0.24999   0.00000  Uiso   1.00
O536   O     0.87292   0.77322   0.24999   0.00000  Uiso   1.00
O537   O     0.81306   0.83334   0.17451   0.00000  Uiso   1.00
O538   O     0.89225   0.83335   0.17451   0.00000  Uiso   1.00
O539   O     0.66730   0.81939   0.39484   0.00000  Uiso   1.00
S540   S     0.70401   0.78906   0.40302   0.00000  Uiso   1.00
C541   C     0.16656   0.24578   0.75007   0.00000  Uiso   1.00
C542   C     0.12769   0.14830   0.90238   0.00000  Uiso   1.00
C543   C     0.20900   0.31091   0.72632   0.00000  Uiso   1.00
C544   C     0.14190   0.15963   0.84799   0.00000  Uiso   1.00
C545   C     0.20969   0.02023   0.72438   0.00000  Uiso   1.00
C546   C     0.16765   0.04264   0.74710   0.00000  Uiso   1.00
C547   C     0.12511   0.02167   0.76924   0.00000  Uiso   1.00
C548   C     0.12454   0.31233   0.77002   0.00000  Uiso   1.00
C549   C     0.16667   0.29030   0.74913   0.00000  Uiso   1.00
C550   C     0.30156   0.19271   0.78133   0.00000  Uiso   1.00
C551   C     0.01760   0.19289   0.78073   0.00000  Uiso   1.00
C552   C     0.14726   0.15498   0.98410   0.00000  Uiso   1.00
C553   C     0.03182   0.13989   0.71999   0.00000  Uiso   1.00
C554   C     0.31604   0.14043   0.71929   0.00000  Uiso   1.00
C555   C     0.16714   0.08745   0.74846   0.00000  Uiso   1.00
C556   C     0.19168   0.16481   0.65043   0.00000  Uiso   1.00
C557   C     0.26352   0.14296   0.51588   0.00000  Uiso   1.00
C558   C     0.20448   0.15897   0.59433   0.00000  Uiso   1.00
C559   C     0.07931   0.14956   0.92773   0.00000  Uiso   1.00
C560   C     0.06628   0.16601   0.97690   0.00000  Uiso   1.00
C561   C     0.10110   0.17194   0.50354   0.00000  Uiso   1.00
C562   C     0.16079   0.14275   0.93190   0.00000  Uiso   1.00
C563   C     0.18068   0.15081   0.51417   0.00000  Uiso   1.00
C564   C     0.22794   0.13944   0.98989   0.00000  Uiso   1.00
C565   C     0.23813   0.12178   0.94132   0.00000  Uiso   1.00
C566   C     0.20470   0.12216   0.91275   0.00000  Uiso   1.00
C567   C     0.16815   0.15293   0.56796   0.00000  Uiso   1.00
C568   C     0.25297   0.15582   0.56636   0.00000  Uiso   1.00
Cl569  Cl    0.30262   0.16323   0.59240   0.00000  Uiso   1.00
Cl570  Cl    0.26312   0.04334   0.68987   0.00000  Uiso   1.00
Cl571  Cl    0.26382   0.22654   0.82416   0.00000  Uiso   1.00
Cl572  Cl    0.11192   0.13195   0.60009   0.00000  Uiso   1.00
Cl573  Cl    0.21602   0.08933   0.85889   0.00000  Uiso   1.00
Cu574  Cu    0.11978   0.16666   0.75000   0.00000  Uiso   1.00
Cu575  Cu    0.21355   0.16667   0.75000   0.00000  Uiso   1.00
H576   H     0.09235   0.03824   0.78648   0.00000  Uiso   1.00
H577   H     0.24132   0.29378   0.70877   0.00000  Uiso   1.00
H578   H     0.03979   0.06939   0.95052   0.00000  Uiso   1.00
H579   H     0.09149   0.29658   0.78765   0.00000  Uiso   1.00
H580   H     0.03034   0.21387   0.80549   0.00000  Uiso   1.00
H581   H     0.05563   0.11768   0.69668   0.00000  Uiso   1.00
H582   H     0.30387   0.11968   0.69409   0.00000  Uiso   1.00
H583   H     0.27069   0.10474   0.92673   0.00000  Uiso   1.00
H584   H     0.29987   0.13642   0.99683   0.00000  Uiso   1.00
H585   H     0.09079   0.18723   0.54025   0.00000  Uiso   1.00
H586   H     0.02967   0.17400   0.99460   0.00000  Uiso   1.00
N587   N     0.04931   0.16666   0.74998   0.00000  Uiso   1.00
N588   N     0.28402   0.16669   0.74999   0.00000  Uiso   1.00
O589   O     0.12708   0.22678   0.75000   0.00000  Uiso   1.00
O590   O     0.05976   0.10082   0.85348   0.00000  Uiso   1.00
O591   O     0.01246   0.08578   0.94517   0.00000  Uiso   1.00
O592   O     0.20627   0.22679   0.75000   0.00000  Uiso   1.00
O593   O     0.10775   0.16665   0.82549   0.00000  Uiso   1.00
O594   O     0.18694   0.16666   0.82549   0.00000  Uiso   1.00
O595   O     0.12706   0.10654   0.74999   0.00000  Uiso   1.00
O596   O     0.20625   0.10655   0.74999   0.00000  Uiso   1.00
O597   O     0.14640   0.16667   0.67451   0.00000  Uiso   1.00
O598   O     0.22559   0.16668   0.67451   0.00000  Uiso   1.00
O599   O     0.00063   0.15273   0.89484   0.00000  Uiso   1.00
S600   S     0.03734   0.12239   0.90302   0.00000  Uiso   1.00
C601   C     0.49990   0.24578   0.75007   0.00000  Uiso   1.00
C602   C     0.46103   0.14830   0.90238   0.00000  Uiso   1.00
C603   C     0.54233   0.31091   0.72632   0.00000  Uiso   1.00
C604   C     0.47523   0.15963   0.84799   0.00000  Uiso   1.00
C605   C     0.54302   0.02023   0.72438   0.00000  Uiso   1.00
C606   C     0.50098   0.04264   0.74710   0.00000  Uiso   1.00
C607   C     0.45844   0.02167   0.76924   0.00000  Uiso   1.00
C608   C     0.45788   0.31233   0.77002   0.00000  Uiso   1.00
C609   C     0.50000   0.29030   0.74913   0.00000  Uiso   1.00
C610   C     0.63489   0.19271   0.78133   0.00000  Uiso   1.00
C611   C     0.35093   0.19289   0.78073   0.00000  Uiso   1.00
C612   C     0.48059   0.15498   0.98410   0.00000  Uiso   1.00
C613   C     0.36515   0.13989   0.71999   0.00000  Uiso   1.00
C614   C     0.64937   0.14043   0.71929   0.00000  Uiso   1.00
C615   C     0.50048   0.08745   0.74846   0.00000  Uiso   1.00
C616   C     0.52501   0.16481   0.65043   0.00000  Uiso   1.00
C617   C     0.59685   0.14296   0.51588   0.00000  Uiso   1.00
C618   C     0.53782   0.15897   0.59433   0.00000  Uiso   1.00
C619   C     0.41264   0.14956   0.92773   0.00000  Uiso   1.00
C620   C     0.39962   0.16601   0.97690   0.00000  Uiso   1.00
C621   C     0.43444   0.17194   0.50354   0.00000  Uiso   1.00
C622   C     0.49412   0.14275   0.93190   0.00000  Uiso   1.00
C623   C     0.51401   0.15081   0.51417   0.00000  Uiso   1.00
C624   C     0.56127   0.13944   0.98989   0.00000  Uiso   1.00
C625   C     0.57147   0.12178   0.94132   0.00000  Uiso   1.00
C626   C     0.53803   0.12216   0.91275   0.00000  Uiso   1.00
C627   C     0.50148   0.15293   0.56796   0.00000  Uiso   1.00
C628   C     0.58630   0.15582   0.56636   0.00000  Uiso   1.00
Cl629  Cl    0.63596   0.16323   0.59240   0.00000  Uiso   1.00
Cl630  Cl    0.59645   0.04334   0.68987   0.00000  Uiso   1.00
Cl631  Cl    0.59716   0.22654   0.82416   0.00000  Uiso   1.00
Cl632  Cl    0.44525   0.13195   0.60009   0.00000  Uiso   1.00
Cl633  Cl    0.54936   0.08933   0.85889   0.00000  Uiso   1.00
Cu634  Cu    0.45311   0.16666   0.75000   0.00000  Uiso   1.00
Cu635  Cu    0.54689   0.16667   0.75000   0.00000  Uiso   1.00
H636   H     0.42569   0.03824   0.78648   0.00000  Uiso   1.00
H637   H     0.57465   0.29378   0.70877   0.00000  Uiso   1.00
H638   H     0.37312   0.06939   0.95052   0.00000  Uiso   1.00
H639   H     0.42482   0.29658   0.78765   0.00000  Uiso   1.00
H640   H     0.36367   0.21387   0.80549   0.00000  Uiso   1.00
H641   H     0.38897   0.11768   0.69668   0.00000  Uiso   1.00
H642   H     0.63720   0.11968   0.69409   0.00000  Uiso   1.00
H643   H     0.60402   0.10474   0.92673   0.00000  Uiso   1.00
H644   H     0.63320   0.13642   0.99683   0.00000  Uiso   1.00
H645   H     0.42412   0.18723   0.54025   0.00000  Uiso   1.00
H646   H     0.36301   0.17400   0.99460   0.00000  Uiso   1.00
N647   N     0.38265   0.16666   0.74998   0.00000  Uiso   1.00
N648   N     0.61735   0.16669   0.74999   0.00000  Uiso   1.00
O649   O     0.46042   0.22678   0.75000   0.00000  Uiso   1.00
O650   O     0.39310   0.10082   0.85348   0.00000  Uiso   1.00
O651   O     0.34580   0.08578   0.94517   0.00000  Uiso   1.00
O652   O     0.53961   0.22679   0.75000   0.00000  Uiso   1.00
O653   O     0.44108   0.16665   0.82549   0.00000  Uiso   1.00
O654   O     0.52027   0.16666   0.82549   0.00000  Uiso   1.00
O655   O     0.46039   0.10654   0.74999   0.00000  Uiso   1.00
O656   O     0.53958   0.10655   0.74999   0.00000  Uiso   1.00
O657   O     0.47973   0.16667   0.67451   0.00000  Uiso   1.00
O658   O     0.55892   0.16668   0.67451   0.00000  Uiso   1.00
O659   O     0.33396   0.15273   0.89484   0.00000  Uiso   1.00
S660   S     0.37068   0.12239   0.90302   0.00000  Uiso   1.00
C661   C     0.83323   0.24578   0.75007   0.00000  Uiso   1.00
C662   C     0.79436   0.14830   0.90238   0.00000  Uiso   1.00
C663   C     0.87567   0.31091   0.72632   0.00000  Uiso   1.00
C664   C     0.80857   0.15963   0.84799   0.00000  Uiso   1.00
C665   C     0.87636   0.02023   0.72438   0.00000  Uiso   1.00
C666   C     0.83432   0.04264   0.74710   0.00000  Uiso   1.00
C667   C     0.79177   0.02167   0.76924   0.00000  Uiso   1.00
C668   C     0.79121   0.31233   0.77002   0.00000  Uiso   1.00
C669   C     0.83333   0.29030   0.74913   0.00000  Uiso   1.00
C670   C     0.96822   0.19271   0.78133   0.00000  Uiso   1.00
C671   C     0.68426   0.19289   0.78073   0.00000  Uiso   1.00
C672   C     0.81392   0.15498   0.98410   0.00000  Uiso   1.00
C673   C     0.69849   0.13989   0.71999   0.00000  Uiso   1.00
C674   C     0.98271   0.14043   0.71929   0.00000  Uiso   1.00
C675   C     0.83381   0.08745   0.74846   0.00000  Uiso   1.00
C676   C     0.85834   0.16481   0.65043   0.00000  Uiso   1.00
C677   C     0.93019   0.14296   0.51588   0.00000  Uiso   1.00
C678   C     0.87115   0.15897   0.59433   0.00000  Uiso   1.00
C679   C     0.74598   0.14956   0.92773   0.00000  Uiso   1.00
C680   C     0.73295   0.16601   0.97690   0.00000  Uiso   1.00
C681   C     0.76777   0.17194   0.50354   0.00000  Uiso   1.00
C682   C     0.82746   0.14275   0.93190   0.00000  Uiso   1.00
C683   C     0.84734   0.15081   0.51417   0.00000  Uiso   1.00
C684   C     0.89461   0.13944   0.98989   0.00000  Uiso   1.00
C685   C     0.90480   0.12178   0.94132   0.00000  Uiso   1.00
C686   C     0.87137   0.12216   0.91275   0.00000  Uiso   1.00
C687   C     0.83481   0.15293   0.56796   0.00000  Uiso   1.00
C688   C     0.91964   0.15582   0.56636   0.00000  Uiso   1.00
Cl689  Cl    0.96929   0.16323   0.59240   0.00000  Uiso   1.00
Cl690  Cl    0.92979   0.04334   0.68987   0.00000  Uiso   1.00
Cl691  Cl    0.93049   0.22654   0.82416   0.00000  Uiso   1.00
Cl692  Cl    0.77859   0.13195   0.60009   0.00000  Uiso   1.00
Cl693  Cl    0.88269   0.08933   0.85889   0.00000  Uiso   1.00
Cu694  Cu    0.78645   0.16666   0.75000   0.00000  Uiso   1.00
Cu695  Cu    0.88022   0.16667   0.75000   0.00000  Uiso   1.00
H696   H     0.75902   0.03824   0.78648   0.00000  Uiso   1.00
H697   H     0.90798   0.29378   0.70877   0.00000  Uiso   1.00
H698   H     0.70646   0.06939   0.95052   0.00000  Uiso   1.00
H699   H     0.75816   0.29658   0.78765   0.00000  Uiso   1.00
H700   H     0.69701   0.21387   0.80549   0.00000  Uiso   1.00
H701   H     0.72230   0.11768   0.69668   0.00000  Uiso   1.00
H702   H     0.97054   0.11968   0.69409   0.00000  Uiso   1.00
H703   H     0.93736   0.10474   0.92673   0.00000  Uiso   1.00
H704   H     0.96654   0.13642   0.99683   0.00000  Uiso   1.00
H705   H     0.75745   0.18723   0.54025   0.00000  Uiso   1.00
H706   H     0.69634   0.17400   0.99460   0.00000  Uiso   1.00
N707   N     0.71598   0.16666   0.74998   0.00000  Uiso   1.00
N708   N     0.95069   0.16669   0.74999   0.00000  Uiso   1.00
O709   O     0.79375   0.22678   0.75000   0.00000  Uiso   1.00
O710   O     0.72643   0.10082   0.85348   0.00000  Uiso   1.00
O711   O     0.67913   0.08578   0.94517   0.00000  Uiso   1.00
O712   O     0.87294   0.22679   0.75000   0.00000  Uiso   1.00
O713   O     0.77441   0.16665   0.82549   0.00000  Uiso   1.00
O714   O     0.85360   0.16666   0.82549   0.00000  Uiso   1.00
O715   O     0.79373   0.10654   0.74999   0.00000  Uiso   1.00
O716   O     0.87292   0.10655   0.74999   0.00000  Uiso   1.00
O717   O     0.81306   0.16667   0.67451   0.00000  Uiso   1.00
O718   O     0.89225   0.16668   0.67451   0.00000  Uiso   1.00
O719   O     0.66730   0.15273   0.89484   0.00000  Uiso   1.00
S720   S     0.70401   0.12239   0.90302   0.00000  Uiso   1.00
C721   C     0.16656   0.57911   0.75007   0.00000  Uiso   1.00
C722   C     0.12769   0.48163   0.90238   0.00000  Uiso   1.00
C723   C     0.20900   0.64424   0.72632   0.00000  Uiso   1.00
C724   C     0.14190   0.49297   0.84799   0.00000  Uiso   1.00
C725   C     0.20969   0.35357   0.72438   0.00000  Uiso   1.00
C726   C     0.16765   0.37598   0.74710   0.00000  Uiso   1.00
C727   C     0.12511   0.35500   0.76924   0.00000  Uiso   1.00
C728   C     0.12454   0.64566   0.77002   0.00000  Uiso   1.00
C729   C     0.16667   0.62364   0.74913   0.00000  Uiso   1.00
C730   C     0.30156   0.52605   0.78133   0.00000  Uiso   1.00
C731   C     0.01760   0.52622   0.78073   0.00000  Uiso   1.00
C732   C     0.14726   0.48831   0.98410   0.00000  Uiso   1.00
C733   C     0.03182   0.47323   0.71999   0.00000  Uiso   1.00
C734   C     0.31604   0.47377   0.71929   0.00000  Uiso   1.00
C735   C     0.16714   0.42078   0.74846   0.00000  Uiso   1.00
C736   C     0.19168   0.49814   0.65043   0.00000  Uiso   1.00
C737   C     0.26352   0.47630   0.51588   0.00000  Uiso   1.00
C738   C     0.20448   0.49231   0.59433   0.00000  Uiso   1.00
C739   C     0.07931   0.48289   0.92773   0.00000  Uiso   1.00
C740   C     0.06628   0.49934   0.97690   0.00000  Uiso   1.00
C741   C     0.10110   0.50527   0.50354   0.00000  Uiso   1.00
C742   C     0.16079   0.47609   0.93190   0.00000  Uiso   1.00
C743   C     0.18068   0.48414   0.51417   0.00000  Uiso   1.00
C744   C     0.22794   0.47278   0.98989   0.00000  Uiso   1.00
C745   C     0.23813   0.45511   0.94132   0.00000  Uiso   1.00
C746   C     0.20470   0.45549   0.91275   0.00000  Uiso   1.00
C747   C     0.16815   0.48626   0.56796   0.00000  Uiso   1.00
C748   C     0.25297   0.48915   0.56636   0.00000  Uiso   1.00
Cl749  Cl    0.30262   0.49657   0.59240   0.00000  Uiso   1.00
Cl750  Cl    0.26312   0.37667   0.68987   0.00000  Uiso   1.00
Cl751  Cl    0.26382   0.55987   0.82416   0.00000  Uiso   1.00
Cl752  Cl    0.11192   0.46528   0.60009   0.00000  Uiso   1.00
Cl753  Cl    0.21602   0.42267   0.85889   0.00000  Uiso   1.00
Cu754  Cu    0.11978   0.49999   0.75000   0.00000  Uiso   1.00
Cu755  Cu    0.21355   0.50001   0.75000   0.00000  Uiso   1.00
H756   H     0.09235   0.37157   0.78648   0.00000  Uiso   1.00
H757   H     0.24132   0.62711   0.70877   0.00000  Uiso   1.00
H758   H     0.03979   0.40272   0.95052   0.00000  Uiso   1.00
H759   H     0.09149   0.62991   0.78765   0.00000  Uiso   1.00
H760   H     0.03034   0.54721   0.80549   0.00000  Uiso   1.00
H761   H     0.05563   0.45102   0.69668   0.00000  Uiso   1.00
H762   H     0.30387   0.45302   0.69409   0.00000  Uiso   1.00
H763   H     0.27069   0.43808   0.92673   0.00000  Uiso   1.00
H764   H     0.29987   0.46975   0.99683   0.00000  Uiso   1.00
H765   H     0.09079   0.52056   0.54025   0.00000  Uiso   1.00
H766   H     0.02967   0.50733   0.99460   0.00000  Uiso   1.00
N767   N     0.04931   0.49999   0.74998   0.00000  Uiso   1.00
N768   N     0.28402   0.50002   0.74999   0.00000  Uiso   1.00
O769   O     0.12708   0.56011   0.75000   0.00000  Uiso   1.00
O770   O     0.05976   0.43416   0.85348   0.00000  Uiso   1.00
O771   O     0.01246   0.41912   0.94517   0.00000  Uiso   1.00
O772   O     0.20627   0.56012   0.75000   0.00000  Uiso   1.00
O773   O     0.10775   0.49998   0.82549   0.00000  Uiso   1.00
O774   O     0.18694   0.49999   0.82549   0.00000  Uiso   1.00
O775   O     0.12706   0.43988   0.74999   0.00000  Uiso   1.00
O776   O     0.20625   0.43989   0.74999   0.00000  Uiso   1.00
O777   O     0.14640   0.50001   0.67451   0.00000  Uiso   1.00
O778   O     0.22559   0.50002   0.67451   0.00000  Uiso   1.00
O779   O     0.00063   0.48606   0.89484   0.00000  Uiso   1.00
S780   S     0.03734   0.45572   0.90302   0.00000  Uiso   1.00
C781   C     0.49990   0.57911   0.75007   0.00000  Uiso   1.00
C782   C     0.46103   0.48163   0.90238   0.00000  Uiso   1.00
C783   C     0.54233   0.64424   0.72632   0.00000  Uiso   1.00
C784   C     0.47523   0.49297   0.84799   0.00000  Uiso   1.00
C785   C     0.54302   0.35357   0.72438   0.00000  Uiso   1.00
C786   C     0.50098   0.37598   0.74710   0.00000  Uiso   1.00
C787   C     0.45844   0.35500   0.76924   0.00000  Uiso   1.00
C788   C     0.45788   0.64566   0.77002   0.00000  Uiso   1.00
C789   C     0.50000   0.62364   0.74913   0.00000  Uiso   1.00
C790   C     0.63489   0.52605   0.78133   0.00000  Uiso   1.00
C791   C     0.35093   0.52622   0.78073   0.00000  Uiso   1.00
C792   C     0.48059   0.48831   0.98410   0.00000  Uiso   1.00
C793   C     0.36515   0.47323   0.71999   0.00000  Uiso   1.00
C794   C     0.64937   0.47377   0.71929   0.00000  Uiso   1.00
C795   C     0.50048   0.42078   0.74846   0.00000  Uiso   1.00
C796   C     0.52501   0.49814   0.65043   0.00000  Uiso   1.00
C797   C     0.59685   0.47630   0.51588   0.00000  Uiso   1.00
C798   C     0.53782   0.49231   0.59433   0.00000  Uiso   1.00
C799   C     0.41264   0.48289   0.92773   0.00000  Uiso   1.00
C800   C     0.39962   0.49934   0.97690   0.00000  Uiso   1.00
C801   C     0.43444   0.50527   0.50354   0.00000  Uiso   1.00
C802   C     0.49412   0.47609   0.93190   0.00000  Uiso   1.00
C803   C     0.51401   0.48414   0.51417   0.00000  Uiso   1.00
C804   C     0.56127   0.47278   0.98989   0.00000  Uiso   1.00
C805   C     0.57147   0.45511   0.94132   0.00000  Uiso   1.00
C806   C     0.53803   0.45549   0.91275   0.00000  Uiso   1.00
C807   C     0.50148   0.48626   0.56796   0.00000  Uiso   1.00
C808   C     0.58630   0.48915   0.56636   0.00000  Uiso   1.00
Cl809  Cl    0.63596   0.49657   0.59240   0.00000  Uiso   1.00
Cl810  Cl    0.59645   0.37667   0.68987   0.00000  Uiso   1.00
Cl811  Cl    0.59716   0.55987   0.82416   0.00000  Uiso   1.00
Cl812  Cl    0.44525   0.46528   0.60009   0.00000  Uiso   1.00
Cl813  Cl    0.54936   0.42267   0.85889   0.00000  Uiso   1.00
Cu814  Cu    0.45311   0.49999   0.75000   0.00000  Uiso   1.00
Cu815  Cu    0.54689   0.50001   0.75000   0.00000  Uiso   1.00
H816   H     0.42569   0.37157   0.78648   0.00000  Uiso   1.00
H817   H     0.57465   0.62711   0.70877   0.00000  Uiso   1.00
H818   H     0.37312   0.40272   0.95052   0.00000  Uiso   1.00
H819   H     0.42482   0.62991   0.78765   0.00000  Uiso   1.00
H820   H     0.36367   0.54721   0.80549   0.00000  Uiso   1.00
H821   H     0.38897   0.45102   0.69668   0.00000  Uiso   1.00
H822   H     0.63720   0.45302   0.69409   0.00000  Uiso   1.00
H823   H     0.60402   0.43808   0.92673   0.00000  Uiso   1.00
H824   H     0.63320   0.46975   0.99683   0.00000  Uiso   1.00
H825   H     0.42412   0.52056   0.54025   0.00000  Uiso   1.00
H826   H     0.36301   0.50733   0.99460   0.00000  Uiso   1.00
N827   N     0.38265   0.49999   0.74998   0.00000  Uiso   1.00
N828   N     0.61735   0.50002   0.74999   0.00000  Uiso   1.00
O829   O     0.46042   0.56011   0.75000   0.00000  Uiso   1.00
O830   O     0.39310   0.43416   0.85348   0.00000  Uiso   1.00
O831   O     0.34580   0.41912   0.94517   0.00000  Uiso   1.00
O832   O     0.53961   0.56012   0.75000   0.00000  Uiso   1.00
O833   O     0.44108   0.49998   0.82549   0.00000  Uiso   1.00
O834   O     0.52027   0.49999   0.82549   0.00000  Uiso   1.00
O835   O     0.46039   0.43988   0.74999   0.00000  Uiso   1.00
O836   O     0.53958   0.43989   0.74999   0.00000  Uiso   1.00
O837   O     0.47973   0.50001   0.67451   0.00000  Uiso   1.00
O838   O     0.55892   0.50002   0.67451   0.00000  Uiso   1.00
O839   O     0.33396   0.48606   0.89484   0.00000  Uiso   1.00
S840   S     0.37068   0.45572   0.90302   0.00000  Uiso   1.00
C841   C     0.83323   0.57911   0.75007   0.00000  Uiso   1.00
C842   C     0.79436   0.48163   0.90238   0.00000  Uiso   1.00
C843   C     0.87567   0.64424   0.72632   0.00000  Uiso   1.00
C844   C     0.80857   0.49297   0.84799   0.00000  Uiso   1.00
C845   C     0.87636   0.35357   0.72438   0.00000  Uiso   1.00
C846   C     0.83432   0.37598   0.74710   0.00000  Uiso   1.00
C847   C     0.79177   0.35500   0.76924   0.00000  Uiso   1.00
C848   C     0.79121   0.64566   0.77002   0.00000  Uiso   1.00
C849   C     0.83333   0.62364   0.74913   0.00000  Uiso   1.00
C850   C     0.96822   0.52605   0.78133   0.00000  Uiso   1.00
C851   C     0.68426   0.52622   0.78073   0.00000  Uiso   1.00
C852   C     0.81392   0.48831   0.98410   0.00000  Uiso   1.00
C853   C     0.69849   0.47323   0.71999   0.00000  Uiso   1.00
C854   C     0.98271   0.47377   0.71929   0.00000  Uiso   1.00
C855   C     0.83381   0.42078   0.74846   0.00000  Uiso   1.00
C856   C     0.85834   0.49814   0.65043   0.00000  Uiso   1.00
C857   C     0.93019   0.47630   0.51588   0.00000  Uiso   1.00
C858   C     0.87115   0.49231   0.59433   0.00000  Uiso   1.00
C859   C     0.74598   0.48289   0.92773   0.00000  Uiso   1.00
C860   C     0.73295   0.49934   0.97690   0.00000  Uiso   1.00
C861   C     0.76777   0.50527   0.50354   0.00000  Uiso   1.00
C862   C     0.82746   0.47609   0.93190   0.00000  Uiso   1.00
C863   C     0.84734   0.48414   0.51417   0.00000  Uiso   1.00
C864   C     0.89461   0.47278   0.98989   0.00000  Uiso   1.00
C865   C     0.90480   0.45511   0.94132   0.00000  Uiso   1.00
C866   C     0.87137   0.45549   0.91275   0.00000  Uiso   1.00
C867   C     0.83481   0.48626   0.56796   0.00000  Uiso   1.00
C868   C     0.91964   0.48915   0.56636   0.00000  Uiso   1.00
Cl869  Cl    0.96929   0.49657   0.59240   0.00000  Uiso   1.00
Cl870  Cl    0.92979   0.37667   0.68987   0.00000  Uiso   1.00
Cl871  Cl    0.93049   0.55987   0.82416   0.00000  Uiso   1.00
Cl872  Cl    0.77859   0.46528   0.60009   0.00000  Uiso   1.00
Cl873  Cl    0.88269   0.42267   0.85889   0.00000  Uiso   1.00
Cu874  Cu    0.78645   0.49999   0.75000   0.00000  Uiso   1.00
Cu875  Cu    0.88022   0.50001   0.75000   0.00000  Uiso   1.00
H876   H     0.75902   0.37157   0.78648   0.00000  Uiso   1.00
H877   H     0.90798   0.62711   0.70877   0.00000  Uiso   1.00
H878   H     0.70646   0.40272   0.95052   0.00000  Uiso   1.00
H879   H     0.75816   0.62991   0.78765   0.00000  Uiso   1.00
H880   H     0.69701   0.54721   0.80549   0.00000  Uiso   1.00
H881   H     0.72230   0.45102   0.69668   0.00000  Uiso   1.00
H882   H     0.97054   0.45302   0.69409   0.00000  Uiso   1.00
H883   H     0.93736   0.43808   0.92673   0.00000  Uiso   1.00
H884   H     0.96654   0.46975   0.99683   0.00000  Uiso   1.00
H885   H     0.75745   0.52056   0.54025   0.00000  Uiso   1.00
H886   H     0.69634   0.50733   0.99460   0.00000  Uiso   1.00
N887   N     0.71598   0.49999   0.74998   0.00000  Uiso   1.00
N888   N     0.95069   0.50002   0.74999   0.00000  Uiso   1.00
O889   O     0.79375   0.56011   0.75000   0.00000  Uiso   1.00
O890   O     0.72643   0.43416   0.85348   0.00000  Uiso   1.00
O891   O     0.67913   0.41912   0.94517   0.00000  Uiso   1.00
O892   O     0.87294   0.56012   0.75000   0.00000  Uiso   1.00
O893   O     0.77441   0.49998   0.82549   0.00000  Uiso   1.00
O894   O     0.85360   0.49999   0.82549   0.00000  Uiso   1.00
O895   O     0.79373   0.43988   0.74999   0.00000  Uiso   1.00
O896   O     0.87292   0.43989   0.74999   0.00000  Uiso   1.00
O897   O     0.81306   0.50001   0.67451   0.00000  Uiso   1.00
O898   O     0.89225   0.50002   0.67451   0.00000  Uiso   1.00
O899   O     0.66730   0.48606   0.89484   0.00000  Uiso   1.00
S900   S     0.70401   0.45572   0.90302   0.00000  Uiso   1.00
C901   C     0.16656   0.91245   0.75007   0.00000  Uiso   1.00
C902   C     0.12769   0.81497   0.90238   0.00000  Uiso   1.00
C903   C     0.20900   0.97757   0.72632   0.00000  Uiso   1.00
C904   C     0.14190   0.82630   0.84799   0.00000  Uiso   1.00
C905   C     0.20969   0.68690   0.72438   0.00000  Uiso   1.00
C906   C     0.16765   0.70931   0.74710   0.00000  Uiso   1.00
C907   C     0.12511   0.68834   0.76924   0.00000  Uiso   1.00
C908   C     0.12454   0.97899   0.77002   0.00000  Uiso   1.00
C909   C     0.16667   0.95697   0.74913   0.00000  Uiso   1.00
C910   C     0.30156   0.85938   0.78133   0.00000  Uiso   1.00
C911   C     0.01760   0.85956   0.78073   0.00000  Uiso   1.00
C912   C     0.14726   0.82164   0.98410   0.00000  Uiso   1.00
C913   C     0.03182   0.80656   0.71999   0.00000  Uiso   1.00
C914   C     0.31604   0.80710   0.71929   0.00000  Uiso   1.00
C915   C     0.16714   0.75412   0.74846   0.00000  Uiso   1.00
C916   C     0.19168   0.83147   0.65043   0.00000  Uiso   1.00
C917   C     0.26352   0.80963   0.51588   0.00000  Uiso   1.00
C918   C     0.20448   0.82564   0.59433   0.00000  Uiso   1.00
C919   C     0.07931   0.81622   0.92773   0.00000  Uiso   1.00
C920   C     0.06628   0.83268   0.97690   0.00000  Uiso   1.00
C921   C     0.10110   0.83861   0.50354   0.00000  Uiso   1.00
C922   C     0.16079   0.80942   0.93190   0.00000  Uiso   1.00
C923   C     0.18068   0.81748   0.51417   0.00000  Uiso   1.00
C924   C     0.22794   0.80611   0.98989   0.00000  Uiso   1.00
C925   C     0.23813   0.78845   0.94132   0.00000  Uiso   1.00
C926   C     0.20470   0.78883   0.91275   0.00000  Uiso   1.00
C927   C     0.16815   0.81960   0.56796   0.00000  Uiso   1.00
C928   C     0.25297   0.82248   0.56636   0.00000  Uiso   1.00
Cl929  Cl    0.30262   0.82990   0.59240   0.00000  Uiso   1.00
Cl930  Cl    0.26312   0.71000   0.68987   0.00000  Uiso   1.00
Cl931  Cl    0.26382   0.89321   0.82416   0.00000  Uiso   1.00
Cl932  Cl    0.11192   0.79861   0.60009   0.00000  Uiso   1.00
Cl933  Cl    0.21602   0.75600   0.85889   0.00000  Uiso   1.00
Cu934  Cu    0.11978   0.83333   0.75000   0.00000  Uiso   1.00
Cu935  Cu    0.21355   0.83334   0.75000   0.00000  Uiso   1.00
H936   H     0.09235   0.70490   0.78648   0.00000  Uiso   1.00
H937   H     0.24132   0.96044   0.70877   0.00000  Uiso   1.00
H938   H     0.03979   0.73606   0.95052   0.00000  Uiso   1.00
H939   H     0.09149   0.96325   0.78765   0.00000  Uiso   1.00
H940   H     0.03034   0.88054   0.80549   0.00000  Uiso   1.00
H941   H     0.05563   0.78435   0.69668   0.00000  Uiso   1.00
H942   H     0.30387   0.78635   0.69409   0.00000  Uiso   1.00
H943   H     0.27069   0.77141   0.92673   0.00000  Uiso   1.00
H944   H     0.29987   0.80309   0.99683   0.00000  Uiso   1.00
H945   H     0.09079   0.85390   0.54025   0.00000  Uiso   1.00
H946   H     0.02967   0.84067   0.99460   0.00000  Uiso   1.00
N947   N     0.04931   0.83332   0.74998   0.00000  Uiso   1.00
N948   N     0.28402   0.83335   0.74999   0.00000  Uiso   1.00
O949   O     0.12708   0.89345   0.75000   0.00000  Uiso   1.00
O950   O     0.05976   0.76749   0.85348   0.00000  Uiso   1.00
O951   O     0.01246   0.75245   0.94517   0.00000  Uiso   1.00
O952   O     0.20627   0.89346   0.75000   0.00000  Uiso   1.00
O953   O     0.10775   0.83332   0.82549   0.00000  Uiso   1.00
O954   O     0.18694   0.83333   0.82549   0.00000  Uiso   1.00
O955   O     0.12706   0.77321   0.74999   0.00000  Uiso   1.00
O956   O     0.20625   0.77322   0.74999   0.00000  Uiso   1.00
O957   O     0.14640   0.83334   0.67451   0.00000  Uiso   1.00
O958   O     0.22559   0.83335   0.67451   0.00000  Uiso   1.00
O959   O     0.00063   0.81939   0.89484   0.00000  Uiso   1.00
S960   S     0.03734   0.78906   0.90302   0.00000  Uiso   1.00
C961   C     0.49990   0.91245   0.75007   0.00000  Uiso   1.00
C962   C     0.46103   0.81497   0.90238   0.00000  Uiso   1.00
C963   C     0.54233   0.97757   0.72632   0.00000  Uiso   1.00
C964   C     0.47523   0.82630   0.84799   0.00000  Uiso   1.00
C965   C     0.54302   0.68690   0.72438   0.00000  Uiso   1.00
C966   C     0.50098   0.70931   0.74710   0.00000  Uiso   1.00
C967   C     0.45844   0.68834   0.76924   0.00000  Uiso   1.00
C968   C     0.45788   0.97899   0.77002   0.00000  Uiso   1.00
C969   C     0.50000   0.95697   0.74913   0.00000  Uiso   1.00
C970   C     0.63489   0.85938   0.78133   0.00000  Uiso   1.00
C971   C     0.35093   0.85956   0.78073   0.00000  Uiso   1.00
C972   C     0.48059   0.82164   0.98410   0.00000  Uiso   1.00
C973   C     0.36515   0.80656   0.71999   0.00000  Uiso   1.00
C974   C     0.64937   0.80710   0.71929   0.00000  Uiso   1.00
C975   C     0.50048   0.75412   0.74846   0.00000  Uiso   1.00
C976   C     0.52501   0.83147   0.65043   0.00000  Uiso   1.00
C977   C     0.59685   0.80963   0.51588   0.00000  Uiso   1.00
C978   C     0.53782   0.82564   0.59433   0.00000  Uiso   1.00
C979   C     0.41264   0.81622   0.92773   0.00000  Uiso   1.00
C980   C     0.39962   0.83268   0.97690   0.00000  Uiso   1.00
C981   C     0.43444   0.83861   0.50354   0.00000  Uiso   1.00
C982   C     0.49412   0.80942   0.93190   0.00000  Uiso   1.00
C983   C     0.51401   0.81748   0.51417   0.00000  Uiso   1.00
C984   C     0.56127   0.80611   0.98989   0.00000  Uiso   1.00
C985   C     0.57147   0.78845   0.94132   0.00000  Uiso   1.00
C986   C     0.53803   0.78883   0.91275   0.00000  Uiso   1.00
C987   C     0.50148   0.81960   0.56796   0.00000  Uiso   1.00
C988   C     0.58630   0.82248   0.56636   0.00000  Uiso   1.00
Cl989  Cl    0.63596   0.82990   0.59240   0.00000  Uiso   1.00
Cl990  Cl    0.59645   0.71000   0.68987   0.00000  Uiso   1.00
Cl991  Cl    0.59716   0.89321   0.82416   0.00000  Uiso   1.00
Cl992  Cl    0.44525   0.79861   0.60009   0.00000  Uiso   1.00
Cl993  Cl    0.54936   0.75600   0.85889   0.00000  Uiso   1.00
Cu994  Cu    0.45311   0.83333   0.75000   0.00000  Uiso   1.00
Cu995  Cu    0.54689   0.83334   0.75000   0.00000  Uiso   1.00
H996   H     0.42569   0.70490   0.78648   0.00000  Uiso   1.00
H997   H     0.57465   0.96044   0.70877   0.00000  Uiso   1.00
H998   H     0.37312   0.73606   0.95052   0.00000  Uiso   1.00
H999   H     0.42482   0.96325   0.78765   0.00000  Uiso   1.00
H1000  H     0.36367   0.88054   0.80549   0.00000  Uiso   1.00
H1001  H     0.38897   0.78435   0.69668   0.00000  Uiso   1.00
H1002  H     0.63720   0.78635   0.69409   0.00000  Uiso   1.00
H1003  H     0.60402   0.77141   0.92673   0.00000  Uiso   1.00
H1004  H     0.63320   0.80309   0.99683   0.00000  Uiso   1.00
H1005  H     0.42412   0.85390   0.54025   0.00000  Uiso   1.00
H1006  H     0.36301   0.84067   0.99460   0.00000  Uiso   1.00
N1007  N     0.38265   0.83332   0.74998   0.00000  Uiso   1.00
N1008  N     0.61735   0.83335   0.74999   0.00000  Uiso   1.00
O1009  O     0.46042   0.89345   0.75000   0.00000  Uiso   1.00
O1010  O     0.39310   0.76749   0.85348   0.00000  Uiso   1.00
O1011  O     0.34580   0.75245   0.94517   0.00000  Uiso   1.00
O1012  O     0.53961   0.89346   0.75000   0.00000  Uiso   1.00
O1013  O     0.44108   0.83332   0.82549   0.00000  Uiso   1.00
O1014  O     0.52027   0.83333   0.82549   0.00000  Uiso   1.00
O1015  O     0.46039   0.77321   0.74999   0.00000  Uiso   1.00
O1016  O     0.53958   0.77322   0.74999   0.00000  Uiso   1.00
O1017  O     0.47973   0.83334   0.67451   0.00000  Uiso   1.00
O1018  O     0.55892   0.83335   0.67451   0.00000  Uiso   1.00
O1019  O     0.33396   0.81939   0.89484   0.00000  Uiso   1.00
S1020  S     0.37068   0.78906   0.90302   0.00000  Uiso   1.00
C1021  C     0.83323   0.91245   0.75007   0.00000  Uiso   1.00
C1022  C     0.79436   0.81497   0.90238   0.00000  Uiso   1.00
C1023  C     0.87567   0.97757   0.72632   0.00000  Uiso   1.00
C1024  C     0.80857   0.82630   0.84799   0.00000  Uiso   1.00
C1025  C     0.87636   0.68690   0.72438   0.00000  Uiso   1.00
C1026  C     0.83432   0.70931   0.74710   0.00000  Uiso   1.00
C1027  C     0.79177   0.68834   0.76924   0.00000  Uiso   1.00
C1028  C     0.79121   0.97899   0.77002   0.00000  Uiso   1.00
C1029  C     0.83333   0.95697   0.74913   0.00000  Uiso   1.00
C1030  C     0.96822   0.85938   0.78133   0.00000  Uiso   1.00
C1031  C     0.68426   0.85956   0.78073   0.00000  Uiso   1.00
C1032  C     0.81392   0.82164   0.98410   0.00000  Uiso   1.00
C1033  C     0.69849   0.80656   0.71999   0.00000  Uiso   1.00
C1034  C     0.98271   0.80710   0.71929   0.00000  Uiso   1.00
C1035  C     0.83381   0.75412   0.74846   0.00000  Uiso   1.00
C1036  C     0.85834   0.83147   0.65043   0.00000  Uiso   1.00
C1037  C     0.93019   0.80963   0.51588   0.00000  Uiso   1.00
C1038  C     0.87115   0.82564   0.59433   0.00000  Uiso   1.00
C1039  C     0.74598   0.81622   0.92773   0.00000  Uiso   1.00
C1040  C     0.73295   0.83268   0.97690   0.00000  Uiso   1.00
C1041  C     0.76777   0.83861   0.50354   0.00000  Uiso   1.00
C1042  C     0.82746   0.80942   0.93190   0.00000  Uiso   1.00
C1043  C     0.84734   0.81748   0.51417   0.00000  Uiso   1.00
C1044  C     0.89461   0.80611   0.98989   0.00000  Uiso   1.00
C1045  C     0.90480   0.78845   0.94132   0.00000  Uiso   1.00
C1046  C     0.87137   0.78883   0.91275   0.00000  Uiso   1.00
C1047  C     0.83481   0.81960   0.56796   0.00000  Uiso   1.00
C1048  C     0.91964   0.82248   0.56636   0.00000  Uiso   1.00
Cl1049 Cl    0.96929   0.82990   0.59240   0.00000  Uiso   1.00
Cl1050 Cl    0.92979   0.71000   0.68987   0.00000  Uiso   1.00
Cl1051 Cl    0.93049   0.89321   0.82416   0.00000  Uiso   1.00
Cl1052 Cl    0.77859   0.79861   0.60009   0.00000  Uiso   1.00
Cl1053 Cl    0.88269   0.75600   0.85889   0.00000  Uiso   1.00
Cu1054 Cu    0.78645   0.83333   0.75000   0.00000  Uiso   1.00
Cu1055 Cu    0.88022   0.83334   0.75000   0.00000  Uiso   1.00
H1056  H     0.75902   0.70490   0.78648   0.00000  Uiso   1.00
H1057  H     0.90798   0.96044   0.70877   0.00000  Uiso   1.00
H1058  H     0.70646   0.73606   0.95052   0.00000  Uiso   1.00
H1059  H     0.75816   0.96325   0.78765   0.00000  Uiso   1.00
H1060  H     0.69701   0.88054   0.80549   0.00000  Uiso   1.00
H1061  H     0.72230   0.78435   0.69668   0.00000  Uiso   1.00
H1062  H     0.97054   0.78635   0.69409   0.00000  Uiso   1.00
H1063  H     0.93736   0.77141   0.92673   0.00000  Uiso   1.00
H1064  H     0.96654   0.80309   0.99683   0.00000  Uiso   1.00
H1065  H     0.75745   0.85390   0.54025   0.00000  Uiso   1.00
H1066  H     0.69634   0.84067   0.99460   0.00000  Uiso   1.00
N1067  N     0.71598   0.83332   0.74998   0.00000  Uiso   1.00
N1068  N     0.95069   0.83335   0.74999   0.00000  Uiso   1.00
O1069  O     0.79375   0.89345   0.75000   0.00000  Uiso   1.00
O1070  O     0.72643   0.76749   0.85348   0.00000  Uiso   1.00
O1071  O     0.67913   0.75245   0.94517   0.00000  Uiso   1.00
O1072  O     0.87294   0.89346   0.75000   0.00000  Uiso   1.00
O1073  O     0.77441   0.83332   0.82549   0.00000  Uiso   1.00
O1074  O     0.85360   0.83333   0.82549   0.00000  Uiso   1.00
O1075  O     0.79373   0.77321   0.74999   0.00000  Uiso   1.00
O1076  O     0.87292   0.77322   0.74999   0.00000  Uiso   1.00
O1077  O     0.81306   0.83334   0.67451   0.00000  Uiso   1.00
O1078  O     0.89225   0.83335   0.67451   0.00000  Uiso   1.00
O1079  O     0.66730   0.81939   0.89484   0.00000  Uiso   1.00
S1080  S     0.70401   0.78906   0.90302   0.00000  Uiso   1.00
loop_
_geom_bond_atom_site_label_1
_geom_bond_atom_site_label_2
_geom_bond_distance
_geom_bond_site_symmetry_2
_ccdc_geom_bond_type
C1     C9      1.445   .     S
C1     O52     1.299   .     A
C1     O49     1.298   .     A
C2     C22     1.403   .     A
C2     C4      1.473   .     S
C2     C19     1.392   .     A
C3     C9      1.396   .     A
C3     H37     1.084   .     S
C3     C185    1.385   .     S
C4     O53     1.303   .     A
C4     O54     1.310   .     A
C5     C6      1.412   .     A
C5     Cl30    1.760   .     S
C5     C363    1.385   1_545 S
C6     C7      1.403   .     A
C6     C15     1.454   .     S
C7     H36     1.083   .     S
C7     C368    1.385   1_545 S
C8     H39     1.084   .     S
C8     C9      1.397   .     A
C8     C187    1.385   .     S
C10    Cl31    1.755   .     S
C10    N48     1.380   .     A
C10    C71     1.422   .     S
C11    N47     1.364   .     A
C11    H40     1.082   .     S
C11    C130    1.422   1_455 S
C12    C22     1.422   .     A
C12    C561    1.412   .     S
C12    C563    1.417   .     S
C13    H41     1.079   .     S
C13    N47     1.369   .     A
C13    C134    1.423   1_455 S
C14    H42     1.078   .     S
C14    N48     1.368   .     A
C14    C73     1.423   .     S
C15    O56     1.300   .     A
C15    O55     1.302   .     A
C16    O58     1.308   .     A
C16    O57     1.306   .     A
C16    C18     1.480   .     S
C17    C28     1.385   .     A
C17    C564    1.389   1_554 S
C17    H584    1.066   1_554 S
C18    C28     1.416   .     A
C18    C27     1.424   .     A
C19    S60     1.762   .     S
C19    C20     1.392   .     A
C20    H46     1.075   .     S
C20    C561    1.391   .     S
C21    H45     1.081   .     S
C21    C552    1.412   1_554 S
C21    C560    1.391   1_554 S
C22    C26     1.408   .     A
C23    C27     1.410   .     A
C23    C552    1.417   1_554 S
C23    C564    1.404   1_554 S
C24    C25     1.393   .     A
C24    C557    1.389   .     S
C24    C563    1.404   .     S
C25    H43     1.073   .     S
C25    C26     1.381   .     A
C26    Cl33    1.764   .     S
C27    Cl32    1.776   .     S
C28    Cl29    1.767   .     S
Cu34   O57     1.992   .     S
Cu34   Cu35    2.708   .     S
Cu34   N47     2.035   .     S
Cu34   O55     1.961   .     S
Cu34   O53     1.984   .     S
Cu34   O49     1.962   .     S
Cu35   O54     1.992   .     S
Cu35   O58     1.984   .     S
Cu35   N48     2.035   .     S
Cu35   O56     1.962   .     S
Cu35   O52     1.961   .     S
H38    O51     0.991   .     S
H44    C557    1.066   .     S
O50    S60     1.502   .     D
O51    S60     1.682   .     S
O59    S60     1.501   .     D
C61    C69     1.445   .     S
C61    O112    1.299   .     A
C61    O109    1.298   .     A
C62    C82     1.403   .     A
C62    C64     1.473   .     S
C62    C79     1.392   .     A
C63    C69     1.396   .     A
C63    H97     1.084   .     S
C63    C245    1.385   .     S
C64    O113    1.303   .     A
C64    O114    1.310   .     A
C65    C66     1.412   .     A
C65    Cl90    1.760   .     S
C65    C423    1.385   1_545 S
C66    C67     1.403   .     A
C66    C75     1.454   .     S
C67    H96     1.083   .     S
C67    C428    1.385   1_545 S
C68    H99     1.084   .     S
C68    C69     1.397   .     A
C68    C247    1.385   .     S
C70    Cl91    1.755   .     S
C70    N108    1.380   .     A
C70    C131    1.422   .     S
C71    N107    1.364   .     A
C71    H100    1.082   .     S
C72    C82     1.422   .     A
C72    C621    1.412   .     S
C72    C623    1.417   .     S
C73    H101    1.079   .     S
C73    N107    1.369   .     A
C74    H102    1.078   .     S
C74    N108    1.368   .     A
C74    C133    1.423   .     S
C75    O116    1.300   .     A
C75    O115    1.302   .     A
C76    O118    1.308   .     A
C76    O117    1.306   .     A
C76    C78     1.480   .     S
C77    C88     1.385   .     A
C77    C624    1.389   1_554 S
C77    H644    1.066   1_554 S
C78    C88     1.416   .     A
C78    C87     1.424   .     A
C79    S120    1.762   .     S
C79    C80     1.392   .     A
C80    H106    1.075   .     S
C80    C621    1.391   .     S
C81    H105    1.081   .     S
C81    C612    1.412   1_554 S
C81    C620    1.391   1_554 S
C82    C86     1.408   .     A
C83    C87     1.410   .     A
C83    C612    1.417   1_554 S
C83    C624    1.404   1_554 S
C84    C85     1.393   .     A
C84    C617    1.389   .     S
C84    C623    1.404   .     S
C85    H103    1.073   .     S
C85    C86     1.381   .     A
C86    Cl93    1.764   .     S
C87    Cl92    1.776   .     S
C88    Cl89    1.767   .     S
Cu94   O117    1.992   .     S
Cu94   Cu95    2.708   .     S
Cu94   N107    2.035   .     S
Cu94   O115    1.961   .     S
Cu94   O113    1.984   .     S
Cu94   O109    1.962   .     S
Cu95   O114    1.992   .     S
Cu95   O118    1.984   .     S
Cu95   N108    2.035   .     S
Cu95   O116    1.962   .     S
Cu95   O112    1.961   .     S
H98    O111    0.991   .     S
H104   C617    1.066   .     S
O110   S120    1.502   .     D
O111   S120    1.682   .     S
O119   S120    1.501   .     D
C121   C129    1.445   .     S
C121   O172    1.299   .     A
C121   O169    1.298   .     A
C122   C142    1.403   .     A
C122   C124    1.473   .     S
C122   C139    1.392   .     A
C123   C129    1.396   .     A
C123   H157    1.084   .     S
C123   C305    1.385   .     S
C124   O173    1.303   .     A
C124   O174    1.310   .     A
C125   C126    1.412   .     A
C125   Cl150   1.760   .     S
C125   C483    1.385   1_545 S
C126   C127    1.403   .     A
C126   C135    1.454   .     S
C127   H156    1.083   .     S
C127   C488    1.385   1_545 S
C128   H159    1.084   .     S
C128   C129    1.397   .     A
C128   C307    1.385   .     S
C130   Cl151   1.755   .     S
C130   N168    1.380   .     A
C130   C11     1.422   1_655 S
C131   N167    1.364   .     A
C131   H160    1.082   .     S
C132   C142    1.422   .     A
C132   C681    1.412   .     S
C132   C683    1.417   .     S
C133   H161    1.079   .     S
C133   N167    1.369   .     A
C134   H162    1.078   .     S
C134   N168    1.368   .     A
C134   C13     1.423   1_655 S
C135   O176    1.300   .     A
C135   O175    1.302   .     A
C136   O178    1.308   .     A
C136   O177    1.306   .     A
C136   C138    1.480   .     S
C137   C148    1.385   .     A
C137   C684    1.389   1_554 S
C137   H704    1.066   1_554 S
C138   C148    1.416   .     A
C138   C147    1.424   .     A
C139   S180    1.762   .     S
C139   C140    1.392   .     A
C140   H166    1.075   .     S
C140   C681    1.391   .     S
C141   H165    1.081   .     S
C141   C672    1.412   1_554 S
C141   C680    1.391   1_554 S
C142   C146    1.408   .     A
C143   C147    1.410   .     A
C143   C672    1.417   1_554 S
C143   C684    1.404   1_554 S
C144   C145    1.393   .     A
C144   C677    1.389   .     S
C144   C683    1.404   .     S
C145   H163    1.073   .     S
C145   C146    1.381   .     A
C146   Cl153   1.764   .     S
C147   Cl152   1.776   .     S
C148   Cl149   1.767   .     S
Cu154  O177    1.992   .     S
Cu154  Cu155   2.708   .     S
Cu154  N167    2.035   .     S
Cu154  O175    1.961   .     S
Cu154  O173    1.984   .     S
Cu154  O169    1.962   .     S
Cu155  O174    1.992   .     S
Cu155  O178    1.984   .     S
Cu155  N168    2.035   .     S
Cu155  O176    1.962   .     S
Cu155  O172    1.961   .     S
H158   O171    0.991   .     S
H164   C677    1.066   .     S
O170   S180    1.502   .     D
O171   S180    1.682   .     S
O179   S180    1.501   .     D
C181   C189    1.445   .     S
C181   O232    1.299   .     A
C181   O229    1.298   .     A
C182   C202    1.403   .     A
C182   C184    1.473   .     S
C182   C199    1.392   .     A
C183   C189    1.396   .     A
C183   H217    1.084   .     S
C183   C365    1.385   .     S
C184   O233    1.303   .     A
C184   O234    1.310   .     A
C185   C186    1.412   .     A
C185   Cl210   1.760   .     S
C186   C187    1.403   .     A
C186   C195    1.454   .     S
C187   H216    1.083   .     S
C188   H219    1.084   .     S
C188   C189    1.397   .     A
C188   C367    1.385   .     S
C190   Cl211   1.755   .     S
C190   N228    1.380   .     A
C190   C251    1.422   .     S
C191   N227    1.364   .     A
C191   H220    1.082   .     S
C191   C310    1.422   1_455 S
C192   C202    1.422   .     A
C192   C741    1.412   .     S
C192   C743    1.417   .     S
C193   H221    1.079   .     S
C193   N227    1.369   .     A
C193   C314    1.423   1_455 S
C194   H222    1.078   .     S
C194   N228    1.368   .     A
C194   C253    1.423   .     S
C195   O236    1.300   .     A
C195   O235    1.302   .     A
C196   O238    1.308   .     A
C196   O237    1.306   .     A
C196   C198    1.480   .     S
C197   C208    1.385   .     A
C197   C744    1.389   1_554 S
C197   H764    1.066   1_554 S
C198   C208    1.416   .     A
C198   C207    1.424   .     A
C199   S240    1.762   .     S
C199   C200    1.392   .     A
C200   H226    1.075   .     S
C200   C741    1.391   .     S
C201   H225    1.081   .     S
C201   C732    1.412   1_554 S
C201   C740    1.391   1_554 S
C202   C206    1.408   .     A
C203   C207    1.410   .     A
C203   C732    1.417   1_554 S
C203   C744    1.404   1_554 S
C204   C205    1.393   .     A
C204   C737    1.389   .     S
C204   C743    1.404   .     S
C205   H223    1.073   .     S
C205   C206    1.381   .     A
C206   Cl213   1.764   .     S
C207   Cl212   1.776   .     S
C208   Cl209   1.767   .     S
Cu214  O237    1.992   .     S
Cu214  Cu215   2.708   .     S
Cu214  N227    2.035   .     S
Cu214  O235    1.961   .     S
Cu214  O233    1.984   .     S
Cu214  O229    1.962   .     S
Cu215  O234    1.992   .     S
Cu215  O238    1.984   .     S
Cu215  N228    2.035   .     S
Cu215  O236    1.962   .     S
Cu215  O232    1.961   .     S
H218   O231    0.991   .     S
H224   C737    1.066   .     S
O230   S240    1.502   .     D
O231   S240    1.682   .     S
O239   S240    1.501   .     D
C241   C249    1.445   .     S
C241   O292    1.299   .     A
C241   O289    1.298   .     A
C242   C262    1.403   .     A
C242   C244    1.473   .     S
C242   C259    1.392   .     A
C243   C249    1.396   .     A
C243   H277    1.084   .     S
C243   C425    1.385   .     S
C244   O293    1.303   .     A
C244   O294    1.310   .     A
C245   C246    1.412   .     A
C245   Cl270   1.760   .     S
C246   C247    1.403   .     A
C246   C255    1.454   .     S
C247   H276    1.083   .     S
C248   H279    1.084   .     S
C248   C249    1.397   .     A
C248   C427    1.385   .     S
C250   Cl271   1.755   .     S
C250   N288    1.380   .     A
C250   C311    1.422   .     S
C251   N287    1.364   .     A
C251   H280    1.082   .     S
C252   C262    1.422   .     A
C252   C801    1.412   .     S
C252   C803    1.417   .     S
C253   H281    1.079   .     S
C253   N287    1.369   .     A
C254   H282    1.078   .     S
C254   N288    1.368   .     A
C254   C313    1.423   .     S
C255   O296    1.300   .     A
C255   O295    1.302   .     A
C256   O298    1.308   .     A
C256   O297    1.306   .     A
C256   C258    1.480   .     S
C257   C268    1.385   .     A
C257   C804    1.389   1_554 S
C257   H824    1.066   1_554 S
C258   C268    1.416   .     A
C258   C267    1.424   .     A
C259   S300    1.762   .     S
C259   C260    1.392   .     A
C260   H286    1.075   .     S
C260   C801    1.391   .     S
C261   H285    1.081   .     S
C261   C792    1.412   1_554 S
C261   C800    1.391   1_554 S
C262   C266    1.408   .     A
C263   C267    1.410   .     A
C263   C792    1.417   1_554 S
C263   C804    1.404   1_554 S
C264   C265    1.393   .     A
C264   C797    1.389   .     S
C264   C803    1.404   .     S
C265   H283    1.073   .     S
C265   C266    1.381   .     A
C266   Cl273   1.764   .     S
C267   Cl272   1.776   .     S
C268   Cl269   1.767   .     S
Cu274  O297    1.992   .     S
Cu274  Cu275   2.708   .     S
Cu274  N287    2.035   .     S
Cu274  O295    1.961   .     S
Cu274  O293    1.984   .     S
Cu274  O289    1.962   .     S
Cu275  O294    1.992   .     S
Cu275  O298    1.984   .     S
Cu275  N288    2.035   .     S
Cu275  O296    1.962   .     S
Cu275  O292    1.961   .     S
H278   O291    0.991   .     S
H284   C797    1.066   .     S
O290   S300    1.502   .     D
O291   S300    1.682   .     S
O299   S300    1.501   .     D
C301   C309    1.445   .     S
C301   O352    1.299   .     A
C301   O349    1.298   .     A
C302   C322    1.403   .     A
C302   C304    1.473   .     S
C302   C319    1.392   .     A
C303   C309    1.396   .     A
C303   H337    1.084   .     S
C303   C485    1.385   .     S
C304   O353    1.303   .     A
C304   O354    1.310   .     A
C305   C306    1.412   .     A
C305   Cl330   1.760   .     S
C306   C307    1.403   .     A
C306   C315    1.454   .     S
C307   H336    1.083   .     S
C308   H339    1.084   .     S
C308   C309    1.397   .     A
C308   C487    1.385   .     S
C310   Cl331   1.755   .     S
C310   N348    1.380   .     A
C310   C191    1.422   1_655 S
C311   N347    1.364   .     A
C311   H340    1.082   .     S
C312   C322    1.422   .     A
C312   C861    1.412   .     S
C312   C863    1.417   .     S
C313   H341    1.079   .     S
C313   N347    1.369   .     A
C314   H342    1.078   .     S
C314   N348    1.368   .     A
C314   C193    1.423   1_655 S
C315   O356    1.300   .     A
C315   O355    1.302   .     A
C316   O358    1.308   .     A
C316   O357    1.306   .     A
C316   C318    1.480   .     S
C317   C328    1.385   .     A
C317   C864    1.389   1_554 S
C317   H884    1.066   1_554 S
C318   C328    1.416   .     A
C318   C327    1.424   .     A
C319   S360    1.762   .     S
C319   C320    1.392   .     A
C320   H346    1.075   .     S
C320   C861    1.391   .     S
C321   H345    1.081   .     S
C321   C852    1.412   1_554 S
C321   C860    1.391   1_554 S
C322   C326    1.408   .     A
C323   C327    1.410   .     A
C323   C852    1.417   1_554 S
C323   C864    1.404   1_554 S
C324   C325    1.393   .     A
C324   C857    1.389   .     S
C324   C863    1.404   .     S
C325   H343    1.073   .     S
C325   C326    1.381   .     A
C326   Cl333   1.764   .     S
C327   Cl332   1.776   .     S
C328   Cl329   1.767   .     S
Cu334  O357    1.992   .     S
Cu334  Cu335   2.708   .     S
Cu334  N347    2.035   .     S
Cu334  O355    1.961   .     S
Cu334  O353    1.984   .     S
Cu334  O349    1.962   .     S
Cu335  O354    1.992   .     S
Cu335  O358    1.984   .     S
Cu335  N348    2.035   .     S
Cu335  O356    1.962   .     S
Cu335  O352    1.961   .     S
H338   O351    0.991   .     S
H344   C857    1.066   .     S
O350   S360    1.502   .     D
O351   S360    1.682   .     S
O359   S360    1.501   .     D
C361   C369    1.445   .     S
C361   O412    1.299   .     A
C361   O409    1.298   .     A
C362   C382    1.403   .     A
C362   C364    1.473   .     S
C362   C379    1.392   .     A
C363   C369    1.396   .     A
C363   H397    1.084   .     S
C363   C5      1.385   1_565 S
C364   O413    1.303   .     A
C364   O414    1.310   .     A
C365   C366    1.412   .     A
C365   Cl390   1.760   .     S
C366   C367    1.403   .     A
C366   C375    1.454   .     S
C367   H396    1.083   .     S
C368   H399    1.084   .     S
C368   C369    1.397   .     A
C368   C7      1.385   1_565 S
C370   Cl391   1.755   .     S
C370   N408    1.380   .     A
C370   C431    1.422   .     S
C371   N407    1.364   .     A
C371   H400    1.082   .     S
C371   C490    1.422   1_455 S
C372   C382    1.422   .     A
C372   C921    1.412   .     S
C372   C923    1.417   .     S
C373   H401    1.079   .     S
C373   N407    1.369   .     A
C373   C494    1.423   1_455 S
C374   H402    1.078   .     S
C374   N408    1.368   .     A
C374   C433    1.423   .     S
C375   O416    1.300   .     A
C375   O415    1.302   .     A
C376   O418    1.308   .     A
C376   O417    1.306   .     A
C376   C378    1.480   .     S
C377   C388    1.385   .     A
C377   C924    1.389   1_554 S
C377   H944    1.066   1_554 S
C378   C388    1.416   .     A
C378   C387    1.424   .     A
C379   S420    1.762   .     S
C379   C380    1.392   .     A
C380   H406    1.075   .     S
C380   C921    1.391   .     S
C381   H405    1.081   .     S
C381   C912    1.412   1_554 S
C381   C920    1.391   1_554 S
C382   C386    1.408   .     A
C383   C387    1.410   .     A
C383   C912    1.417   1_554 S
C383   C924    1.404   1_554 S
C384   C385    1.393   .     A
C384   C917    1.389   .     S
C384   C923    1.404   .     S
C385   H403    1.073   .     S
C385   C386    1.381   .     A
C386   Cl393   1.764   .     S
C387   Cl392   1.776   .     S
C388   Cl389   1.767   .     S
Cu394  O417    1.992   .     S
Cu394  Cu395   2.708   .     S
Cu394  N407    2.035   .     S
Cu394  O415    1.961   .     S
Cu394  O413    1.984   .     S
Cu394  O409    1.962   .     S
Cu395  O414    1.992   .     S
Cu395  O418    1.984   .     S
Cu395  N408    2.035   .     S
Cu395  O416    1.962   .     S
Cu395  O412    1.961   .     S
H398   O411    0.991   .     S
H404   C917    1.066   .     S
O410   S420    1.502   .     D
O411   S420    1.682   .     S
O419   S420    1.501   .     D
C421   C429    1.445   .     S
C421   O472    1.299   .     A
C421   O469    1.298   .     A
C422   C442    1.403   .     A
C422   C424    1.473   .     S
C422   C439    1.392   .     A
C423   C429    1.396   .     A
C423   H457    1.084   .     S
C423   C65     1.385   1_565 S
C424   O473    1.303   .     A
C424   O474    1.310   .     A
C425   C426    1.412   .     A
C425   Cl450   1.760   .     S
C426   C427    1.403   .     A
C426   C435    1.454   .     S
C427   H456    1.083   .     S
C428   H459    1.084   .     S
C428   C429    1.397   .     A
C428   C67     1.385   1_565 S
C430   Cl451   1.755   .     S
C430   N468    1.380   .     A
C430   C491    1.422   .     S
C431   N467    1.364   .     A
C431   H460    1.082   .     S
C432   C442    1.422   .     A
C432   C981    1.412   .     S
C432   C983    1.417   .     S
C433   H461    1.079   .     S
C433   N467    1.369   .     A
C434   H462    1.078   .     S
C434   N468    1.368   .     A
C434   C493    1.423   .     S
C435   O476    1.300   .     A
C435   O475    1.302   .     A
C436   O478    1.308   .     A
C436   O477    1.306   .     A
C436   C438    1.480   .     S
C437   C448    1.385   .     A
C437   C984    1.389   1_554 S
C437   H1004   1.066   1_554 S
C438   C448    1.416   .     A
C438   C447    1.424   .     A
C439   S480    1.762   .     S
C439   C440    1.392   .     A
C440   H466    1.075   .     S
C440   C981    1.391   .     S
C441   H465    1.081   .     S
C441   C972    1.412   1_554 S
C441   C980    1.391   1_554 S
C442   C446    1.408   .     A
C443   C447    1.410   .     A
C443   C972    1.417   1_554 S
C443   C984    1.404   1_554 S
C444   C445    1.393   .     A
C444   C977    1.389   .     S
C444   C983    1.404   .     S
C445   H463    1.073   .     S
C445   C446    1.381   .     A
C446   Cl453   1.764   .     S
C447   Cl452   1.776   .     S
C448   Cl449   1.767   .     S
Cu454  O477    1.992   .     S
Cu454  Cu455   2.708   .     S
Cu454  N467    2.035   .     S
Cu454  O475    1.961   .     S
Cu454  O473    1.984   .     S
Cu454  O469    1.962   .     S
Cu455  O474    1.992   .     S
Cu455  O478    1.984   .     S
Cu455  N468    2.035   .     S
Cu455  O476    1.962   .     S
Cu455  O472    1.961   .     S
H458   O471    0.991   .     S
H464   C977    1.066   .     S
O470   S480    1.502   .     D
O471   S480    1.682   .     S
O479   S480    1.501   .     D
C481   C489    1.445   .     S
C481   O532    1.299   .     A
C481   O529    1.298   .     A
C482   C502    1.403   .     A
C482   C484    1.473   .     S
C482   C499    1.392   .     A
C483   C489    1.396   .     A
C483   H517    1.084   .     S
C483   C125    1.385   1_565 S
C484   O533    1.303   .     A
C484   O534    1.310   .     A
C485   C486    1.412   .     A
C485   Cl510   1.760   .     S
C486   C487    1.403   .     A
C486   C495    1.454   .     S
C487   H516    1.083   .     S
C488   H519    1.084   .     S
C488   C489    1.397   .     A
C488   C127    1.385   1_565 S
C490   Cl511   1.755   .     S
C490   N528    1.380   .     A
C490   C371    1.422   1_655 S
C491   N527    1.364   .     A
C491   H520    1.082   .     S
C492   C502    1.422   .     A
C492   C1041   1.412   .     S
C492   C1043   1.417   .     S
C493   H521    1.079   .     S
C493   N527    1.369   .     A
C494   H522    1.078   .     S
C494   N528    1.368   .     A
C494   C373    1.423   1_655 S
C495   O536    1.300   .     A
C495   O535    1.302   .     A
C496   O538    1.308   .     A
C496   O537    1.306   .     A
C496   C498    1.480   .     S
C497   C508    1.385   .     A
C497   C1044   1.389   1_554 S
C497   H1064   1.066   1_554 S
C498   C508    1.416   .     A
C498   C507    1.424   .     A
C499   S540    1.762   .     S
C499   C500    1.392   .     A
C500   H526    1.075   .     S
C500   C1041   1.391   .     S
C501   H525    1.081   .     S
C501   C1032   1.412   1_554 S
C501   C1040   1.391   1_554 S
C502   C506    1.408   .     A
C503   C507    1.410   .     A
C503   C1032   1.417   1_554 S
C503   C1044   1.404   1_554 S
C504   C505    1.393   .     A
C504   C1037   1.389   .     S
C504   C1043   1.404   .     S
C505   H523    1.073   .     S
C505   C506    1.381   .     A
C506   Cl513   1.764   .     S
C507   Cl512   1.776   .     S
C508   Cl509   1.767   .     S
Cu514  O537    1.992   .     S
Cu514  Cu515   2.708   .     S
Cu514  N527    2.035   .     S
Cu514  O535    1.961   .     S
Cu514  O533    1.984   .     S
Cu514  O529    1.962   .     S
Cu515  O534    1.992   .     S
Cu515  O538    1.984   .     S
Cu515  N528    2.035   .     S
Cu515  O536    1.962   .     S
Cu515  O532    1.961   .     S
H518   O531    0.991   .     S
H524   C1037   1.066   .     S
O530   S540    1.502   .     D
O531   S540    1.682   .     S
O539   S540    1.501   .     D
C541   C549    1.445   .     S
C541   O592    1.299   .     A
C541   O589    1.298   .     A
C542   C562    1.403   .     A
C542   C544    1.473   .     S
C542   C559    1.392   .     A
C543   C549    1.396   .     A
C543   H577    1.084   .     S
C543   C725    1.385   .     S
C544   O593    1.303   .     A
C544   O594    1.310   .     A
C545   C546    1.412   .     A
C545   Cl570   1.760   .     S
C545   C903    1.385   1_545 S
C546   C547    1.403   .     A
C546   C555    1.454   .     S
C547   H576    1.083   .     S
C547   C908    1.385   1_545 S
C548   H579    1.084   .     S
C548   C549    1.397   .     A
C548   C727    1.385   .     S
C550   Cl571   1.755   .     S
C550   N588    1.380   .     A
C550   C611    1.422   .     S
C551   N587    1.364   .     A
C551   H580    1.082   .     S
C551   C670    1.422   1_455 S
C552   C562    1.422   .     A
C552   C21     1.412   1_556 S
C552   C23     1.417   1_556 S
C553   H581    1.079   .     S
C553   N587    1.369   .     A
C553   C674    1.423   1_455 S
C554   H582    1.078   .     S
C554   N588    1.368   .     A
C554   C613    1.423   .     S
C555   O596    1.300   .     A
C555   O595    1.302   .     A
C556   O598    1.308   .     A
C556   O597    1.306   .     A
C556   C558    1.480   .     S
C557   C568    1.385   .     A
C558   C568    1.416   .     A
C558   C567    1.424   .     A
C559   S600    1.762   .     S
C559   C560    1.392   .     A
C560   H586    1.075   .     S
C560   C21     1.391   1_556 S
C561   H585    1.081   .     S
C562   C566    1.408   .     A
C563   C567    1.410   .     A
C564   C565    1.393   .     A
C564   C17     1.389   1_556 S
C564   C23     1.404   1_556 S
C565   H583    1.073   .     S
C565   C566    1.381   .     A
C566   Cl573   1.764   .     S
C567   Cl572   1.776   .     S
C568   Cl569   1.767   .     S
Cu574  O597    1.992   .     S
Cu574  Cu575   2.708   .     S
Cu574  N587    2.035   .     S
Cu574  O595    1.961   .     S
Cu574  O593    1.984   .     S
Cu574  O589    1.962   .     S
Cu575  O594    1.992   .     S
Cu575  O598    1.984   .     S
Cu575  N588    2.035   .     S
Cu575  O596    1.962   .     S
Cu575  O592    1.961   .     S
H578   O591    0.991   .     S
H584   C17     1.066   1_556 S
O590   S600    1.502   .     D
O591   S600    1.682   .     S
O599   S600    1.501   .     D
C601   C609    1.445   .     S
C601   O652    1.299   .     A
C601   O649    1.298   .     A
C602   C622    1.403   .     A
C602   C604    1.473   .     S
C602   C619    1.392   .     A
C603   C609    1.396   .     A
C603   H637    1.084   .     S
C603   C785    1.385   .     S
C604   O653    1.303   .     A
C604   O654    1.310   .     A
C605   C606    1.412   .     A
C605   Cl630   1.760   .     S
C605   C963    1.385   1_545 S
C606   C607    1.403   .     A
C606   C615    1.454   .     S
C607   H636    1.083   .     S
C607   C968    1.385   1_545 S
C608   H639    1.084   .     S
C608   C609    1.397   .     A
C608   C787    1.385   .     S
C610   Cl631   1.755   .     S
C610   N648    1.380   .     A
C610   C671    1.422   .     S
C611   N647    1.364   .     A
C611   H640    1.082   .     S
C612   C622    1.422   .     A
C612   C81     1.412   1_556 S
C612   C83     1.417   1_556 S
C613   H641    1.079   .     S
C613   N647    1.369   .     A
C614   H642    1.078   .     S
C614   N648    1.368   .     A
C614   C673    1.423   .     S
C615   O656    1.300   .     A
C615   O655    1.302   .     A
C616   O658    1.308   .     A
C616   O657    1.306   .     A
C616   C618    1.480   .     S
C617   C628    1.385   .     A
C618   C628    1.416   .     A
C618   C627    1.424   .     A
C619   S660    1.762   .     S
C619   C620    1.392   .     A
C620   H646    1.075   .     S
C620   C81     1.391   1_556 S
C621   H645    1.081   .     S
C622   C626    1.408   .     A
C623   C627    1.410   .     A
C624   C625    1.393   .     A
C624   C77     1.389   1_556 S
C624   C83     1.404   1_556 S
C625   H643    1.073   .     S
C625   C626    1.381   .     A
C626   Cl633   1.764   .     S
C627   Cl632   1.776   .     S
C628   Cl629   1.767   .     S
Cu634  O657    1.992   .     S
Cu634  Cu635   2.708   .     S
Cu634  N647    2.035   .     S
Cu634  O655    1.961   .     S
Cu634  O653    1.984   .     S
Cu634  O649    1.962   .     S
Cu635  O654    1.992   .     S
Cu635  O658    1.984   .     S
Cu635  N648    2.035   .     S
Cu635  O656    1.962   .     S
Cu635  O652    1.961   .     S
H638   O651    0.991   .     S
H644   C77     1.066   1_556 S
O650   S660    1.502   .     D
O651   S660    1.682   .     S
O659   S660    1.501   .     D
C661   C669    1.445   .     S
C661   O712    1.299   .     A
C661   O709    1.298   .     A
C662   C682    1.403   .     A
C662   C664    1.473   .     S
C662   C679    1.392   .     A
C663   C669    1.396   .     A
C663   H697    1.084   .     S
C663   C845    1.385   .     S
C664   O713    1.303   .     A
C664   O714    1.310   .     A
C665   C666    1.412   .     A
C665   Cl690   1.760   .     S
C665   C1023   1.385   1_545 S
C666   C667    1.403   .     A
C666   C675    1.454   .     S
C667   H696    1.083   .     S
C667   C1028   1.385   1_545 S
C668   H699    1.084   .     S
C668   C669    1.397   .     A
C668   C847    1.385   .     S
C670   Cl691   1.755   .     S
C670   N708    1.380   .     A
C670   C551    1.422   1_655 S
C671   N707    1.364   .     A
C671   H700    1.082   .     S
C672   C682    1.422   .     A
C672   C141    1.412   1_556 S
C672   C143    1.417   1_556 S
C673   H701    1.079   .     S
C673   N707    1.369   .     A
C674   H702    1.078   .     S
C674   N708    1.368   .     A
C674   C553    1.423   1_655 S
C675   O716    1.300   .     A
C675   O715    1.302   .     A
C676   O718    1.308   .     A
C676   O717    1.306   .     A
C676   C678    1.480   .     S
C677   C688    1.385   .     A
C678   C688    1.416   .     A
C678   C687    1.424   .     A
C679   S720    1.762   .     S
C679   C680    1.392   .     A
C680   H706    1.075   .     S
C680   C141    1.391   1_556 S
C681   H705    1.081   .     S
C682   C686    1.408   .     A
C683   C687    1.410   .     A
C684   C685    1.393   .     A
C684   C137    1.389   1_556 S
C684   C143    1.404   1_556 S
C685   H703    1.073   .     S
C685   C686    1.381   .     A
C686   Cl693   1.764   .     S
C687   Cl692   1.776   .     S
C688   Cl689   1.767   .     S
Cu694  O717    1.992   .     S
Cu694  Cu695   2.708   .     S
Cu694  N707    2.035   .     S
Cu694  O715    1.961   .     S
Cu694  O713    1.984   .     S
Cu694  O709    1.962   .     S
Cu695  O714    1.992   .     S
Cu695  O718    1.984   .     S
Cu695  N708    2.035   .     S
Cu695  O716    1.962   .     S
Cu695  O712    1.961   .     S
H698   O711    0.991   .     S
H704   C137    1.066   1_556 S
O710   S720    1.502   .     D
O711   S720    1.682   .     S
O719   S720    1.501   .     D
C721   C729    1.445   .     S
C721   O772    1.299   .     A
C721   O769    1.298   .     A
C722   C742    1.403   .     A
C722   C724    1.473   .     S
C722   C739    1.392   .     A
C723   C729    1.396   .     A
C723   H757    1.084   .     S
C723   C905    1.385   .     S
C724   O773    1.303   .     A
C724   O774    1.310   .     A
C725   C726    1.412   .     A
C725   Cl750   1.760   .     S
C726   C727    1.403   .     A
C726   C735    1.454   .     S
C727   H756    1.083   .     S
C728   H759    1.084   .     S
C728   C729    1.397   .     A
C728   C907    1.385   .     S
C730   Cl751   1.755   .     S
C730   N768    1.380   .     A
C730   C791    1.422   .     S
C731   N767    1.364   .     A
C731   H760    1.082   .     S
C731   C850    1.422   1_455 S
C732   C742    1.422   .     A
C732   C201    1.412   1_556 S
C732   C203    1.417   1_556 S
C733   H761    1.079   .     S
C733   N767    1.369   .     A
C733   C854    1.423   1_455 S
C734   H762    1.078   .     S
C734   N768    1.368   .     A
C734   C793    1.423   .     S
C735   O776    1.300   .     A
C735   O775    1.302   .     A
C736   O778    1.308   .     A
C736   O777    1.306   .     A
C736   C738    1.480   .     S
C737   C748    1.385   .     A
C738   C748    1.416   .     A
C738   C747    1.424   .     A
C739   S780    1.762   .     S
C739   C740    1.392   .     A
C740   H766    1.075   .     S
C740   C201    1.391   1_556 S
C741   H765    1.081   .     S
C742   C746    1.408   .     A
C743   C747    1.410   .     A
C744   C745    1.393   .     A
C744   C197    1.389   1_556 S
C744   C203    1.404   1_556 S
C745   H763    1.073   .     S
C745   C746    1.381   .     A
C746   Cl753   1.764   .     S
C747   Cl752   1.776   .     S
C748   Cl749   1.767   .     S
Cu754  O777    1.992   .     S
Cu754  Cu755   2.708   .     S
Cu754  N767    2.035   .     S
Cu754  O775    1.961   .     S
Cu754  O773    1.984   .     S
Cu754  O769    1.962   .     S
Cu755  O774    1.992   .     S
Cu755  O778    1.984   .     S
Cu755  N768    2.035   .     S
Cu755  O776    1.962   .     S
Cu755  O772    1.961   .     S
H758   O771    0.991   .     S
H764   C197    1.066   1_556 S
O770   S780    1.502   .     D
O771   S780    1.682   .     S
O779   S780    1.501   .     D
C781   C789    1.445   .     S
C781   O832    1.299   .     A
C781   O829    1.298   .     A
C782   C802    1.403   .     A
C782   C784    1.473   .     S
C782   C799    1.392   .     A
C783   C789    1.396   .     A
C783   H817    1.084   .     S
C783   C965    1.385   .     S
C784   O833    1.303   .     A
C784   O834    1.310   .     A
C785   C786    1.412   .     A
C785   Cl810   1.760   .     S
C786   C787    1.403   .     A
C786   C795    1.454   .     S
C787   H816    1.083   .     S
C788   H819    1.084   .     S
C788   C789    1.397   .     A
C788   C967    1.385   .     S
C790   Cl811   1.755   .     S
C790   N828    1.380   .     A
C790   C851    1.422   .     S
C791   N827    1.364   .     A
C791   H820    1.082   .     S
C792   C802    1.422   .     A
C792   C261    1.412   1_556 S
C792   C263    1.417   1_556 S
C793   H821    1.079   .     S
C793   N827    1.369   .     A
C794   H822    1.078   .     S
C794   N828    1.368   .     A
C794   C853    1.423   .     S
C795   O836    1.300   .     A
C795   O835    1.302   .     A
C796   O838    1.308   .     A
C796   O837    1.306   .     A
C796   C798    1.480   .     S
C797   C808    1.385   .     A
C798   C808    1.416   .     A
C798   C807    1.424   .     A
C799   S840    1.762   .     S
C799   C800    1.392   .     A
C800   H826    1.075   .     S
C800   C261    1.391   1_556 S
C801   H825    1.081   .     S
C802   C806    1.408   .     A
C803   C807    1.410   .     A
C804   C805    1.393   .     A
C804   C257    1.389   1_556 S
C804   C263    1.404   1_556 S
C805   H823    1.073   .     S
C805   C806    1.381   .     A
C806   Cl813   1.764   .     S
C807   Cl812   1.776   .     S
C808   Cl809   1.767   .     S
Cu814  O837    1.992   .     S
Cu814  Cu815   2.708   .     S
Cu814  N827    2.035   .     S
Cu814  O835    1.961   .     S
Cu814  O833    1.984   .     S
Cu814  O829    1.962   .     S
Cu815  O834    1.992   .     S
Cu815  O838    1.984   .     S
Cu815  N828    2.035   .     S
Cu815  O836    1.962   .     S
Cu815  O832    1.961   .     S
H818   O831    0.991   .     S
H824   C257    1.066   1_556 S
O830   S840    1.502   .     D
O831   S840    1.682   .     S
O839   S840    1.501   .     D
C841   C849    1.445   .     S
C841   O892    1.299   .     A
C841   O889    1.298   .     A
C842   C862    1.403   .     A
C842   C844    1.473   .     S
C842   C859    1.392   .     A
C843   C849    1.396   .     A
C843   H877    1.084   .     S
C843   C1025   1.385   .     S
C844   O893    1.303   .     A
C844   O894    1.310   .     A
C845   C846    1.412   .     A
C845   Cl870   1.760   .     S
C846   C847    1.403   .     A
C846   C855    1.454   .     S
C847   H876    1.083   .     S
C848   H879    1.084   .     S
C848   C849    1.397   .     A
C848   C1027   1.385   .     S
C850   Cl871   1.755   .     S
C850   N888    1.380   .     A
C850   C731    1.422   1_655 S
C851   N887    1.364   .     A
C851   H880    1.082   .     S
C852   C862    1.422   .     A
C852   C321    1.412   1_556 S
C852   C323    1.417   1_556 S
C853   H881    1.079   .     S
C853   N887    1.369   .     A
C854   H882    1.078   .     S
C854   N888    1.368   .     A
C854   C733    1.423   1_655 S
C855   O896    1.300   .     A
C855   O895    1.302   .     A
C856   O898    1.308   .     A
C856   O897    1.306   .     A
C856   C858    1.480   .     S
C857   C868    1.385   .     A
C858   C868    1.416   .     A
C858   C867    1.424   .     A
C859   S900    1.762   .     S
C859   C860    1.392   .     A
C860   H886    1.075   .     S
C860   C321    1.391   1_556 S
C861   H885    1.081   .     S
C862   C866    1.408   .     A
C863   C867    1.410   .     A
C864   C865    1.393   .     A
C864   C317    1.389   1_556 S
C864   C323    1.404   1_556 S
C865   H883    1.073   .     S
C865   C866    1.381   .     A
C866   Cl873   1.764   .     S
C867   Cl872   1.776   .     S
C868   Cl869   1.767   .     S
Cu874  O897    1.992   .     S
Cu874  Cu875   2.708   .     S
Cu874  N887    2.035   .     S
Cu874  O895    1.961   .     S
Cu874  O893    1.984   .     S
Cu874  O889    1.962   .     S
Cu875  O894    1.992   .     S
Cu875  O898    1.984   .     S
Cu875  N888    2.035   .     S
Cu875  O896    1.962   .     S
Cu875  O892    1.961   .     S
H878   O891    0.991   .     S
H884   C317    1.066   1_556 S
O890   S900    1.502   .     D
O891   S900    1.682   .     S
O899   S900    1.501   .     D
C901   C909    1.445   .     S
C901   O952    1.299   .     A
C901   O949    1.298   .     A
C902   C922    1.403   .     A
C902   C904    1.473   .     S
C902   C919    1.392   .     A
C903   C909    1.396   .     A
C903   H937    1.084   .     S
C903   C545    1.385   1_565 S
C904   O953    1.303   .     A
C904   O954    1.310   .     A
C905   C906    1.412   .     A
C905   Cl930   1.760   .     S
C906   C907    1.403   .     A
C906   C915    1.454   .     S
C907   H936    1.083   .     S
C908   H939    1.084   .     S
C908   C909    1.397   .     A
C908   C547    1.385   1_565 S
C910   Cl931   1.755   .     S
C910   N948    1.380   .     A
C910   C971    1.422   .     S
C911   N947    1.364   .     A
C911   H940    1.082   .     S
C911   C1030   1.422   1_455 S
C912   C922    1.422   .     A
C912   C381    1.412   1_556 S
C912   C383    1.417   1_556 S
C913   H941    1.079   .     S
C913   N947    1.369   .     A
C913   C1034   1.423   1_455 S
C914   H942    1.078   .     S
C914   N948    1.368   .     A
C914   C973    1.423   .     S
C915   O956    1.300   .     A
C915   O955    1.302   .     A
C916   O958    1.308   .     A
C916   O957    1.306   .     A
C916   C918    1.480   .     S
C917   C928    1.385   .     A
C918   C928    1.416   .     A
C918   C927    1.424   .     A
C919   S960    1.762   .     S
C919   C920    1.392   .     A
C920   H946    1.075   .     S
C920   C381    1.391   1_556 S
C921   H945    1.081   .     S
C922   C926    1.408   .     A
C923   C927    1.410   .     A
C924   C925    1.393   .     A
C924   C377    1.389   1_556 S
C924   C383    1.404   1_556 S
C925   H943    1.073   .     S
C925   C926    1.381   .     A
C926   Cl933   1.764   .     S
C927   Cl932   1.776   .     S
C928   Cl929   1.767   .     S
Cu934  O957    1.992   .     S
Cu934  Cu935   2.708   .     S
Cu934  N947    2.035   .     S
Cu934  O955    1.961   .     S
Cu934  O953    1.984   .     S
Cu934  O949    1.962   .     S
Cu935  O954    1.992   .     S
Cu935  O958    1.984   .     S
Cu935  N948    2.035   .     S
Cu935  O956    1.962   .     S
Cu935  O952    1.961   .     S
H938   O951    0.991   .     S
H944   C377    1.066   1_556 S
O950   S960    1.502   .     D
O951   S960    1.682   .     S
O959   S960    1.501   .     D
C961   C969    1.445   .     S
C961   O1012   1.299   .     A
C961   O1009   1.298   .     A
C962   C982    1.403   .     A
C962   C964    1.473   .     S
C962   C979    1.392   .     A
C963   C969    1.396   .     A
C963   H997    1.084   .     S
C963   C605    1.385   1_565 S
C964   O1013   1.303   .     A
C964   O1014   1.310   .     A
C965   C966    1.412   .     A
C965   Cl990   1.760   .     S
C966   C967    1.403   .     A
C966   C975    1.454   .     S
C967   H996    1.083   .     S
C968   H999    1.084   .     S
C968   C969    1.397   .     A
C968   C607    1.385   1_565 S
C970   Cl991   1.755   .     S
C970   N1008   1.380   .     A
C970   C1031   1.422   .     S
C971   N1007   1.364   .     A
C971   H1000   1.082   .     S
C972   C982    1.422   .     A
C972   C441    1.412   1_556 S
C972   C443    1.417   1_556 S
C973   H1001   1.079   .     S
C973   N1007   1.369   .     A
C974   H1002   1.078   .     S
C974   N1008   1.368   .     A
C974   C1033   1.423   .     S
C975   O1016   1.300   .     A
C975   O1015   1.302   .     A
C976   O1018   1.308   .     A
C976   O1017   1.306   .     A
C976   C978    1.480   .     S
C977   C988    1.385   .     A
C978   C988    1.416   .     A
C978   C987    1.424   .     A
C979   S1020   1.762   .     S
C979   C980    1.392   .     A
C980   H1006   1.075   .     S
C980   C441    1.391   1_556 S
C981   H1005   1.081   .     S
C982   C986    1.408   .     A
C983   C987    1.410   .     A
C984   C985    1.393   .     A
C984   C437    1.389   1_556 S
C984   C443    1.404   1_556 S
C985   H1003   1.073   .     S
C985   C986    1.381   .     A
C986   Cl993   1.764   .     S
C987   Cl992   1.776   .     S
C988   Cl989   1.767   .     S
Cu994  O1017   1.992   .     S
Cu994  Cu995   2.708   .     S
Cu994  N1007   2.035   .     S
Cu994  O1015   1.961   .     S
Cu994  O1013   1.984   .     S
Cu994  O1009   1.962   .     S
Cu995  O1014   1.992   .     S
Cu995  O1018   1.984   .     S
Cu995  N1008   2.035   .     S
Cu995  O1016   1.962   .     S
Cu995  O1012   1.961   .     S
H998   O1011   0.991   .     S
H1004  C437    1.066   1_556 S
O1010  S1020   1.502   .     D
O1011  S1020   1.682   .     S
O1019  S1020   1.501   .     D
C1021  C1029   1.445   .     S
C1021  O1072   1.299   .     A
C1021  O1069   1.298   .     A
C1022  C1042   1.403   .     A
C1022  C1024   1.473   .     S
C1022  C1039   1.392   .     A
C1023  C1029   1.396   .     A
C1023  H1057   1.084   .     S
C1023  C665    1.385   1_565 S
C1024  O1073   1.303   .     A
C1024  O1074   1.310   .     A
C1025  C1026   1.412   .     A
C1025  Cl1050  1.760   .     S
C1026  C1027   1.403   .     A
C1026  C1035   1.454   .     S
C1027  H1056   1.083   .     S
C1028  H1059   1.084   .     S
C1028  C1029   1.397   .     A
C1028  C667    1.385   1_565 S
C1030  Cl1051  1.755   .     S
C1030  N1068   1.380   .     A
C1030  C911    1.422   1_655 S
C1031  N1067   1.364   .     A
C1031  H1060   1.082   .     S
C1032  C1042   1.422   .     A
C1032  C501    1.412   1_556 S
C1032  C503    1.417   1_556 S
C1033  H1061   1.079   .     S
C1033  N1067   1.369   .     A
C1034  H1062   1.078   .     S
C1034  N1068   1.368   .     A
C1034  C913    1.423   1_655 S
C1035  O1076   1.300   .     A
C1035  O1075   1.302   .     A
C1036  O1078   1.308   .     A
C1036  O1077   1.306   .     A
C1036  C1038   1.480   .     S
C1037  C1048   1.385   .     A
C1038  C1048   1.416   .     A
C1038  C1047   1.424   .     A
C1039  S1080   1.762   .     S
C1039  C1040   1.392   .     A
C1040  H1066   1.075   .     S
C1040  C501    1.391   1_556 S
C1041  H1065   1.081   .     S
C1042  C1046   1.408   .     A
C1043  C1047   1.410   .     A
C1044  C1045   1.393   .     A
C1044  C497    1.389   1_556 S
C1044  C503    1.404   1_556 S
C1045  H1063   1.073   .     S
C1045  C1046   1.381   .     A
C1046  Cl1053  1.764   .     S
C1047  Cl1052  1.776   .     S
C1048  Cl1049  1.767   .     S
Cu1054 O1077   1.992   .     S
Cu1054 Cu1055  2.708   .     S
Cu1054 N1067   2.035   .     S
Cu1054 O1075   1.961   .     S
Cu1054 O1073   1.984   .     S
Cu1054 O1069   1.962   .     S
Cu1055 O1074   1.992   .     S
Cu1055 O1078   1.984   .     S
Cu1055 N1068   2.035   .     S
Cu1055 O1076   1.962   .     S
Cu1055 O1072   1.961   .     S
H1058  O1071   0.991   .     S
H1064  C497    1.066   1_556 S
O1070  S1080   1.502   .     D
O1071  S1080   1.682   .     S
O1079  S1080   1.501   .     D
