data_str_m2_o1_o18_pcu_sym.164
_audit_creation_date              2020-01-03
_audit_creation_method            'Materials Studio'
_symmetry_space_group_name_H-M    'P1'
_symmetry_Int_Tables_number       1
_symmetry_cell_setting            triclinic
loop_
_symmetry_equiv_pos_as_xyz
  x,y,z
_cell_length_a                    28.6999
_cell_length_b                    32.3871
_cell_length_c                    31.2686
_cell_angle_alpha                 89.7327
_cell_angle_beta                  72.4123
_cell_angle_gamma                 90.2595
loop_
_atom_site_label
_atom_site_type_symbol
_atom_site_fract_x
_atom_site_fract_y
_atom_site_fract_z
_atom_site_U_iso_or_equiv
_atom_site_adp_type
_atom_site_occupancy
O1     O     0.03958   0.10655   0.25000   0.00000  Uiso   1.00
O2     O     0.29375   0.22678   0.25000   0.00000  Uiso   1.00
O3     O     0.29372   0.10654   0.25001   0.00000  Uiso   1.00
O4     O     0.03961   0.22679   0.24999   0.00000  Uiso   1.00
C5     C     0.33316   0.08747   0.25000   0.00000  Uiso   1.00
C6     C     0.00026   0.24582   0.24982   0.00000  Uiso   1.00
O7     O     0.01852   0.16668   0.31492   0.00000  Uiso   1.00
O8     O     0.31481   0.16666   0.18509   0.00000  Uiso   1.00
O9     O     0.27267   0.16667   0.31492   0.00000  Uiso   1.00
O10    O     0.06067   0.16667   0.18508   0.00000  Uiso   1.00
C11    C     0.30534   0.16768   0.33622   0.00000  Uiso   1.00
C12    C     0.02806   0.16674   0.16373   0.00000  Uiso   1.00
Cu13   Cu    0.04689   0.16667   0.25000   0.00000  Uiso   1.00
Cu14   Cu    0.28645   0.16666   0.25000   0.00000  Uiso   1.00
C15    C     0.28921   0.17684   0.38485   0.00000  Uiso   1.00
C16    C     0.04401   0.17094   0.11421   0.00000  Uiso   1.00
C17    C     0.30448   0.21279   0.44740   0.00000  Uiso   1.00
C18    C     0.02426   0.17645   0.04425   0.00000  Uiso   1.00
C19    C     0.32239   0.19274   0.40614   0.00000  Uiso   1.00
C20    C     0.00917   0.16887   0.09056   0.00000  Uiso   1.00
C21    C     0.23911   0.17509   0.40878   0.00000  Uiso   1.00
C22    C     0.09377   0.17910   0.09070   0.00000  Uiso   1.00
C23    C     0.22117   0.19605   0.45018   0.00000  Uiso   1.00
C24    C     0.10740   0.19157   0.04516   0.00000  Uiso   1.00
C25    C     0.25466   0.21281   0.47040   0.00000  Uiso   1.00
C26    C     0.07243   0.18789   0.02192   0.00000  Uiso   1.00
C27    C     0.17083   0.19895   0.47335   0.00000  Uiso   1.00
C28    C     0.15588   0.20373   0.02054   0.00000  Uiso   1.00
C29    C     0.18919   0.22301   0.03986   0.00000  Uiso   1.00
C30    C     0.13478   0.20000   0.45116   0.00000  Uiso   1.00
C31    C     0.23798   0.22848   0.01400   0.00000  Uiso   1.00
C32    C     0.08624   0.19461   0.47588   0.00000  Uiso   1.00
H33    H     0.26328   0.24309   0.02897   0.00000  Uiso   1.00
H34    H     0.05961   0.19440   0.45861   0.00000  Uiso   1.00
H35    H     0.32926   0.22824   0.46208   0.00000  Uiso   1.00
H36    H     0.33197   0.17240   0.02528   0.00000  Uiso   1.00
C37    C     0.30941   0.02139   0.22319   0.00000  Uiso   1.00
C38    C     0.02466   0.31177   0.27578   0.00000  Uiso   1.00
C39    C     0.31218   0.31169   0.22123   0.00000  Uiso   1.00
C40    C     0.02187   0.02143   0.27780   0.00000  Uiso   1.00
C41    C     0.00112   0.29042   0.24907   0.00000  Uiso   1.00
C42    C     0.33267   0.04279   0.25021   0.00000  Uiso   1.00
C43    C     0.18257   0.13969   0.27644   0.00000  Uiso   1.00
C44    C     0.15075   0.19369   0.22360   0.00000  Uiso   1.00
H45    H     0.19398   0.11805   0.29772   0.00000  Uiso   1.00
H46    H     0.13937   0.21529   0.20228   0.00000  Uiso   1.00
C47    C     0.13313   0.13961   0.27632   0.00000  Uiso   1.00
C48    C     0.20021   0.19377   0.22374   0.00000  Uiso   1.00
H49    H     0.10761   0.11773   0.29727   0.00000  Uiso   1.00
H50    H     0.22582   0.21552   0.20261   0.00000  Uiso   1.00
N51    N     0.11736   0.16668   0.24999   0.00000  Uiso   1.00
N52    N     0.21597   0.16666   0.25001   0.00000  Uiso   1.00
O53    O     0.12931   0.17095   0.11116   0.00000  Uiso   1.00
C54    C     0.14390   0.12945   0.10270   0.00000  Uiso   1.00
H55    H     0.16372   0.12481   0.06654   0.00000  Uiso   1.00
H56    H     0.11229   0.10770   0.11386   0.00000  Uiso   1.00
H57    H     0.16923   0.12164   0.12212   0.00000  Uiso   1.00
O58    O     0.20854   0.15072   0.39251   0.00000  Uiso   1.00
C59    C     0.20444   0.11146   0.41302   0.00000  Uiso   1.00
H60    H     0.18553   0.11328   0.44969   0.00000  Uiso   1.00
H61    H     0.24080   0.09669   0.40684   0.00000  Uiso   1.00
H62    H     0.18208   0.09133   0.39819   0.00000  Uiso   1.00
O63    O     0.29580   0.15396   0.11234   0.00000  Uiso   1.00
C64    C     0.25966   0.17843   0.10275   0.00000  Uiso   1.00
H65    H     0.26895   0.21197   0.10034   0.00000  Uiso   1.00
H66    H     0.22520   0.17471   0.13050   0.00000  Uiso   1.00
H67    H     0.25260   0.16731   0.07177   0.00000  Uiso   1.00
O68    O     0.03907   0.18965   0.38686   0.00000  Uiso   1.00
C69    C     0.05313   0.14854   0.39242   0.00000  Uiso   1.00
H70    H     0.09357   0.14722   0.38286   0.00000  Uiso   1.00
H71    H     0.04129   0.12681   0.37051   0.00000  Uiso   1.00
H72    H     0.03835   0.13736   0.42771   0.00000  Uiso   1.00
O73    O     0.17466   0.23856   0.08296   0.00000  Uiso   1.00
C74    C     0.15194   0.27699   0.08250   0.00000  Uiso   1.00
H75    H     0.11780   0.27365   0.07291   0.00000  Uiso   1.00
H76    H     0.17729   0.29941   0.05976   0.00000  Uiso   1.00
H77    H     0.14163   0.28989   0.11688   0.00000  Uiso   1.00
O78    O     0.14596   0.20822   0.40572   0.00000  Uiso   1.00
C79    C     0.14987   0.25132   0.39909   0.00000  Uiso   1.00
H80    H     0.17974   0.26457   0.41075   0.00000  Uiso   1.00
H81    H     0.11458   0.26678   0.41602   0.00000  Uiso   1.00
H82    H     0.15901   0.25783   0.36262   0.00000  Uiso   1.00
O83    O     0.28825   0.04286   0.19548   0.00000  Uiso   1.00
C84    C     0.23688   0.04050   0.21373   0.00000  Uiso   1.00
H85    H     0.22038   0.06272   0.19546   0.00000  Uiso   1.00
H86    H     0.22428   0.04913   0.24985   0.00000  Uiso   1.00
H87    H     0.22303   0.00924   0.20929   0.00000  Uiso   1.00
O88    O     0.04581   0.29029   0.30351   0.00000  Uiso   1.00
C89    C     0.09717   0.29266   0.28532   0.00000  Uiso   1.00
H90    H     0.10981   0.28451   0.24906   0.00000  Uiso   1.00
H91    H     0.11361   0.27009   0.30324   0.00000  Uiso   1.00
H92    H     0.11101   0.32379   0.29029   0.00000  Uiso   1.00
O93    O     0.29246   0.29044   0.19241   0.00000  Uiso   1.00
C94    C     0.32949   0.28484   0.15134   0.00000  Uiso   1.00
H95    H     0.31377   0.26783   0.12820   0.00000  Uiso   1.00
H96    H     0.02676   0.26602   0.15577   0.00000  Uiso   1.00
H97    H     0.01020   0.31498   0.13521   0.00000  Uiso   1.00
O98    O     0.04107   0.04244   0.30710   0.00000  Uiso   1.00
C99    C     0.00458   0.04494   0.34897   0.00000  Uiso   1.00
H100   H     0.30903   0.06703   0.34714   0.00000  Uiso   1.00
H101   H     0.02150   0.05645   0.37417   0.00000  Uiso   1.00
H102   H     0.32140   0.01426   0.36124   0.00000  Uiso   1.00
O103   O     0.37291   0.10655   0.25000   0.00000  Uiso   1.00
O104   O     0.62709   0.22678   0.25000   0.00000  Uiso   1.00
O105   O     0.62706   0.10654   0.25001   0.00000  Uiso   1.00
O106   O     0.37294   0.22679   0.24999   0.00000  Uiso   1.00
C107   C     0.66649   0.08747   0.25000   0.00000  Uiso   1.00
C108   C     0.33359   0.24582   0.24982   0.00000  Uiso   1.00
O109   O     0.35186   0.16668   0.31492   0.00000  Uiso   1.00
O110   O     0.64814   0.16666   0.18509   0.00000  Uiso   1.00
O111   O     0.60600   0.16667   0.31492   0.00000  Uiso   1.00
O112   O     0.39400   0.16667   0.18508   0.00000  Uiso   1.00
C113   C     0.63867   0.16768   0.33622   0.00000  Uiso   1.00
C114   C     0.36139   0.16674   0.16373   0.00000  Uiso   1.00
Cu115  Cu    0.38022   0.16667   0.25000   0.00000  Uiso   1.00
Cu116  Cu    0.61978   0.16666   0.25000   0.00000  Uiso   1.00
C117   C     0.62255   0.17684   0.38485   0.00000  Uiso   1.00
C118   C     0.37734   0.17094   0.11421   0.00000  Uiso   1.00
C119   C     0.63782   0.21279   0.44740   0.00000  Uiso   1.00
C120   C     0.35759   0.17645   0.04425   0.00000  Uiso   1.00
C121   C     0.65572   0.19274   0.40614   0.00000  Uiso   1.00
C122   C     0.34251   0.16887   0.09056   0.00000  Uiso   1.00
C123   C     0.57244   0.17509   0.40878   0.00000  Uiso   1.00
C124   C     0.42710   0.17910   0.09070   0.00000  Uiso   1.00
C125   C     0.55451   0.19605   0.45018   0.00000  Uiso   1.00
C126   C     0.44073   0.19157   0.04516   0.00000  Uiso   1.00
C127   C     0.58799   0.21281   0.47040   0.00000  Uiso   1.00
C128   C     0.40576   0.18789   0.02192   0.00000  Uiso   1.00
C129   C     0.50416   0.19895   0.47335   0.00000  Uiso   1.00
C130   C     0.48921   0.20373   0.02054   0.00000  Uiso   1.00
C131   C     0.52252   0.22301   0.03986   0.00000  Uiso   1.00
C132   C     0.46812   0.20000   0.45116   0.00000  Uiso   1.00
C133   C     0.57131   0.22848   0.01400   0.00000  Uiso   1.00
C134   C     0.41958   0.19461   0.47588   0.00000  Uiso   1.00
H135   H     0.59662   0.24309   0.02897   0.00000  Uiso   1.00
H136   H     0.39294   0.19440   0.45861   0.00000  Uiso   1.00
H137   H     0.66260   0.22824   0.46208   0.00000  Uiso   1.00
H138   H     0.66531   0.17240   0.02528   0.00000  Uiso   1.00
C139   C     0.64275   0.02139   0.22319   0.00000  Uiso   1.00
C140   C     0.35799   0.31177   0.27578   0.00000  Uiso   1.00
C141   C     0.64551   0.31169   0.22123   0.00000  Uiso   1.00
C142   C     0.35520   0.02143   0.27780   0.00000  Uiso   1.00
C143   C     0.33445   0.29042   0.24907   0.00000  Uiso   1.00
C144   C     0.66600   0.04279   0.25021   0.00000  Uiso   1.00
C145   C     0.51590   0.13969   0.27644   0.00000  Uiso   1.00
C146   C     0.48409   0.19369   0.22360   0.00000  Uiso   1.00
H147   H     0.52731   0.11805   0.29772   0.00000  Uiso   1.00
H148   H     0.47270   0.21529   0.20228   0.00000  Uiso   1.00
C149   C     0.46646   0.13961   0.27632   0.00000  Uiso   1.00
C150   C     0.53354   0.19377   0.22374   0.00000  Uiso   1.00
H151   H     0.44095   0.11773   0.29727   0.00000  Uiso   1.00
H152   H     0.55915   0.21552   0.20261   0.00000  Uiso   1.00
N153   N     0.45069   0.16668   0.24999   0.00000  Uiso   1.00
N154   N     0.54931   0.16666   0.25001   0.00000  Uiso   1.00
O155   O     0.46265   0.17095   0.11116   0.00000  Uiso   1.00
C156   C     0.47723   0.12945   0.10270   0.00000  Uiso   1.00
H157   H     0.49705   0.12481   0.06654   0.00000  Uiso   1.00
H158   H     0.44563   0.10770   0.11386   0.00000  Uiso   1.00
H159   H     0.50257   0.12164   0.12212   0.00000  Uiso   1.00
O160   O     0.54187   0.15072   0.39251   0.00000  Uiso   1.00
C161   C     0.53778   0.11146   0.41302   0.00000  Uiso   1.00
H162   H     0.51886   0.11328   0.44969   0.00000  Uiso   1.00
H163   H     0.57414   0.09669   0.40684   0.00000  Uiso   1.00
H164   H     0.51541   0.09133   0.39819   0.00000  Uiso   1.00
O165   O     0.62913   0.15396   0.11234   0.00000  Uiso   1.00
C166   C     0.59300   0.17843   0.10275   0.00000  Uiso   1.00
H167   H     0.60228   0.21197   0.10034   0.00000  Uiso   1.00
H168   H     0.55853   0.17471   0.13050   0.00000  Uiso   1.00
H169   H     0.58594   0.16731   0.07177   0.00000  Uiso   1.00
O170   O     0.37241   0.18965   0.38686   0.00000  Uiso   1.00
C171   C     0.38646   0.14854   0.39242   0.00000  Uiso   1.00
H172   H     0.42691   0.14722   0.38286   0.00000  Uiso   1.00
H173   H     0.37462   0.12681   0.37051   0.00000  Uiso   1.00
H174   H     0.37169   0.13736   0.42771   0.00000  Uiso   1.00
O175   O     0.50800   0.23856   0.08296   0.00000  Uiso   1.00
C176   C     0.48527   0.27699   0.08250   0.00000  Uiso   1.00
H177   H     0.45114   0.27365   0.07291   0.00000  Uiso   1.00
H178   H     0.51063   0.29941   0.05976   0.00000  Uiso   1.00
H179   H     0.47496   0.28989   0.11688   0.00000  Uiso   1.00
O180   O     0.47929   0.20822   0.40572   0.00000  Uiso   1.00
C181   C     0.48320   0.25132   0.39909   0.00000  Uiso   1.00
H182   H     0.51308   0.26457   0.41075   0.00000  Uiso   1.00
H183   H     0.44792   0.26678   0.41602   0.00000  Uiso   1.00
H184   H     0.49234   0.25783   0.36262   0.00000  Uiso   1.00
O185   O     0.62158   0.04286   0.19548   0.00000  Uiso   1.00
C186   C     0.57022   0.04050   0.21373   0.00000  Uiso   1.00
H187   H     0.55371   0.06272   0.19546   0.00000  Uiso   1.00
H188   H     0.55762   0.04913   0.24985   0.00000  Uiso   1.00
H189   H     0.55636   0.00924   0.20929   0.00000  Uiso   1.00
O190   O     0.37914   0.29029   0.30351   0.00000  Uiso   1.00
C191   C     0.43050   0.29266   0.28532   0.00000  Uiso   1.00
H192   H     0.44315   0.28451   0.24906   0.00000  Uiso   1.00
H193   H     0.44694   0.27009   0.30324   0.00000  Uiso   1.00
H194   H     0.44434   0.32379   0.29029   0.00000  Uiso   1.00
O195   O     0.62579   0.29044   0.19241   0.00000  Uiso   1.00
C196   C     0.66282   0.28484   0.15134   0.00000  Uiso   1.00
H197   H     0.64710   0.26783   0.12820   0.00000  Uiso   1.00
H198   H     0.36009   0.26602   0.15577   0.00000  Uiso   1.00
H199   H     0.34353   0.31498   0.13521   0.00000  Uiso   1.00
O200   O     0.37440   0.04244   0.30710   0.00000  Uiso   1.00
C201   C     0.33792   0.04494   0.34897   0.00000  Uiso   1.00
H202   H     0.64236   0.06703   0.34714   0.00000  Uiso   1.00
H203   H     0.35483   0.05645   0.37417   0.00000  Uiso   1.00
H204   H     0.65473   0.01426   0.36124   0.00000  Uiso   1.00
O205   O     0.70625   0.10655   0.25000   0.00000  Uiso   1.00
O206   O     0.96042   0.22678   0.25000   0.00000  Uiso   1.00
O207   O     0.96039   0.10654   0.25001   0.00000  Uiso   1.00
O208   O     0.70628   0.22679   0.24999   0.00000  Uiso   1.00
C209   C     0.99982   0.08747   0.25000   0.00000  Uiso   1.00
C210   C     0.66692   0.24582   0.24982   0.00000  Uiso   1.00
O211   O     0.68519   0.16668   0.31492   0.00000  Uiso   1.00
O212   O     0.98148   0.16666   0.18509   0.00000  Uiso   1.00
O213   O     0.93933   0.16667   0.31492   0.00000  Uiso   1.00
O214   O     0.72733   0.16667   0.18508   0.00000  Uiso   1.00
C215   C     0.97201   0.16768   0.33622   0.00000  Uiso   1.00
C216   C     0.69473   0.16674   0.16373   0.00000  Uiso   1.00
Cu217  Cu    0.71355   0.16667   0.25000   0.00000  Uiso   1.00
Cu218  Cu    0.95311   0.16666   0.25000   0.00000  Uiso   1.00
C219   C     0.95588   0.17684   0.38485   0.00000  Uiso   1.00
C220   C     0.71067   0.17094   0.11421   0.00000  Uiso   1.00
C221   C     0.97115   0.21279   0.44740   0.00000  Uiso   1.00
C222   C     0.69092   0.17645   0.04425   0.00000  Uiso   1.00
C223   C     0.98905   0.19274   0.40614   0.00000  Uiso   1.00
C224   C     0.67584   0.16887   0.09056   0.00000  Uiso   1.00
C225   C     0.90578   0.17509   0.40878   0.00000  Uiso   1.00
C226   C     0.76044   0.17910   0.09070   0.00000  Uiso   1.00
C227   C     0.88784   0.19605   0.45018   0.00000  Uiso   1.00
C228   C     0.77406   0.19157   0.04516   0.00000  Uiso   1.00
C229   C     0.92132   0.21281   0.47040   0.00000  Uiso   1.00
C230   C     0.73909   0.18789   0.02192   0.00000  Uiso   1.00
C231   C     0.83749   0.19895   0.47335   0.00000  Uiso   1.00
C232   C     0.82254   0.20373   0.02054   0.00000  Uiso   1.00
C233   C     0.85585   0.22301   0.03986   0.00000  Uiso   1.00
C234   C     0.80145   0.20000   0.45116   0.00000  Uiso   1.00
C235   C     0.90465   0.22848   0.01400   0.00000  Uiso   1.00
C236   C     0.75291   0.19461   0.47588   0.00000  Uiso   1.00
H237   H     0.92995   0.24309   0.02897   0.00000  Uiso   1.00
H238   H     0.72627   0.19440   0.45861   0.00000  Uiso   1.00
H239   H     0.99593   0.22824   0.46208   0.00000  Uiso   1.00
H240   H     0.99864   0.17240   0.02528   0.00000  Uiso   1.00
C241   C     0.97608   0.02139   0.22319   0.00000  Uiso   1.00
C242   C     0.69132   0.31177   0.27578   0.00000  Uiso   1.00
C243   C     0.97884   0.31169   0.22123   0.00000  Uiso   1.00
C244   C     0.68854   0.02143   0.27780   0.00000  Uiso   1.00
C245   C     0.66779   0.29042   0.24907   0.00000  Uiso   1.00
C246   C     0.99934   0.04279   0.25021   0.00000  Uiso   1.00
C247   C     0.84923   0.13969   0.27644   0.00000  Uiso   1.00
C248   C     0.81742   0.19369   0.22360   0.00000  Uiso   1.00
H249   H     0.86064   0.11805   0.29772   0.00000  Uiso   1.00
H250   H     0.80603   0.21529   0.20228   0.00000  Uiso   1.00
C251   C     0.79979   0.13961   0.27632   0.00000  Uiso   1.00
C252   C     0.86687   0.19377   0.22374   0.00000  Uiso   1.00
H253   H     0.77428   0.11773   0.29727   0.00000  Uiso   1.00
H254   H     0.89248   0.21552   0.20261   0.00000  Uiso   1.00
N255   N     0.78403   0.16668   0.24999   0.00000  Uiso   1.00
N256   N     0.88264   0.16666   0.25001   0.00000  Uiso   1.00
O257   O     0.79598   0.17095   0.11116   0.00000  Uiso   1.00
C258   C     0.81056   0.12945   0.10270   0.00000  Uiso   1.00
H259   H     0.83038   0.12481   0.06654   0.00000  Uiso   1.00
H260   H     0.77896   0.10770   0.11386   0.00000  Uiso   1.00
H261   H     0.83590   0.12164   0.12212   0.00000  Uiso   1.00
O262   O     0.87521   0.15072   0.39251   0.00000  Uiso   1.00
C263   C     0.87111   0.11146   0.41302   0.00000  Uiso   1.00
H264   H     0.85220   0.11328   0.44969   0.00000  Uiso   1.00
H265   H     0.90747   0.09669   0.40684   0.00000  Uiso   1.00
H266   H     0.84875   0.09133   0.39819   0.00000  Uiso   1.00
O267   O     0.96246   0.15396   0.11234   0.00000  Uiso   1.00
C268   C     0.92633   0.17843   0.10275   0.00000  Uiso   1.00
H269   H     0.93561   0.21197   0.10034   0.00000  Uiso   1.00
H270   H     0.89187   0.17471   0.13050   0.00000  Uiso   1.00
H271   H     0.91927   0.16731   0.07177   0.00000  Uiso   1.00
O272   O     0.70574   0.18965   0.38686   0.00000  Uiso   1.00
C273   C     0.71979   0.14854   0.39242   0.00000  Uiso   1.00
H274   H     0.76024   0.14722   0.38286   0.00000  Uiso   1.00
H275   H     0.70795   0.12681   0.37051   0.00000  Uiso   1.00
H276   H     0.70502   0.13736   0.42771   0.00000  Uiso   1.00
O277   O     0.84133   0.23856   0.08296   0.00000  Uiso   1.00
C278   C     0.81860   0.27699   0.08250   0.00000  Uiso   1.00
H279   H     0.78447   0.27365   0.07291   0.00000  Uiso   1.00
H280   H     0.84396   0.29941   0.05976   0.00000  Uiso   1.00
H281   H     0.80830   0.28989   0.11688   0.00000  Uiso   1.00
O282   O     0.81262   0.20822   0.40572   0.00000  Uiso   1.00
C283   C     0.81654   0.25132   0.39909   0.00000  Uiso   1.00
H284   H     0.84641   0.26457   0.41075   0.00000  Uiso   1.00
H285   H     0.78125   0.26678   0.41602   0.00000  Uiso   1.00
H286   H     0.82567   0.25783   0.36262   0.00000  Uiso   1.00
O287   O     0.95491   0.04286   0.19548   0.00000  Uiso   1.00
C288   C     0.90355   0.04050   0.21373   0.00000  Uiso   1.00
H289   H     0.88704   0.06272   0.19546   0.00000  Uiso   1.00
H290   H     0.89095   0.04913   0.24985   0.00000  Uiso   1.00
H291   H     0.88970   0.00924   0.20929   0.00000  Uiso   1.00
O292   O     0.71247   0.29029   0.30351   0.00000  Uiso   1.00
C293   C     0.76383   0.29266   0.28532   0.00000  Uiso   1.00
H294   H     0.77648   0.28451   0.24906   0.00000  Uiso   1.00
H295   H     0.78028   0.27009   0.30324   0.00000  Uiso   1.00
H296   H     0.77768   0.32379   0.29029   0.00000  Uiso   1.00
O297   O     0.95912   0.29044   0.19241   0.00000  Uiso   1.00
C298   C     0.99615   0.28484   0.15134   0.00000  Uiso   1.00
H299   H     0.98043   0.26783   0.12820   0.00000  Uiso   1.00
H300   H     0.69342   0.26602   0.15577   0.00000  Uiso   1.00
H301   H     0.67687   0.31498   0.13521   0.00000  Uiso   1.00
O302   O     0.70774   0.04244   0.30710   0.00000  Uiso   1.00
C303   C     0.67125   0.04494   0.34897   0.00000  Uiso   1.00
H304   H     0.97570   0.06703   0.34714   0.00000  Uiso   1.00
H305   H     0.68816   0.05645   0.37417   0.00000  Uiso   1.00
H306   H     0.98806   0.01426   0.36124   0.00000  Uiso   1.00
O307   O     0.03958   0.43989   0.25000   0.00000  Uiso   1.00
O308   O     0.29375   0.56011   0.25000   0.00000  Uiso   1.00
O309   O     0.29372   0.43988   0.25001   0.00000  Uiso   1.00
O310   O     0.03961   0.56012   0.24999   0.00000  Uiso   1.00
C311   C     0.33316   0.42080   0.25000   0.00000  Uiso   1.00
C312   C     0.00026   0.57915   0.24982   0.00000  Uiso   1.00
O313   O     0.01852   0.50001   0.31492   0.00000  Uiso   1.00
O314   O     0.31481   0.49999   0.18509   0.00000  Uiso   1.00
O315   O     0.27267   0.50000   0.31492   0.00000  Uiso   1.00
O316   O     0.06067   0.50000   0.18508   0.00000  Uiso   1.00
C317   C     0.30534   0.50101   0.33622   0.00000  Uiso   1.00
C318   C     0.02806   0.50007   0.16373   0.00000  Uiso   1.00
Cu319  Cu    0.04689   0.50001   0.25000   0.00000  Uiso   1.00
Cu320  Cu    0.28645   0.49999   0.25000   0.00000  Uiso   1.00
C321   C     0.28921   0.51017   0.38485   0.00000  Uiso   1.00
C322   C     0.04401   0.50428   0.11421   0.00000  Uiso   1.00
C323   C     0.30448   0.54612   0.44740   0.00000  Uiso   1.00
C324   C     0.02426   0.50979   0.04425   0.00000  Uiso   1.00
C325   C     0.32239   0.52608   0.40614   0.00000  Uiso   1.00
C326   C     0.00917   0.50220   0.09056   0.00000  Uiso   1.00
C327   C     0.23911   0.50842   0.40878   0.00000  Uiso   1.00
C328   C     0.09377   0.51243   0.09070   0.00000  Uiso   1.00
C329   C     0.22117   0.52939   0.45018   0.00000  Uiso   1.00
C330   C     0.10740   0.52490   0.04516   0.00000  Uiso   1.00
C331   C     0.25466   0.54614   0.47040   0.00000  Uiso   1.00
C332   C     0.07243   0.52122   0.02192   0.00000  Uiso   1.00
C333   C     0.17083   0.53228   0.47335   0.00000  Uiso   1.00
C334   C     0.15588   0.53706   0.02054   0.00000  Uiso   1.00
C335   C     0.18919   0.55634   0.03986   0.00000  Uiso   1.00
C336   C     0.13478   0.53334   0.45116   0.00000  Uiso   1.00
C337   C     0.23798   0.56181   0.01400   0.00000  Uiso   1.00
C338   C     0.08624   0.52794   0.47588   0.00000  Uiso   1.00
H339   H     0.26328   0.57642   0.02897   0.00000  Uiso   1.00
H340   H     0.05961   0.52773   0.45861   0.00000  Uiso   1.00
H341   H     0.32926   0.56158   0.46208   0.00000  Uiso   1.00
H342   H     0.33197   0.50573   0.02528   0.00000  Uiso   1.00
C343   C     0.30941   0.35473   0.22319   0.00000  Uiso   1.00
C344   C     0.02466   0.64510   0.27578   0.00000  Uiso   1.00
C345   C     0.31218   0.64502   0.22123   0.00000  Uiso   1.00
C346   C     0.02187   0.35476   0.27780   0.00000  Uiso   1.00
C347   C     0.00112   0.62376   0.24907   0.00000  Uiso   1.00
C348   C     0.33267   0.37612   0.25021   0.00000  Uiso   1.00
C349   C     0.18257   0.47302   0.27644   0.00000  Uiso   1.00
C350   C     0.15075   0.52702   0.22360   0.00000  Uiso   1.00
H351   H     0.19398   0.45138   0.29772   0.00000  Uiso   1.00
H352   H     0.13937   0.54862   0.20228   0.00000  Uiso   1.00
C353   C     0.13313   0.47295   0.27632   0.00000  Uiso   1.00
C354   C     0.20021   0.52710   0.22374   0.00000  Uiso   1.00
H355   H     0.10761   0.45107   0.29727   0.00000  Uiso   1.00
H356   H     0.22582   0.54885   0.20261   0.00000  Uiso   1.00
N357   N     0.11736   0.50001   0.24999   0.00000  Uiso   1.00
N358   N     0.21597   0.49999   0.25001   0.00000  Uiso   1.00
O359   O     0.12931   0.50428   0.11116   0.00000  Uiso   1.00
C360   C     0.14390   0.46278   0.10270   0.00000  Uiso   1.00
H361   H     0.16372   0.45814   0.06654   0.00000  Uiso   1.00
H362   H     0.11229   0.44103   0.11386   0.00000  Uiso   1.00
H363   H     0.16923   0.45498   0.12212   0.00000  Uiso   1.00
O364   O     0.20854   0.48406   0.39251   0.00000  Uiso   1.00
C365   C     0.20444   0.44479   0.41302   0.00000  Uiso   1.00
H366   H     0.18553   0.44662   0.44969   0.00000  Uiso   1.00
H367   H     0.24080   0.43002   0.40684   0.00000  Uiso   1.00
H368   H     0.18208   0.42466   0.39819   0.00000  Uiso   1.00
O369   O     0.29580   0.48729   0.11234   0.00000  Uiso   1.00
C370   C     0.25966   0.51177   0.10275   0.00000  Uiso   1.00
H371   H     0.26895   0.54530   0.10034   0.00000  Uiso   1.00
H372   H     0.22520   0.50804   0.13050   0.00000  Uiso   1.00
H373   H     0.25260   0.50064   0.07177   0.00000  Uiso   1.00
O374   O     0.03907   0.52298   0.38686   0.00000  Uiso   1.00
C375   C     0.05313   0.48188   0.39242   0.00000  Uiso   1.00
H376   H     0.09357   0.48055   0.38286   0.00000  Uiso   1.00
H377   H     0.04129   0.46015   0.37051   0.00000  Uiso   1.00
H378   H     0.03835   0.47069   0.42771   0.00000  Uiso   1.00
O379   O     0.17466   0.57189   0.08296   0.00000  Uiso   1.00
C380   C     0.15194   0.61033   0.08250   0.00000  Uiso   1.00
H381   H     0.11780   0.60698   0.07291   0.00000  Uiso   1.00
H382   H     0.17729   0.63274   0.05976   0.00000  Uiso   1.00
H383   H     0.14163   0.62323   0.11688   0.00000  Uiso   1.00
O384   O     0.14596   0.54155   0.40572   0.00000  Uiso   1.00
C385   C     0.14987   0.58465   0.39909   0.00000  Uiso   1.00
H386   H     0.17974   0.59791   0.41075   0.00000  Uiso   1.00
H387   H     0.11458   0.60012   0.41602   0.00000  Uiso   1.00
H388   H     0.15901   0.59116   0.36262   0.00000  Uiso   1.00
O389   O     0.28825   0.37619   0.19548   0.00000  Uiso   1.00
C390   C     0.23688   0.37384   0.21373   0.00000  Uiso   1.00
H391   H     0.22038   0.39605   0.19546   0.00000  Uiso   1.00
H392   H     0.22428   0.38246   0.24985   0.00000  Uiso   1.00
H393   H     0.22303   0.34257   0.20929   0.00000  Uiso   1.00
O394   O     0.04581   0.62362   0.30351   0.00000  Uiso   1.00
C395   C     0.09717   0.62599   0.28532   0.00000  Uiso   1.00
H396   H     0.10981   0.61784   0.24906   0.00000  Uiso   1.00
H397   H     0.11361   0.60342   0.30324   0.00000  Uiso   1.00
H398   H     0.11101   0.65713   0.29029   0.00000  Uiso   1.00
O399   O     0.29246   0.62377   0.19241   0.00000  Uiso   1.00
C400   C     0.32949   0.61817   0.15134   0.00000  Uiso   1.00
H401   H     0.31377   0.60117   0.12820   0.00000  Uiso   1.00
H402   H     0.02676   0.59936   0.15577   0.00000  Uiso   1.00
H403   H     0.01020   0.64832   0.13521   0.00000  Uiso   1.00
O404   O     0.04107   0.37578   0.30710   0.00000  Uiso   1.00
C405   C     0.00458   0.37827   0.34897   0.00000  Uiso   1.00
H406   H     0.30903   0.40036   0.34714   0.00000  Uiso   1.00
H407   H     0.02150   0.38978   0.37417   0.00000  Uiso   1.00
H408   H     0.32140   0.34759   0.36124   0.00000  Uiso   1.00
O409   O     0.37291   0.43989   0.25000   0.00000  Uiso   1.00
O410   O     0.62709   0.56011   0.25000   0.00000  Uiso   1.00
O411   O     0.62706   0.43988   0.25001   0.00000  Uiso   1.00
O412   O     0.37294   0.56012   0.24999   0.00000  Uiso   1.00
C413   C     0.66649   0.42080   0.25000   0.00000  Uiso   1.00
C414   C     0.33359   0.57915   0.24982   0.00000  Uiso   1.00
O415   O     0.35186   0.50001   0.31492   0.00000  Uiso   1.00
O416   O     0.64814   0.49999   0.18509   0.00000  Uiso   1.00
O417   O     0.60600   0.50000   0.31492   0.00000  Uiso   1.00
O418   O     0.39400   0.50000   0.18508   0.00000  Uiso   1.00
C419   C     0.63867   0.50101   0.33622   0.00000  Uiso   1.00
C420   C     0.36139   0.50007   0.16373   0.00000  Uiso   1.00
Cu421  Cu    0.38022   0.50001   0.25000   0.00000  Uiso   1.00
Cu422  Cu    0.61978   0.49999   0.25000   0.00000  Uiso   1.00
C423   C     0.62255   0.51017   0.38485   0.00000  Uiso   1.00
C424   C     0.37734   0.50428   0.11421   0.00000  Uiso   1.00
C425   C     0.63782   0.54612   0.44740   0.00000  Uiso   1.00
C426   C     0.35759   0.50979   0.04425   0.00000  Uiso   1.00
C427   C     0.65572   0.52608   0.40614   0.00000  Uiso   1.00
C428   C     0.34251   0.50220   0.09056   0.00000  Uiso   1.00
C429   C     0.57244   0.50842   0.40878   0.00000  Uiso   1.00
C430   C     0.42710   0.51243   0.09070   0.00000  Uiso   1.00
C431   C     0.55451   0.52939   0.45018   0.00000  Uiso   1.00
C432   C     0.44073   0.52490   0.04516   0.00000  Uiso   1.00
C433   C     0.58799   0.54614   0.47040   0.00000  Uiso   1.00
C434   C     0.40576   0.52122   0.02192   0.00000  Uiso   1.00
C435   C     0.50416   0.53228   0.47335   0.00000  Uiso   1.00
C436   C     0.48921   0.53706   0.02054   0.00000  Uiso   1.00
C437   C     0.52252   0.55634   0.03986   0.00000  Uiso   1.00
C438   C     0.46812   0.53334   0.45116   0.00000  Uiso   1.00
C439   C     0.57131   0.56181   0.01400   0.00000  Uiso   1.00
C440   C     0.41958   0.52794   0.47588   0.00000  Uiso   1.00
H441   H     0.59662   0.57642   0.02897   0.00000  Uiso   1.00
H442   H     0.39294   0.52773   0.45861   0.00000  Uiso   1.00
H443   H     0.66260   0.56158   0.46208   0.00000  Uiso   1.00
H444   H     0.66531   0.50573   0.02528   0.00000  Uiso   1.00
C445   C     0.64275   0.35473   0.22319   0.00000  Uiso   1.00
C446   C     0.35799   0.64510   0.27578   0.00000  Uiso   1.00
C447   C     0.64551   0.64502   0.22123   0.00000  Uiso   1.00
C448   C     0.35520   0.35476   0.27780   0.00000  Uiso   1.00
C449   C     0.33445   0.62376   0.24907   0.00000  Uiso   1.00
C450   C     0.66600   0.37612   0.25021   0.00000  Uiso   1.00
C451   C     0.51590   0.47302   0.27644   0.00000  Uiso   1.00
C452   C     0.48409   0.52702   0.22360   0.00000  Uiso   1.00
H453   H     0.52731   0.45138   0.29772   0.00000  Uiso   1.00
H454   H     0.47270   0.54862   0.20228   0.00000  Uiso   1.00
C455   C     0.46646   0.47295   0.27632   0.00000  Uiso   1.00
C456   C     0.53354   0.52710   0.22374   0.00000  Uiso   1.00
H457   H     0.44095   0.45107   0.29727   0.00000  Uiso   1.00
H458   H     0.55915   0.54885   0.20261   0.00000  Uiso   1.00
N459   N     0.45069   0.50001   0.24999   0.00000  Uiso   1.00
N460   N     0.54931   0.49999   0.25001   0.00000  Uiso   1.00
O461   O     0.46265   0.50428   0.11116   0.00000  Uiso   1.00
C462   C     0.47723   0.46278   0.10270   0.00000  Uiso   1.00
H463   H     0.49705   0.45814   0.06654   0.00000  Uiso   1.00
H464   H     0.44563   0.44103   0.11386   0.00000  Uiso   1.00
H465   H     0.50257   0.45498   0.12212   0.00000  Uiso   1.00
O466   O     0.54187   0.48406   0.39251   0.00000  Uiso   1.00
C467   C     0.53778   0.44479   0.41302   0.00000  Uiso   1.00
H468   H     0.51886   0.44662   0.44969   0.00000  Uiso   1.00
H469   H     0.57414   0.43002   0.40684   0.00000  Uiso   1.00
H470   H     0.51541   0.42466   0.39819   0.00000  Uiso   1.00
O471   O     0.62913   0.48729   0.11234   0.00000  Uiso   1.00
C472   C     0.59300   0.51177   0.10275   0.00000  Uiso   1.00
H473   H     0.60228   0.54530   0.10034   0.00000  Uiso   1.00
H474   H     0.55853   0.50804   0.13050   0.00000  Uiso   1.00
H475   H     0.58594   0.50064   0.07177   0.00000  Uiso   1.00
O476   O     0.37241   0.52298   0.38686   0.00000  Uiso   1.00
C477   C     0.38646   0.48188   0.39242   0.00000  Uiso   1.00
H478   H     0.42691   0.48055   0.38286   0.00000  Uiso   1.00
H479   H     0.37462   0.46015   0.37051   0.00000  Uiso   1.00
H480   H     0.37169   0.47069   0.42771   0.00000  Uiso   1.00
O481   O     0.50800   0.57189   0.08296   0.00000  Uiso   1.00
C482   C     0.48527   0.61033   0.08250   0.00000  Uiso   1.00
H483   H     0.45114   0.60698   0.07291   0.00000  Uiso   1.00
H484   H     0.51063   0.63274   0.05976   0.00000  Uiso   1.00
H485   H     0.47496   0.62323   0.11688   0.00000  Uiso   1.00
O486   O     0.47929   0.54155   0.40572   0.00000  Uiso   1.00
C487   C     0.48320   0.58465   0.39909   0.00000  Uiso   1.00
H488   H     0.51308   0.59791   0.41075   0.00000  Uiso   1.00
H489   H     0.44792   0.60012   0.41602   0.00000  Uiso   1.00
H490   H     0.49234   0.59116   0.36262   0.00000  Uiso   1.00
O491   O     0.62158   0.37619   0.19548   0.00000  Uiso   1.00
C492   C     0.57022   0.37384   0.21373   0.00000  Uiso   1.00
H493   H     0.55371   0.39605   0.19546   0.00000  Uiso   1.00
H494   H     0.55762   0.38246   0.24985   0.00000  Uiso   1.00
H495   H     0.55636   0.34257   0.20929   0.00000  Uiso   1.00
O496   O     0.37914   0.62362   0.30351   0.00000  Uiso   1.00
C497   C     0.43050   0.62599   0.28532   0.00000  Uiso   1.00
H498   H     0.44315   0.61784   0.24906   0.00000  Uiso   1.00
H499   H     0.44694   0.60342   0.30324   0.00000  Uiso   1.00
H500   H     0.44434   0.65713   0.29029   0.00000  Uiso   1.00
O501   O     0.62579   0.62377   0.19241   0.00000  Uiso   1.00
C502   C     0.66282   0.61817   0.15134   0.00000  Uiso   1.00
H503   H     0.64710   0.60117   0.12820   0.00000  Uiso   1.00
H504   H     0.36009   0.59936   0.15577   0.00000  Uiso   1.00
H505   H     0.34353   0.64832   0.13521   0.00000  Uiso   1.00
O506   O     0.37440   0.37578   0.30710   0.00000  Uiso   1.00
C507   C     0.33792   0.37827   0.34897   0.00000  Uiso   1.00
H508   H     0.64236   0.40036   0.34714   0.00000  Uiso   1.00
H509   H     0.35483   0.38978   0.37417   0.00000  Uiso   1.00
H510   H     0.65473   0.34759   0.36124   0.00000  Uiso   1.00
O511   O     0.70625   0.43989   0.25000   0.00000  Uiso   1.00
O512   O     0.96042   0.56011   0.25000   0.00000  Uiso   1.00
O513   O     0.96039   0.43988   0.25001   0.00000  Uiso   1.00
O514   O     0.70628   0.56012   0.24999   0.00000  Uiso   1.00
C515   C     0.99982   0.42080   0.25000   0.00000  Uiso   1.00
C516   C     0.66692   0.57915   0.24982   0.00000  Uiso   1.00
O517   O     0.68519   0.50001   0.31492   0.00000  Uiso   1.00
O518   O     0.98148   0.49999   0.18509   0.00000  Uiso   1.00
O519   O     0.93933   0.50000   0.31492   0.00000  Uiso   1.00
O520   O     0.72733   0.50000   0.18508   0.00000  Uiso   1.00
C521   C     0.97201   0.50101   0.33622   0.00000  Uiso   1.00
C522   C     0.69473   0.50007   0.16373   0.00000  Uiso   1.00
Cu523  Cu    0.71355   0.50001   0.25000   0.00000  Uiso   1.00
Cu524  Cu    0.95311   0.49999   0.25000   0.00000  Uiso   1.00
C525   C     0.95588   0.51017   0.38485   0.00000  Uiso   1.00
C526   C     0.71067   0.50428   0.11421   0.00000  Uiso   1.00
C527   C     0.97115   0.54612   0.44740   0.00000  Uiso   1.00
C528   C     0.69092   0.50979   0.04425   0.00000  Uiso   1.00
C529   C     0.98905   0.52608   0.40614   0.00000  Uiso   1.00
C530   C     0.67584   0.50220   0.09056   0.00000  Uiso   1.00
C531   C     0.90578   0.50842   0.40878   0.00000  Uiso   1.00
C532   C     0.76044   0.51243   0.09070   0.00000  Uiso   1.00
C533   C     0.88784   0.52939   0.45018   0.00000  Uiso   1.00
C534   C     0.77406   0.52490   0.04516   0.00000  Uiso   1.00
C535   C     0.92132   0.54614   0.47040   0.00000  Uiso   1.00
C536   C     0.73909   0.52122   0.02192   0.00000  Uiso   1.00
C537   C     0.83749   0.53228   0.47335   0.00000  Uiso   1.00
C538   C     0.82254   0.53706   0.02054   0.00000  Uiso   1.00
C539   C     0.85585   0.55634   0.03986   0.00000  Uiso   1.00
C540   C     0.80145   0.53334   0.45116   0.00000  Uiso   1.00
C541   C     0.90465   0.56181   0.01400   0.00000  Uiso   1.00
C542   C     0.75291   0.52794   0.47588   0.00000  Uiso   1.00
H543   H     0.92995   0.57642   0.02897   0.00000  Uiso   1.00
H544   H     0.72627   0.52773   0.45861   0.00000  Uiso   1.00
H545   H     0.99593   0.56158   0.46208   0.00000  Uiso   1.00
H546   H     0.99864   0.50573   0.02528   0.00000  Uiso   1.00
C547   C     0.97608   0.35473   0.22319   0.00000  Uiso   1.00
C548   C     0.69132   0.64510   0.27578   0.00000  Uiso   1.00
C549   C     0.97884   0.64502   0.22123   0.00000  Uiso   1.00
C550   C     0.68854   0.35476   0.27780   0.00000  Uiso   1.00
C551   C     0.66779   0.62376   0.24907   0.00000  Uiso   1.00
C552   C     0.99934   0.37612   0.25021   0.00000  Uiso   1.00
C553   C     0.84923   0.47302   0.27644   0.00000  Uiso   1.00
C554   C     0.81742   0.52702   0.22360   0.00000  Uiso   1.00
H555   H     0.86064   0.45138   0.29772   0.00000  Uiso   1.00
H556   H     0.80603   0.54862   0.20228   0.00000  Uiso   1.00
C557   C     0.79979   0.47295   0.27632   0.00000  Uiso   1.00
C558   C     0.86687   0.52710   0.22374   0.00000  Uiso   1.00
H559   H     0.77428   0.45107   0.29727   0.00000  Uiso   1.00
H560   H     0.89248   0.54885   0.20261   0.00000  Uiso   1.00
N561   N     0.78403   0.50001   0.24999   0.00000  Uiso   1.00
N562   N     0.88264   0.49999   0.25001   0.00000  Uiso   1.00
O563   O     0.79598   0.50428   0.11116   0.00000  Uiso   1.00
C564   C     0.81056   0.46278   0.10270   0.00000  Uiso   1.00
H565   H     0.83038   0.45814   0.06654   0.00000  Uiso   1.00
H566   H     0.77896   0.44103   0.11386   0.00000  Uiso   1.00
H567   H     0.83590   0.45498   0.12212   0.00000  Uiso   1.00
O568   O     0.87521   0.48406   0.39251   0.00000  Uiso   1.00
C569   C     0.87111   0.44479   0.41302   0.00000  Uiso   1.00
H570   H     0.85220   0.44662   0.44969   0.00000  Uiso   1.00
H571   H     0.90747   0.43002   0.40684   0.00000  Uiso   1.00
H572   H     0.84875   0.42466   0.39819   0.00000  Uiso   1.00
O573   O     0.96246   0.48729   0.11234   0.00000  Uiso   1.00
C574   C     0.92633   0.51177   0.10275   0.00000  Uiso   1.00
H575   H     0.93561   0.54530   0.10034   0.00000  Uiso   1.00
H576   H     0.89187   0.50804   0.13050   0.00000  Uiso   1.00
H577   H     0.91927   0.50064   0.07177   0.00000  Uiso   1.00
O578   O     0.70574   0.52298   0.38686   0.00000  Uiso   1.00
C579   C     0.71979   0.48188   0.39242   0.00000  Uiso   1.00
H580   H     0.76024   0.48055   0.38286   0.00000  Uiso   1.00
H581   H     0.70795   0.46015   0.37051   0.00000  Uiso   1.00
H582   H     0.70502   0.47069   0.42771   0.00000  Uiso   1.00
O583   O     0.84133   0.57189   0.08296   0.00000  Uiso   1.00
C584   C     0.81860   0.61033   0.08250   0.00000  Uiso   1.00
H585   H     0.78447   0.60698   0.07291   0.00000  Uiso   1.00
H586   H     0.84396   0.63274   0.05976   0.00000  Uiso   1.00
H587   H     0.80830   0.62323   0.11688   0.00000  Uiso   1.00
O588   O     0.81262   0.54155   0.40572   0.00000  Uiso   1.00
C589   C     0.81654   0.58465   0.39909   0.00000  Uiso   1.00
H590   H     0.84641   0.59791   0.41075   0.00000  Uiso   1.00
H591   H     0.78125   0.60012   0.41602   0.00000  Uiso   1.00
H592   H     0.82567   0.59116   0.36262   0.00000  Uiso   1.00
O593   O     0.95491   0.37619   0.19548   0.00000  Uiso   1.00
C594   C     0.90355   0.37384   0.21373   0.00000  Uiso   1.00
H595   H     0.88704   0.39605   0.19546   0.00000  Uiso   1.00
H596   H     0.89095   0.38246   0.24985   0.00000  Uiso   1.00
H597   H     0.88970   0.34257   0.20929   0.00000  Uiso   1.00
O598   O     0.71247   0.62362   0.30351   0.00000  Uiso   1.00
C599   C     0.76383   0.62599   0.28532   0.00000  Uiso   1.00
H600   H     0.77648   0.61784   0.24906   0.00000  Uiso   1.00
H601   H     0.78028   0.60342   0.30324   0.00000  Uiso   1.00
H602   H     0.77768   0.65713   0.29029   0.00000  Uiso   1.00
O603   O     0.95912   0.62377   0.19241   0.00000  Uiso   1.00
C604   C     0.99615   0.61817   0.15134   0.00000  Uiso   1.00
H605   H     0.98043   0.60117   0.12820   0.00000  Uiso   1.00
H606   H     0.69342   0.59936   0.15577   0.00000  Uiso   1.00
H607   H     0.67687   0.64832   0.13521   0.00000  Uiso   1.00
O608   O     0.70774   0.37578   0.30710   0.00000  Uiso   1.00
C609   C     0.67125   0.37827   0.34897   0.00000  Uiso   1.00
H610   H     0.97570   0.40036   0.34714   0.00000  Uiso   1.00
H611   H     0.68816   0.38978   0.37417   0.00000  Uiso   1.00
H612   H     0.98806   0.34759   0.36124   0.00000  Uiso   1.00
O613   O     0.03958   0.77322   0.25000   0.00000  Uiso   1.00
O614   O     0.29375   0.89345   0.25000   0.00000  Uiso   1.00
O615   O     0.29372   0.77321   0.25001   0.00000  Uiso   1.00
O616   O     0.03961   0.89346   0.24999   0.00000  Uiso   1.00
C617   C     0.33316   0.75414   0.25000   0.00000  Uiso   1.00
C618   C     0.00026   0.91249   0.24982   0.00000  Uiso   1.00
O619   O     0.01852   0.83334   0.31492   0.00000  Uiso   1.00
O620   O     0.31481   0.83332   0.18509   0.00000  Uiso   1.00
O621   O     0.27267   0.83333   0.31492   0.00000  Uiso   1.00
O622   O     0.06067   0.83333   0.18508   0.00000  Uiso   1.00
C623   C     0.30534   0.83435   0.33622   0.00000  Uiso   1.00
C624   C     0.02806   0.83340   0.16373   0.00000  Uiso   1.00
Cu625  Cu    0.04689   0.83334   0.25000   0.00000  Uiso   1.00
Cu626  Cu    0.28645   0.83333   0.25000   0.00000  Uiso   1.00
C627   C     0.28921   0.84351   0.38485   0.00000  Uiso   1.00
C628   C     0.04401   0.83761   0.11421   0.00000  Uiso   1.00
C629   C     0.30448   0.87945   0.44740   0.00000  Uiso   1.00
C630   C     0.02426   0.84312   0.04425   0.00000  Uiso   1.00
C631   C     0.32239   0.85941   0.40614   0.00000  Uiso   1.00
C632   C     0.00917   0.83554   0.09056   0.00000  Uiso   1.00
C633   C     0.23911   0.84175   0.40878   0.00000  Uiso   1.00
C634   C     0.09377   0.84576   0.09070   0.00000  Uiso   1.00
C635   C     0.22117   0.86272   0.45018   0.00000  Uiso   1.00
C636   C     0.10740   0.85824   0.04516   0.00000  Uiso   1.00
C637   C     0.25466   0.87948   0.47040   0.00000  Uiso   1.00
C638   C     0.07243   0.85456   0.02192   0.00000  Uiso   1.00
C639   C     0.17083   0.86562   0.47335   0.00000  Uiso   1.00
C640   C     0.15588   0.87039   0.02054   0.00000  Uiso   1.00
C641   C     0.18919   0.88967   0.03986   0.00000  Uiso   1.00
C642   C     0.13478   0.86667   0.45116   0.00000  Uiso   1.00
C643   C     0.23798   0.89515   0.01400   0.00000  Uiso   1.00
C644   C     0.08624   0.86128   0.47588   0.00000  Uiso   1.00
H645   H     0.26328   0.90976   0.02897   0.00000  Uiso   1.00
H646   H     0.05961   0.86106   0.45861   0.00000  Uiso   1.00
H647   H     0.32926   0.89491   0.46208   0.00000  Uiso   1.00
H648   H     0.33197   0.83907   0.02528   0.00000  Uiso   1.00
C649   C     0.30941   0.68806   0.22319   0.00000  Uiso   1.00
C650   C     0.02466   0.97844   0.27578   0.00000  Uiso   1.00
C651   C     0.31218   0.97835   0.22123   0.00000  Uiso   1.00
C652   C     0.02187   0.68810   0.27780   0.00000  Uiso   1.00
C653   C     0.00112   0.95709   0.24907   0.00000  Uiso   1.00
C654   C     0.33267   0.70945   0.25021   0.00000  Uiso   1.00
C655   C     0.18257   0.80636   0.27644   0.00000  Uiso   1.00
C656   C     0.15075   0.86035   0.22360   0.00000  Uiso   1.00
H657   H     0.19398   0.78472   0.29772   0.00000  Uiso   1.00
H658   H     0.13937   0.88196   0.20228   0.00000  Uiso   1.00
C659   C     0.13313   0.80628   0.27632   0.00000  Uiso   1.00
C660   C     0.20021   0.86043   0.22374   0.00000  Uiso   1.00
H661   H     0.10761   0.78440   0.29727   0.00000  Uiso   1.00
H662   H     0.22582   0.88218   0.20261   0.00000  Uiso   1.00
N663   N     0.11736   0.83334   0.24999   0.00000  Uiso   1.00
N664   N     0.21597   0.83332   0.25001   0.00000  Uiso   1.00
O665   O     0.12931   0.83762   0.11116   0.00000  Uiso   1.00
C666   C     0.14390   0.79611   0.10270   0.00000  Uiso   1.00
H667   H     0.16372   0.79148   0.06654   0.00000  Uiso   1.00
H668   H     0.11229   0.77437   0.11386   0.00000  Uiso   1.00
H669   H     0.16923   0.78831   0.12212   0.00000  Uiso   1.00
O670   O     0.20854   0.81739   0.39251   0.00000  Uiso   1.00
C671   C     0.20444   0.77812   0.41302   0.00000  Uiso   1.00
H672   H     0.18553   0.77995   0.44969   0.00000  Uiso   1.00
H673   H     0.24080   0.76335   0.40684   0.00000  Uiso   1.00
H674   H     0.18208   0.75800   0.39819   0.00000  Uiso   1.00
O675   O     0.29580   0.82062   0.11234   0.00000  Uiso   1.00
C676   C     0.25966   0.84510   0.10275   0.00000  Uiso   1.00
H677   H     0.26895   0.87863   0.10034   0.00000  Uiso   1.00
H678   H     0.22520   0.84137   0.13050   0.00000  Uiso   1.00
H679   H     0.25260   0.83397   0.07177   0.00000  Uiso   1.00
O680   O     0.03907   0.85631   0.38686   0.00000  Uiso   1.00
C681   C     0.05313   0.81521   0.39242   0.00000  Uiso   1.00
H682   H     0.09357   0.81389   0.38286   0.00000  Uiso   1.00
H683   H     0.04129   0.79348   0.37051   0.00000  Uiso   1.00
H684   H     0.03835   0.80403   0.42771   0.00000  Uiso   1.00
O685   O     0.17466   0.90523   0.08296   0.00000  Uiso   1.00
C686   C     0.15194   0.94366   0.08250   0.00000  Uiso   1.00
H687   H     0.11780   0.94032   0.07291   0.00000  Uiso   1.00
H688   H     0.17729   0.96608   0.05976   0.00000  Uiso   1.00
H689   H     0.14163   0.95656   0.11688   0.00000  Uiso   1.00
O690   O     0.14596   0.87489   0.40572   0.00000  Uiso   1.00
C691   C     0.14987   0.91799   0.39909   0.00000  Uiso   1.00
H692   H     0.17974   0.93124   0.41075   0.00000  Uiso   1.00
H693   H     0.11458   0.93345   0.41602   0.00000  Uiso   1.00
H694   H     0.15901   0.92450   0.36262   0.00000  Uiso   1.00
O695   O     0.28825   0.70953   0.19548   0.00000  Uiso   1.00
C696   C     0.23688   0.70717   0.21373   0.00000  Uiso   1.00
H697   H     0.22038   0.72938   0.19546   0.00000  Uiso   1.00
H698   H     0.22428   0.71580   0.24985   0.00000  Uiso   1.00
H699   H     0.22303   0.67590   0.20929   0.00000  Uiso   1.00
O700   O     0.04581   0.95695   0.30351   0.00000  Uiso   1.00
C701   C     0.09717   0.95933   0.28532   0.00000  Uiso   1.00
H702   H     0.10981   0.95117   0.24906   0.00000  Uiso   1.00
H703   H     0.11361   0.93675   0.30324   0.00000  Uiso   1.00
H704   H     0.11101   0.99046   0.29029   0.00000  Uiso   1.00
O705   O     0.29246   0.95711   0.19241   0.00000  Uiso   1.00
C706   C     0.32949   0.95151   0.15134   0.00000  Uiso   1.00
H707   H     0.31377   0.93450   0.12820   0.00000  Uiso   1.00
H708   H     0.02676   0.93269   0.15577   0.00000  Uiso   1.00
H709   H     0.01020   0.98165   0.13521   0.00000  Uiso   1.00
O710   O     0.04107   0.70911   0.30710   0.00000  Uiso   1.00
C711   C     0.00458   0.71160   0.34897   0.00000  Uiso   1.00
H712   H     0.30903   0.73370   0.34714   0.00000  Uiso   1.00
H713   H     0.02150   0.72312   0.37417   0.00000  Uiso   1.00
H714   H     0.32140   0.68092   0.36124   0.00000  Uiso   1.00
O715   O     0.37291   0.77322   0.25000   0.00000  Uiso   1.00
O716   O     0.62709   0.89345   0.25000   0.00000  Uiso   1.00
O717   O     0.62706   0.77321   0.25001   0.00000  Uiso   1.00
O718   O     0.37294   0.89346   0.24999   0.00000  Uiso   1.00
C719   C     0.66649   0.75414   0.25000   0.00000  Uiso   1.00
C720   C     0.33359   0.91249   0.24982   0.00000  Uiso   1.00
O721   O     0.35186   0.83334   0.31492   0.00000  Uiso   1.00
O722   O     0.64814   0.83332   0.18509   0.00000  Uiso   1.00
O723   O     0.60600   0.83333   0.31492   0.00000  Uiso   1.00
O724   O     0.39400   0.83333   0.18508   0.00000  Uiso   1.00
C725   C     0.63867   0.83435   0.33622   0.00000  Uiso   1.00
C726   C     0.36139   0.83340   0.16373   0.00000  Uiso   1.00
Cu727  Cu    0.38022   0.83334   0.25000   0.00000  Uiso   1.00
Cu728  Cu    0.61978   0.83333   0.25000   0.00000  Uiso   1.00
C729   C     0.62255   0.84351   0.38485   0.00000  Uiso   1.00
C730   C     0.37734   0.83761   0.11421   0.00000  Uiso   1.00
C731   C     0.63782   0.87945   0.44740   0.00000  Uiso   1.00
C732   C     0.35759   0.84312   0.04425   0.00000  Uiso   1.00
C733   C     0.65572   0.85941   0.40614   0.00000  Uiso   1.00
C734   C     0.34251   0.83554   0.09056   0.00000  Uiso   1.00
C735   C     0.57244   0.84175   0.40878   0.00000  Uiso   1.00
C736   C     0.42710   0.84576   0.09070   0.00000  Uiso   1.00
C737   C     0.55451   0.86272   0.45018   0.00000  Uiso   1.00
C738   C     0.44073   0.85824   0.04516   0.00000  Uiso   1.00
C739   C     0.58799   0.87948   0.47040   0.00000  Uiso   1.00
C740   C     0.40576   0.85456   0.02192   0.00000  Uiso   1.00
C741   C     0.50416   0.86562   0.47335   0.00000  Uiso   1.00
C742   C     0.48921   0.87039   0.02054   0.00000  Uiso   1.00
C743   C     0.52252   0.88967   0.03986   0.00000  Uiso   1.00
C744   C     0.46812   0.86667   0.45116   0.00000  Uiso   1.00
C745   C     0.57131   0.89515   0.01400   0.00000  Uiso   1.00
C746   C     0.41958   0.86128   0.47588   0.00000  Uiso   1.00
H747   H     0.59662   0.90976   0.02897   0.00000  Uiso   1.00
H748   H     0.39294   0.86106   0.45861   0.00000  Uiso   1.00
H749   H     0.66260   0.89491   0.46208   0.00000  Uiso   1.00
H750   H     0.66531   0.83907   0.02528   0.00000  Uiso   1.00
C751   C     0.64275   0.68806   0.22319   0.00000  Uiso   1.00
C752   C     0.35799   0.97844   0.27578   0.00000  Uiso   1.00
C753   C     0.64551   0.97835   0.22123   0.00000  Uiso   1.00
C754   C     0.35520   0.68810   0.27780   0.00000  Uiso   1.00
C755   C     0.33445   0.95709   0.24907   0.00000  Uiso   1.00
C756   C     0.66600   0.70945   0.25021   0.00000  Uiso   1.00
C757   C     0.51590   0.80636   0.27644   0.00000  Uiso   1.00
C758   C     0.48409   0.86035   0.22360   0.00000  Uiso   1.00
H759   H     0.52731   0.78472   0.29772   0.00000  Uiso   1.00
H760   H     0.47270   0.88196   0.20228   0.00000  Uiso   1.00
C761   C     0.46646   0.80628   0.27632   0.00000  Uiso   1.00
C762   C     0.53354   0.86043   0.22374   0.00000  Uiso   1.00
H763   H     0.44095   0.78440   0.29727   0.00000  Uiso   1.00
H764   H     0.55915   0.88218   0.20261   0.00000  Uiso   1.00
N765   N     0.45069   0.83334   0.24999   0.00000  Uiso   1.00
N766   N     0.54931   0.83332   0.25001   0.00000  Uiso   1.00
O767   O     0.46265   0.83762   0.11116   0.00000  Uiso   1.00
C768   C     0.47723   0.79611   0.10270   0.00000  Uiso   1.00
H769   H     0.49705   0.79148   0.06654   0.00000  Uiso   1.00
H770   H     0.44563   0.77437   0.11386   0.00000  Uiso   1.00
H771   H     0.50257   0.78831   0.12212   0.00000  Uiso   1.00
O772   O     0.54187   0.81739   0.39251   0.00000  Uiso   1.00
C773   C     0.53778   0.77812   0.41302   0.00000  Uiso   1.00
H774   H     0.51886   0.77995   0.44969   0.00000  Uiso   1.00
H775   H     0.57414   0.76335   0.40684   0.00000  Uiso   1.00
H776   H     0.51541   0.75800   0.39819   0.00000  Uiso   1.00
O777   O     0.62913   0.82062   0.11234   0.00000  Uiso   1.00
C778   C     0.59300   0.84510   0.10275   0.00000  Uiso   1.00
H779   H     0.60228   0.87863   0.10034   0.00000  Uiso   1.00
H780   H     0.55853   0.84137   0.13050   0.00000  Uiso   1.00
H781   H     0.58594   0.83397   0.07177   0.00000  Uiso   1.00
O782   O     0.37241   0.85631   0.38686   0.00000  Uiso   1.00
C783   C     0.38646   0.81521   0.39242   0.00000  Uiso   1.00
H784   H     0.42691   0.81389   0.38286   0.00000  Uiso   1.00
H785   H     0.37462   0.79348   0.37051   0.00000  Uiso   1.00
H786   H     0.37169   0.80403   0.42771   0.00000  Uiso   1.00
O787   O     0.50800   0.90523   0.08296   0.00000  Uiso   1.00
C788   C     0.48527   0.94366   0.08250   0.00000  Uiso   1.00
H789   H     0.45114   0.94032   0.07291   0.00000  Uiso   1.00
H790   H     0.51063   0.96608   0.05976   0.00000  Uiso   1.00
H791   H     0.47496   0.95656   0.11688   0.00000  Uiso   1.00
O792   O     0.47929   0.87489   0.40572   0.00000  Uiso   1.00
C793   C     0.48320   0.91799   0.39909   0.00000  Uiso   1.00
H794   H     0.51308   0.93124   0.41075   0.00000  Uiso   1.00
H795   H     0.44792   0.93345   0.41602   0.00000  Uiso   1.00
H796   H     0.49234   0.92450   0.36262   0.00000  Uiso   1.00
O797   O     0.62158   0.70953   0.19548   0.00000  Uiso   1.00
C798   C     0.57022   0.70717   0.21373   0.00000  Uiso   1.00
H799   H     0.55371   0.72938   0.19546   0.00000  Uiso   1.00
H800   H     0.55762   0.71580   0.24985   0.00000  Uiso   1.00
H801   H     0.55636   0.67590   0.20929   0.00000  Uiso   1.00
O802   O     0.37914   0.95695   0.30351   0.00000  Uiso   1.00
C803   C     0.43050   0.95933   0.28532   0.00000  Uiso   1.00
H804   H     0.44315   0.95117   0.24906   0.00000  Uiso   1.00
H805   H     0.44694   0.93675   0.30324   0.00000  Uiso   1.00
H806   H     0.44434   0.99046   0.29029   0.00000  Uiso   1.00
O807   O     0.62579   0.95711   0.19241   0.00000  Uiso   1.00
C808   C     0.66282   0.95151   0.15134   0.00000  Uiso   1.00
H809   H     0.64710   0.93450   0.12820   0.00000  Uiso   1.00
H810   H     0.36009   0.93269   0.15577   0.00000  Uiso   1.00
H811   H     0.34353   0.98165   0.13521   0.00000  Uiso   1.00
O812   O     0.37440   0.70911   0.30710   0.00000  Uiso   1.00
C813   C     0.33792   0.71160   0.34897   0.00000  Uiso   1.00
H814   H     0.64236   0.73370   0.34714   0.00000  Uiso   1.00
H815   H     0.35483   0.72312   0.37417   0.00000  Uiso   1.00
H816   H     0.65473   0.68092   0.36124   0.00000  Uiso   1.00
O817   O     0.70625   0.77322   0.25000   0.00000  Uiso   1.00
O818   O     0.96042   0.89345   0.25000   0.00000  Uiso   1.00
O819   O     0.96039   0.77321   0.25001   0.00000  Uiso   1.00
O820   O     0.70628   0.89346   0.24999   0.00000  Uiso   1.00
C821   C     0.99982   0.75414   0.25000   0.00000  Uiso   1.00
C822   C     0.66692   0.91249   0.24982   0.00000  Uiso   1.00
O823   O     0.68519   0.83334   0.31492   0.00000  Uiso   1.00
O824   O     0.98148   0.83332   0.18509   0.00000  Uiso   1.00
O825   O     0.93933   0.83333   0.31492   0.00000  Uiso   1.00
O826   O     0.72733   0.83333   0.18508   0.00000  Uiso   1.00
C827   C     0.97201   0.83435   0.33622   0.00000  Uiso   1.00
C828   C     0.69473   0.83340   0.16373   0.00000  Uiso   1.00
Cu829  Cu    0.71355   0.83334   0.25000   0.00000  Uiso   1.00
Cu830  Cu    0.95311   0.83333   0.25000   0.00000  Uiso   1.00
C831   C     0.95588   0.84351   0.38485   0.00000  Uiso   1.00
C832   C     0.71067   0.83761   0.11421   0.00000  Uiso   1.00
C833   C     0.97115   0.87945   0.44740   0.00000  Uiso   1.00
C834   C     0.69092   0.84312   0.04425   0.00000  Uiso   1.00
C835   C     0.98905   0.85941   0.40614   0.00000  Uiso   1.00
C836   C     0.67584   0.83554   0.09056   0.00000  Uiso   1.00
C837   C     0.90578   0.84175   0.40878   0.00000  Uiso   1.00
C838   C     0.76044   0.84576   0.09070   0.00000  Uiso   1.00
C839   C     0.88784   0.86272   0.45018   0.00000  Uiso   1.00
C840   C     0.77406   0.85824   0.04516   0.00000  Uiso   1.00
C841   C     0.92132   0.87948   0.47040   0.00000  Uiso   1.00
C842   C     0.73909   0.85456   0.02192   0.00000  Uiso   1.00
C843   C     0.83749   0.86562   0.47335   0.00000  Uiso   1.00
C844   C     0.82254   0.87039   0.02054   0.00000  Uiso   1.00
C845   C     0.85585   0.88967   0.03986   0.00000  Uiso   1.00
C846   C     0.80145   0.86667   0.45116   0.00000  Uiso   1.00
C847   C     0.90465   0.89515   0.01400   0.00000  Uiso   1.00
C848   C     0.75291   0.86128   0.47588   0.00000  Uiso   1.00
H849   H     0.92995   0.90976   0.02897   0.00000  Uiso   1.00
H850   H     0.72627   0.86106   0.45861   0.00000  Uiso   1.00
H851   H     0.99593   0.89491   0.46208   0.00000  Uiso   1.00
H852   H     0.99864   0.83907   0.02528   0.00000  Uiso   1.00
C853   C     0.97608   0.68806   0.22319   0.00000  Uiso   1.00
C854   C     0.69132   0.97844   0.27578   0.00000  Uiso   1.00
C855   C     0.97884   0.97835   0.22123   0.00000  Uiso   1.00
C856   C     0.68854   0.68810   0.27780   0.00000  Uiso   1.00
C857   C     0.66779   0.95709   0.24907   0.00000  Uiso   1.00
C858   C     0.99934   0.70945   0.25021   0.00000  Uiso   1.00
C859   C     0.84923   0.80636   0.27644   0.00000  Uiso   1.00
C860   C     0.81742   0.86035   0.22360   0.00000  Uiso   1.00
H861   H     0.86064   0.78472   0.29772   0.00000  Uiso   1.00
H862   H     0.80603   0.88196   0.20228   0.00000  Uiso   1.00
C863   C     0.79979   0.80628   0.27632   0.00000  Uiso   1.00
C864   C     0.86687   0.86043   0.22374   0.00000  Uiso   1.00
H865   H     0.77428   0.78440   0.29727   0.00000  Uiso   1.00
H866   H     0.89248   0.88218   0.20261   0.00000  Uiso   1.00
N867   N     0.78403   0.83334   0.24999   0.00000  Uiso   1.00
N868   N     0.88264   0.83332   0.25001   0.00000  Uiso   1.00
O869   O     0.79598   0.83762   0.11116   0.00000  Uiso   1.00
C870   C     0.81056   0.79611   0.10270   0.00000  Uiso   1.00
H871   H     0.83038   0.79148   0.06654   0.00000  Uiso   1.00
H872   H     0.77896   0.77437   0.11386   0.00000  Uiso   1.00
H873   H     0.83590   0.78831   0.12212   0.00000  Uiso   1.00
O874   O     0.87521   0.81739   0.39251   0.00000  Uiso   1.00
C875   C     0.87111   0.77812   0.41302   0.00000  Uiso   1.00
H876   H     0.85220   0.77995   0.44969   0.00000  Uiso   1.00
H877   H     0.90747   0.76335   0.40684   0.00000  Uiso   1.00
H878   H     0.84875   0.75800   0.39819   0.00000  Uiso   1.00
O879   O     0.96246   0.82062   0.11234   0.00000  Uiso   1.00
C880   C     0.92633   0.84510   0.10275   0.00000  Uiso   1.00
H881   H     0.93561   0.87863   0.10034   0.00000  Uiso   1.00
H882   H     0.89187   0.84137   0.13050   0.00000  Uiso   1.00
H883   H     0.91927   0.83397   0.07177   0.00000  Uiso   1.00
O884   O     0.70574   0.85631   0.38686   0.00000  Uiso   1.00
C885   C     0.71979   0.81521   0.39242   0.00000  Uiso   1.00
H886   H     0.76024   0.81389   0.38286   0.00000  Uiso   1.00
H887   H     0.70795   0.79348   0.37051   0.00000  Uiso   1.00
H888   H     0.70502   0.80403   0.42771   0.00000  Uiso   1.00
O889   O     0.84133   0.90523   0.08296   0.00000  Uiso   1.00
C890   C     0.81860   0.94366   0.08250   0.00000  Uiso   1.00
H891   H     0.78447   0.94032   0.07291   0.00000  Uiso   1.00
H892   H     0.84396   0.96608   0.05976   0.00000  Uiso   1.00
H893   H     0.80830   0.95656   0.11688   0.00000  Uiso   1.00
O894   O     0.81262   0.87489   0.40572   0.00000  Uiso   1.00
C895   C     0.81654   0.91799   0.39909   0.00000  Uiso   1.00
H896   H     0.84641   0.93124   0.41075   0.00000  Uiso   1.00
H897   H     0.78125   0.93345   0.41602   0.00000  Uiso   1.00
H898   H     0.82567   0.92450   0.36262   0.00000  Uiso   1.00
O899   O     0.95491   0.70953   0.19548   0.00000  Uiso   1.00
C900   C     0.90355   0.70717   0.21373   0.00000  Uiso   1.00
H901   H     0.88704   0.72938   0.19546   0.00000  Uiso   1.00
H902   H     0.89095   0.71580   0.24985   0.00000  Uiso   1.00
H903   H     0.88970   0.67590   0.20929   0.00000  Uiso   1.00
O904   O     0.71247   0.95695   0.30351   0.00000  Uiso   1.00
C905   C     0.76383   0.95933   0.28532   0.00000  Uiso   1.00
H906   H     0.77648   0.95117   0.24906   0.00000  Uiso   1.00
H907   H     0.78028   0.93675   0.30324   0.00000  Uiso   1.00
H908   H     0.77768   0.99046   0.29029   0.00000  Uiso   1.00
O909   O     0.95912   0.95711   0.19241   0.00000  Uiso   1.00
C910   C     0.99615   0.95151   0.15134   0.00000  Uiso   1.00
H911   H     0.98043   0.93450   0.12820   0.00000  Uiso   1.00
H912   H     0.69342   0.93269   0.15577   0.00000  Uiso   1.00
H913   H     0.67687   0.98165   0.13521   0.00000  Uiso   1.00
O914   O     0.70774   0.70911   0.30710   0.00000  Uiso   1.00
C915   C     0.67125   0.71160   0.34897   0.00000  Uiso   1.00
H916   H     0.97570   0.73370   0.34714   0.00000  Uiso   1.00
H917   H     0.68816   0.72312   0.37417   0.00000  Uiso   1.00
H918   H     0.98806   0.68092   0.36124   0.00000  Uiso   1.00
O919   O     0.03958   0.10655   0.75000   0.00000  Uiso   1.00
O920   O     0.29375   0.22678   0.75000   0.00000  Uiso   1.00
O921   O     0.29372   0.10654   0.75001   0.00000  Uiso   1.00
O922   O     0.03961   0.22679   0.74999   0.00000  Uiso   1.00
C923   C     0.33316   0.08747   0.75000   0.00000  Uiso   1.00
C924   C     0.00026   0.24582   0.74982   0.00000  Uiso   1.00
O925   O     0.01852   0.16668   0.81492   0.00000  Uiso   1.00
O926   O     0.31481   0.16666   0.68509   0.00000  Uiso   1.00
O927   O     0.27267   0.16667   0.81492   0.00000  Uiso   1.00
O928   O     0.06067   0.16667   0.68508   0.00000  Uiso   1.00
C929   C     0.30534   0.16768   0.83622   0.00000  Uiso   1.00
C930   C     0.02806   0.16674   0.66373   0.00000  Uiso   1.00
Cu931  Cu    0.04689   0.16667   0.75000   0.00000  Uiso   1.00
Cu932  Cu    0.28645   0.16666   0.75000   0.00000  Uiso   1.00
C933   C     0.28921   0.17684   0.88485   0.00000  Uiso   1.00
C934   C     0.04401   0.17094   0.61421   0.00000  Uiso   1.00
C935   C     0.30448   0.21279   0.94740   0.00000  Uiso   1.00
C936   C     0.02426   0.17645   0.54425   0.00000  Uiso   1.00
C937   C     0.32239   0.19274   0.90614   0.00000  Uiso   1.00
C938   C     0.00917   0.16887   0.59056   0.00000  Uiso   1.00
C939   C     0.23911   0.17509   0.90878   0.00000  Uiso   1.00
C940   C     0.09377   0.17910   0.59070   0.00000  Uiso   1.00
C941   C     0.22117   0.19605   0.95018   0.00000  Uiso   1.00
C942   C     0.10740   0.19157   0.54516   0.00000  Uiso   1.00
C943   C     0.25466   0.21281   0.97040   0.00000  Uiso   1.00
C944   C     0.07243   0.18789   0.52192   0.00000  Uiso   1.00
C945   C     0.17083   0.19895   0.97335   0.00000  Uiso   1.00
C946   C     0.15588   0.20373   0.52054   0.00000  Uiso   1.00
C947   C     0.18919   0.22301   0.53986   0.00000  Uiso   1.00
C948   C     0.13478   0.20000   0.95116   0.00000  Uiso   1.00
C949   C     0.23798   0.22848   0.51400   0.00000  Uiso   1.00
C950   C     0.08624   0.19461   0.97588   0.00000  Uiso   1.00
H951   H     0.26328   0.24309   0.52897   0.00000  Uiso   1.00
H952   H     0.05961   0.19440   0.95861   0.00000  Uiso   1.00
H953   H     0.32926   0.22824   0.96208   0.00000  Uiso   1.00
H954   H     0.33197   0.17240   0.52528   0.00000  Uiso   1.00
C955   C     0.30941   0.02139   0.72319   0.00000  Uiso   1.00
C956   C     0.02466   0.31177   0.77578   0.00000  Uiso   1.00
C957   C     0.31218   0.31169   0.72123   0.00000  Uiso   1.00
C958   C     0.02187   0.02143   0.77780   0.00000  Uiso   1.00
C959   C     0.00112   0.29042   0.74907   0.00000  Uiso   1.00
C960   C     0.33267   0.04279   0.75021   0.00000  Uiso   1.00
C961   C     0.18257   0.13969   0.77644   0.00000  Uiso   1.00
C962   C     0.15075   0.19369   0.72360   0.00000  Uiso   1.00
H963   H     0.19398   0.11805   0.79772   0.00000  Uiso   1.00
H964   H     0.13937   0.21529   0.70228   0.00000  Uiso   1.00
C965   C     0.13313   0.13961   0.77632   0.00000  Uiso   1.00
C966   C     0.20021   0.19377   0.72374   0.00000  Uiso   1.00
H967   H     0.10761   0.11773   0.79727   0.00000  Uiso   1.00
H968   H     0.22582   0.21552   0.70261   0.00000  Uiso   1.00
N969   N     0.11736   0.16668   0.74999   0.00000  Uiso   1.00
N970   N     0.21597   0.16666   0.75001   0.00000  Uiso   1.00
O971   O     0.12931   0.17095   0.61116   0.00000  Uiso   1.00
C972   C     0.14390   0.12945   0.60270   0.00000  Uiso   1.00
H973   H     0.16372   0.12481   0.56654   0.00000  Uiso   1.00
H974   H     0.11229   0.10770   0.61386   0.00000  Uiso   1.00
H975   H     0.16923   0.12164   0.62212   0.00000  Uiso   1.00
O976   O     0.20854   0.15072   0.89251   0.00000  Uiso   1.00
C977   C     0.20444   0.11146   0.91302   0.00000  Uiso   1.00
H978   H     0.18553   0.11328   0.94969   0.00000  Uiso   1.00
H979   H     0.24080   0.09669   0.90684   0.00000  Uiso   1.00
H980   H     0.18208   0.09133   0.89819   0.00000  Uiso   1.00
O981   O     0.29580   0.15396   0.61234   0.00000  Uiso   1.00
C982   C     0.25966   0.17843   0.60275   0.00000  Uiso   1.00
H983   H     0.26895   0.21197   0.60034   0.00000  Uiso   1.00
H984   H     0.22520   0.17471   0.63050   0.00000  Uiso   1.00
H985   H     0.25260   0.16731   0.57177   0.00000  Uiso   1.00
O986   O     0.03907   0.18965   0.88686   0.00000  Uiso   1.00
C987   C     0.05313   0.14854   0.89242   0.00000  Uiso   1.00
H988   H     0.09357   0.14722   0.88286   0.00000  Uiso   1.00
H989   H     0.04129   0.12681   0.87051   0.00000  Uiso   1.00
H990   H     0.03835   0.13736   0.92771   0.00000  Uiso   1.00
O991   O     0.17466   0.23856   0.58296   0.00000  Uiso   1.00
C992   C     0.15194   0.27699   0.58250   0.00000  Uiso   1.00
H993   H     0.11780   0.27365   0.57291   0.00000  Uiso   1.00
H994   H     0.17729   0.29941   0.55976   0.00000  Uiso   1.00
H995   H     0.14163   0.28989   0.61688   0.00000  Uiso   1.00
O996   O     0.14596   0.20822   0.90572   0.00000  Uiso   1.00
C997   C     0.14987   0.25132   0.89909   0.00000  Uiso   1.00
H998   H     0.17974   0.26457   0.91075   0.00000  Uiso   1.00
H999   H     0.11458   0.26678   0.91602   0.00000  Uiso   1.00
H1000  H     0.15901   0.25783   0.86262   0.00000  Uiso   1.00
O1001  O     0.28825   0.04286   0.69548   0.00000  Uiso   1.00
C1002  C     0.23688   0.04050   0.71373   0.00000  Uiso   1.00
H1003  H     0.22038   0.06272   0.69546   0.00000  Uiso   1.00
H1004  H     0.22428   0.04913   0.74985   0.00000  Uiso   1.00
H1005  H     0.22303   0.00924   0.70929   0.00000  Uiso   1.00
O1006  O     0.04581   0.29029   0.80351   0.00000  Uiso   1.00
C1007  C     0.09717   0.29266   0.78532   0.00000  Uiso   1.00
H1008  H     0.10981   0.28451   0.74906   0.00000  Uiso   1.00
H1009  H     0.11361   0.27009   0.80324   0.00000  Uiso   1.00
H1010  H     0.11101   0.32379   0.79029   0.00000  Uiso   1.00
O1011  O     0.29246   0.29044   0.69241   0.00000  Uiso   1.00
C1012  C     0.32949   0.28484   0.65134   0.00000  Uiso   1.00
H1013  H     0.31377   0.26783   0.62820   0.00000  Uiso   1.00
H1014  H     0.02676   0.26602   0.65577   0.00000  Uiso   1.00
H1015  H     0.01020   0.31498   0.63521   0.00000  Uiso   1.00
O1016  O     0.04107   0.04244   0.80710   0.00000  Uiso   1.00
C1017  C     0.00458   0.04494   0.84897   0.00000  Uiso   1.00
H1018  H     0.30903   0.06703   0.84714   0.00000  Uiso   1.00
H1019  H     0.02150   0.05645   0.87417   0.00000  Uiso   1.00
H1020  H     0.32140   0.01426   0.86124   0.00000  Uiso   1.00
O1021  O     0.37291   0.10655   0.75000   0.00000  Uiso   1.00
O1022  O     0.62709   0.22678   0.75000   0.00000  Uiso   1.00
O1023  O     0.62706   0.10654   0.75001   0.00000  Uiso   1.00
O1024  O     0.37294   0.22679   0.74999   0.00000  Uiso   1.00
C1025  C     0.66649   0.08747   0.75000   0.00000  Uiso   1.00
C1026  C     0.33359   0.24582   0.74982   0.00000  Uiso   1.00
O1027  O     0.35186   0.16668   0.81492   0.00000  Uiso   1.00
O1028  O     0.64814   0.16666   0.68509   0.00000  Uiso   1.00
O1029  O     0.60600   0.16667   0.81492   0.00000  Uiso   1.00
O1030  O     0.39400   0.16667   0.68508   0.00000  Uiso   1.00
C1031  C     0.63867   0.16768   0.83622   0.00000  Uiso   1.00
C1032  C     0.36139   0.16674   0.66373   0.00000  Uiso   1.00
Cu1033 Cu    0.38022   0.16667   0.75000   0.00000  Uiso   1.00
Cu1034 Cu    0.61978   0.16666   0.75000   0.00000  Uiso   1.00
C1035  C     0.62255   0.17684   0.88485   0.00000  Uiso   1.00
C1036  C     0.37734   0.17094   0.61421   0.00000  Uiso   1.00
C1037  C     0.63782   0.21279   0.94740   0.00000  Uiso   1.00
C1038  C     0.35759   0.17645   0.54425   0.00000  Uiso   1.00
C1039  C     0.65572   0.19274   0.90614   0.00000  Uiso   1.00
C1040  C     0.34251   0.16887   0.59056   0.00000  Uiso   1.00
C1041  C     0.57244   0.17509   0.90878   0.00000  Uiso   1.00
C1042  C     0.42710   0.17910   0.59070   0.00000  Uiso   1.00
C1043  C     0.55451   0.19605   0.95018   0.00000  Uiso   1.00
C1044  C     0.44073   0.19157   0.54516   0.00000  Uiso   1.00
C1045  C     0.58799   0.21281   0.97040   0.00000  Uiso   1.00
C1046  C     0.40576   0.18789   0.52192   0.00000  Uiso   1.00
C1047  C     0.50416   0.19895   0.97335   0.00000  Uiso   1.00
C1048  C     0.48921   0.20373   0.52054   0.00000  Uiso   1.00
C1049  C     0.52252   0.22301   0.53986   0.00000  Uiso   1.00
C1050  C     0.46812   0.20000   0.95116   0.00000  Uiso   1.00
C1051  C     0.57131   0.22848   0.51400   0.00000  Uiso   1.00
C1052  C     0.41958   0.19461   0.97588   0.00000  Uiso   1.00
H1053  H     0.59662   0.24309   0.52897   0.00000  Uiso   1.00
H1054  H     0.39294   0.19440   0.95861   0.00000  Uiso   1.00
H1055  H     0.66260   0.22824   0.96208   0.00000  Uiso   1.00
H1056  H     0.66531   0.17240   0.52528   0.00000  Uiso   1.00
C1057  C     0.64275   0.02139   0.72319   0.00000  Uiso   1.00
C1058  C     0.35799   0.31177   0.77578   0.00000  Uiso   1.00
C1059  C     0.64551   0.31169   0.72123   0.00000  Uiso   1.00
C1060  C     0.35520   0.02143   0.77780   0.00000  Uiso   1.00
C1061  C     0.33445   0.29042   0.74907   0.00000  Uiso   1.00
C1062  C     0.66600   0.04279   0.75021   0.00000  Uiso   1.00
C1063  C     0.51590   0.13969   0.77644   0.00000  Uiso   1.00
C1064  C     0.48409   0.19369   0.72360   0.00000  Uiso   1.00
H1065  H     0.52731   0.11805   0.79772   0.00000  Uiso   1.00
H1066  H     0.47270   0.21529   0.70228   0.00000  Uiso   1.00
C1067  C     0.46646   0.13961   0.77632   0.00000  Uiso   1.00
C1068  C     0.53354   0.19377   0.72374   0.00000  Uiso   1.00
H1069  H     0.44095   0.11773   0.79727   0.00000  Uiso   1.00
H1070  H     0.55915   0.21552   0.70261   0.00000  Uiso   1.00
N1071  N     0.45069   0.16668   0.74999   0.00000  Uiso   1.00
N1072  N     0.54931   0.16666   0.75001   0.00000  Uiso   1.00
O1073  O     0.46265   0.17095   0.61116   0.00000  Uiso   1.00
C1074  C     0.47723   0.12945   0.60270   0.00000  Uiso   1.00
H1075  H     0.49705   0.12481   0.56654   0.00000  Uiso   1.00
H1076  H     0.44563   0.10770   0.61386   0.00000  Uiso   1.00
H1077  H     0.50257   0.12164   0.62212   0.00000  Uiso   1.00
O1078  O     0.54187   0.15072   0.89251   0.00000  Uiso   1.00
C1079  C     0.53778   0.11146   0.91302   0.00000  Uiso   1.00
H1080  H     0.51886   0.11328   0.94969   0.00000  Uiso   1.00
H1081  H     0.57414   0.09669   0.90684   0.00000  Uiso   1.00
H1082  H     0.51541   0.09133   0.89819   0.00000  Uiso   1.00
O1083  O     0.62913   0.15396   0.61234   0.00000  Uiso   1.00
C1084  C     0.59300   0.17843   0.60275   0.00000  Uiso   1.00
H1085  H     0.60228   0.21197   0.60034   0.00000  Uiso   1.00
H1086  H     0.55853   0.17471   0.63050   0.00000  Uiso   1.00
H1087  H     0.58594   0.16731   0.57177   0.00000  Uiso   1.00
O1088  O     0.37241   0.18965   0.88686   0.00000  Uiso   1.00
C1089  C     0.38646   0.14854   0.89242   0.00000  Uiso   1.00
H1090  H     0.42691   0.14722   0.88286   0.00000  Uiso   1.00
H1091  H     0.37462   0.12681   0.87051   0.00000  Uiso   1.00
H1092  H     0.37169   0.13736   0.92771   0.00000  Uiso   1.00
O1093  O     0.50800   0.23856   0.58296   0.00000  Uiso   1.00
C1094  C     0.48527   0.27699   0.58250   0.00000  Uiso   1.00
H1095  H     0.45114   0.27365   0.57291   0.00000  Uiso   1.00
H1096  H     0.51063   0.29941   0.55976   0.00000  Uiso   1.00
H1097  H     0.47496   0.28989   0.61688   0.00000  Uiso   1.00
O1098  O     0.47929   0.20822   0.90572   0.00000  Uiso   1.00
C1099  C     0.48320   0.25132   0.89909   0.00000  Uiso   1.00
H1100  H     0.51308   0.26457   0.91075   0.00000  Uiso   1.00
H1101  H     0.44792   0.26678   0.91602   0.00000  Uiso   1.00
H1102  H     0.49234   0.25783   0.86262   0.00000  Uiso   1.00
O1103  O     0.62158   0.04286   0.69548   0.00000  Uiso   1.00
C1104  C     0.57022   0.04050   0.71373   0.00000  Uiso   1.00
H1105  H     0.55371   0.06272   0.69546   0.00000  Uiso   1.00
H1106  H     0.55762   0.04913   0.74985   0.00000  Uiso   1.00
H1107  H     0.55636   0.00924   0.70929   0.00000  Uiso   1.00
O1108  O     0.37914   0.29029   0.80351   0.00000  Uiso   1.00
C1109  C     0.43050   0.29266   0.78532   0.00000  Uiso   1.00
H1110  H     0.44315   0.28451   0.74906   0.00000  Uiso   1.00
H1111  H     0.44694   0.27009   0.80324   0.00000  Uiso   1.00
H1112  H     0.44434   0.32379   0.79029   0.00000  Uiso   1.00
O1113  O     0.62579   0.29044   0.69241   0.00000  Uiso   1.00
C1114  C     0.66282   0.28484   0.65134   0.00000  Uiso   1.00
H1115  H     0.64710   0.26783   0.62820   0.00000  Uiso   1.00
H1116  H     0.36009   0.26602   0.65577   0.00000  Uiso   1.00
H1117  H     0.34353   0.31498   0.63521   0.00000  Uiso   1.00
O1118  O     0.37440   0.04244   0.80710   0.00000  Uiso   1.00
C1119  C     0.33792   0.04494   0.84897   0.00000  Uiso   1.00
H1120  H     0.64236   0.06703   0.84714   0.00000  Uiso   1.00
H1121  H     0.35483   0.05645   0.87417   0.00000  Uiso   1.00
H1122  H     0.65473   0.01426   0.86124   0.00000  Uiso   1.00
O1123  O     0.70625   0.10655   0.75000   0.00000  Uiso   1.00
O1124  O     0.96042   0.22678   0.75000   0.00000  Uiso   1.00
O1125  O     0.96039   0.10654   0.75001   0.00000  Uiso   1.00
O1126  O     0.70628   0.22679   0.74999   0.00000  Uiso   1.00
C1127  C     0.99982   0.08747   0.75000   0.00000  Uiso   1.00
C1128  C     0.66692   0.24582   0.74982   0.00000  Uiso   1.00
O1129  O     0.68519   0.16668   0.81492   0.00000  Uiso   1.00
O1130  O     0.98148   0.16666   0.68509   0.00000  Uiso   1.00
O1131  O     0.93933   0.16667   0.81492   0.00000  Uiso   1.00
O1132  O     0.72733   0.16667   0.68508   0.00000  Uiso   1.00
C1133  C     0.97201   0.16768   0.83622   0.00000  Uiso   1.00
C1134  C     0.69473   0.16674   0.66373   0.00000  Uiso   1.00
Cu1135 Cu    0.71355   0.16667   0.75000   0.00000  Uiso   1.00
Cu1136 Cu    0.95311   0.16666   0.75000   0.00000  Uiso   1.00
C1137  C     0.95588   0.17684   0.88485   0.00000  Uiso   1.00
C1138  C     0.71067   0.17094   0.61421   0.00000  Uiso   1.00
C1139  C     0.97115   0.21279   0.94740   0.00000  Uiso   1.00
C1140  C     0.69092   0.17645   0.54425   0.00000  Uiso   1.00
C1141  C     0.98905   0.19274   0.90614   0.00000  Uiso   1.00
C1142  C     0.67584   0.16887   0.59056   0.00000  Uiso   1.00
C1143  C     0.90578   0.17509   0.90878   0.00000  Uiso   1.00
C1144  C     0.76044   0.17910   0.59070   0.00000  Uiso   1.00
C1145  C     0.88784   0.19605   0.95018   0.00000  Uiso   1.00
C1146  C     0.77406   0.19157   0.54516   0.00000  Uiso   1.00
C1147  C     0.92132   0.21281   0.97040   0.00000  Uiso   1.00
C1148  C     0.73909   0.18789   0.52192   0.00000  Uiso   1.00
C1149  C     0.83749   0.19895   0.97335   0.00000  Uiso   1.00
C1150  C     0.82254   0.20373   0.52054   0.00000  Uiso   1.00
C1151  C     0.85585   0.22301   0.53986   0.00000  Uiso   1.00
C1152  C     0.80145   0.20000   0.95116   0.00000  Uiso   1.00
C1153  C     0.90465   0.22848   0.51400   0.00000  Uiso   1.00
C1154  C     0.75291   0.19461   0.97588   0.00000  Uiso   1.00
H1155  H     0.92995   0.24309   0.52897   0.00000  Uiso   1.00
H1156  H     0.72627   0.19440   0.95861   0.00000  Uiso   1.00
H1157  H     0.99593   0.22824   0.96208   0.00000  Uiso   1.00
H1158  H     0.99864   0.17240   0.52528   0.00000  Uiso   1.00
C1159  C     0.97608   0.02139   0.72319   0.00000  Uiso   1.00
C1160  C     0.69132   0.31177   0.77578   0.00000  Uiso   1.00
C1161  C     0.97884   0.31169   0.72123   0.00000  Uiso   1.00
C1162  C     0.68854   0.02143   0.77780   0.00000  Uiso   1.00
C1163  C     0.66779   0.29042   0.74907   0.00000  Uiso   1.00
C1164  C     0.99934   0.04279   0.75021   0.00000  Uiso   1.00
C1165  C     0.84923   0.13969   0.77644   0.00000  Uiso   1.00
C1166  C     0.81742   0.19369   0.72360   0.00000  Uiso   1.00
H1167  H     0.86064   0.11805   0.79772   0.00000  Uiso   1.00
H1168  H     0.80603   0.21529   0.70228   0.00000  Uiso   1.00
C1169  C     0.79979   0.13961   0.77632   0.00000  Uiso   1.00
C1170  C     0.86687   0.19377   0.72374   0.00000  Uiso   1.00
H1171  H     0.77428   0.11773   0.79727   0.00000  Uiso   1.00
H1172  H     0.89248   0.21552   0.70261   0.00000  Uiso   1.00
N1173  N     0.78403   0.16668   0.74999   0.00000  Uiso   1.00
N1174  N     0.88264   0.16666   0.75001   0.00000  Uiso   1.00
O1175  O     0.79598   0.17095   0.61116   0.00000  Uiso   1.00
C1176  C     0.81056   0.12945   0.60270   0.00000  Uiso   1.00
H1177  H     0.83038   0.12481   0.56654   0.00000  Uiso   1.00
H1178  H     0.77896   0.10770   0.61386   0.00000  Uiso   1.00
H1179  H     0.83590   0.12164   0.62212   0.00000  Uiso   1.00
O1180  O     0.87521   0.15072   0.89251   0.00000  Uiso   1.00
C1181  C     0.87111   0.11146   0.91302   0.00000  Uiso   1.00
H1182  H     0.85220   0.11328   0.94969   0.00000  Uiso   1.00
H1183  H     0.90747   0.09669   0.90684   0.00000  Uiso   1.00
H1184  H     0.84875   0.09133   0.89819   0.00000  Uiso   1.00
O1185  O     0.96246   0.15396   0.61234   0.00000  Uiso   1.00
C1186  C     0.92633   0.17843   0.60275   0.00000  Uiso   1.00
H1187  H     0.93561   0.21197   0.60034   0.00000  Uiso   1.00
H1188  H     0.89187   0.17471   0.63050   0.00000  Uiso   1.00
H1189  H     0.91927   0.16731   0.57177   0.00000  Uiso   1.00
O1190  O     0.70574   0.18965   0.88686   0.00000  Uiso   1.00
C1191  C     0.71979   0.14854   0.89242   0.00000  Uiso   1.00
H1192  H     0.76024   0.14722   0.88286   0.00000  Uiso   1.00
H1193  H     0.70795   0.12681   0.87051   0.00000  Uiso   1.00
H1194  H     0.70502   0.13736   0.92771   0.00000  Uiso   1.00
O1195  O     0.84133   0.23856   0.58296   0.00000  Uiso   1.00
C1196  C     0.81860   0.27699   0.58250   0.00000  Uiso   1.00
H1197  H     0.78447   0.27365   0.57291   0.00000  Uiso   1.00
H1198  H     0.84396   0.29941   0.55976   0.00000  Uiso   1.00
H1199  H     0.80830   0.28989   0.61688   0.00000  Uiso   1.00
O1200  O     0.81262   0.20822   0.90572   0.00000  Uiso   1.00
C1201  C     0.81654   0.25132   0.89909   0.00000  Uiso   1.00
H1202  H     0.84641   0.26457   0.91075   0.00000  Uiso   1.00
H1203  H     0.78125   0.26678   0.91602   0.00000  Uiso   1.00
H1204  H     0.82567   0.25783   0.86262   0.00000  Uiso   1.00
O1205  O     0.95491   0.04286   0.69548   0.00000  Uiso   1.00
C1206  C     0.90355   0.04050   0.71373   0.00000  Uiso   1.00
H1207  H     0.88704   0.06272   0.69546   0.00000  Uiso   1.00
H1208  H     0.89095   0.04913   0.74985   0.00000  Uiso   1.00
H1209  H     0.88970   0.00924   0.70929   0.00000  Uiso   1.00
O1210  O     0.71247   0.29029   0.80351   0.00000  Uiso   1.00
C1211  C     0.76383   0.29266   0.78532   0.00000  Uiso   1.00
H1212  H     0.77648   0.28451   0.74906   0.00000  Uiso   1.00
H1213  H     0.78028   0.27009   0.80324   0.00000  Uiso   1.00
H1214  H     0.77768   0.32379   0.79029   0.00000  Uiso   1.00
O1215  O     0.95912   0.29044   0.69241   0.00000  Uiso   1.00
C1216  C     0.99615   0.28484   0.65134   0.00000  Uiso   1.00
H1217  H     0.98043   0.26783   0.62820   0.00000  Uiso   1.00
H1218  H     0.69342   0.26602   0.65577   0.00000  Uiso   1.00
H1219  H     0.67687   0.31498   0.63521   0.00000  Uiso   1.00
O1220  O     0.70774   0.04244   0.80710   0.00000  Uiso   1.00
C1221  C     0.67125   0.04494   0.84897   0.00000  Uiso   1.00
H1222  H     0.97570   0.06703   0.84714   0.00000  Uiso   1.00
H1223  H     0.68816   0.05645   0.87417   0.00000  Uiso   1.00
H1224  H     0.98806   0.01426   0.86124   0.00000  Uiso   1.00
O1225  O     0.03958   0.43989   0.75000   0.00000  Uiso   1.00
O1226  O     0.29375   0.56011   0.75000   0.00000  Uiso   1.00
O1227  O     0.29372   0.43988   0.75001   0.00000  Uiso   1.00
O1228  O     0.03961   0.56012   0.74999   0.00000  Uiso   1.00
C1229  C     0.33316   0.42080   0.75000   0.00000  Uiso   1.00
C1230  C     0.00026   0.57915   0.74982   0.00000  Uiso   1.00
O1231  O     0.01852   0.50001   0.81492   0.00000  Uiso   1.00
O1232  O     0.31481   0.49999   0.68509   0.00000  Uiso   1.00
O1233  O     0.27267   0.50000   0.81492   0.00000  Uiso   1.00
O1234  O     0.06067   0.50000   0.68508   0.00000  Uiso   1.00
C1235  C     0.30534   0.50101   0.83622   0.00000  Uiso   1.00
C1236  C     0.02806   0.50007   0.66373   0.00000  Uiso   1.00
Cu1237 Cu    0.04689   0.50001   0.75000   0.00000  Uiso   1.00
Cu1238 Cu    0.28645   0.49999   0.75000   0.00000  Uiso   1.00
C1239  C     0.28921   0.51017   0.88485   0.00000  Uiso   1.00
C1240  C     0.04401   0.50428   0.61421   0.00000  Uiso   1.00
C1241  C     0.30448   0.54612   0.94740   0.00000  Uiso   1.00
C1242  C     0.02426   0.50979   0.54425   0.00000  Uiso   1.00
C1243  C     0.32239   0.52608   0.90614   0.00000  Uiso   1.00
C1244  C     0.00917   0.50220   0.59056   0.00000  Uiso   1.00
C1245  C     0.23911   0.50842   0.90878   0.00000  Uiso   1.00
C1246  C     0.09377   0.51243   0.59070   0.00000  Uiso   1.00
C1247  C     0.22117   0.52939   0.95018   0.00000  Uiso   1.00
C1248  C     0.10740   0.52490   0.54516   0.00000  Uiso   1.00
C1249  C     0.25466   0.54614   0.97040   0.00000  Uiso   1.00
C1250  C     0.07243   0.52122   0.52192   0.00000  Uiso   1.00
C1251  C     0.17083   0.53228   0.97335   0.00000  Uiso   1.00
C1252  C     0.15588   0.53706   0.52054   0.00000  Uiso   1.00
C1253  C     0.18919   0.55634   0.53986   0.00000  Uiso   1.00
C1254  C     0.13478   0.53334   0.95116   0.00000  Uiso   1.00
C1255  C     0.23798   0.56181   0.51400   0.00000  Uiso   1.00
C1256  C     0.08624   0.52794   0.97588   0.00000  Uiso   1.00
H1257  H     0.26328   0.57642   0.52897   0.00000  Uiso   1.00
H1258  H     0.05961   0.52773   0.95861   0.00000  Uiso   1.00
H1259  H     0.32926   0.56158   0.96208   0.00000  Uiso   1.00
H1260  H     0.33197   0.50573   0.52528   0.00000  Uiso   1.00
C1261  C     0.30941   0.35473   0.72319   0.00000  Uiso   1.00
C1262  C     0.02466   0.64510   0.77578   0.00000  Uiso   1.00
C1263  C     0.31218   0.64502   0.72123   0.00000  Uiso   1.00
C1264  C     0.02187   0.35476   0.77780   0.00000  Uiso   1.00
C1265  C     0.00112   0.62376   0.74907   0.00000  Uiso   1.00
C1266  C     0.33267   0.37612   0.75021   0.00000  Uiso   1.00
C1267  C     0.18257   0.47302   0.77644   0.00000  Uiso   1.00
C1268  C     0.15075   0.52702   0.72360   0.00000  Uiso   1.00
H1269  H     0.19398   0.45138   0.79772   0.00000  Uiso   1.00
H1270  H     0.13937   0.54862   0.70228   0.00000  Uiso   1.00
C1271  C     0.13313   0.47295   0.77632   0.00000  Uiso   1.00
C1272  C     0.20021   0.52710   0.72374   0.00000  Uiso   1.00
H1273  H     0.10761   0.45107   0.79727   0.00000  Uiso   1.00
H1274  H     0.22582   0.54885   0.70261   0.00000  Uiso   1.00
N1275  N     0.11736   0.50001   0.74999   0.00000  Uiso   1.00
N1276  N     0.21597   0.49999   0.75001   0.00000  Uiso   1.00
O1277  O     0.12931   0.50428   0.61116   0.00000  Uiso   1.00
C1278  C     0.14390   0.46278   0.60270   0.00000  Uiso   1.00
H1279  H     0.16372   0.45814   0.56654   0.00000  Uiso   1.00
H1280  H     0.11229   0.44103   0.61386   0.00000  Uiso   1.00
H1281  H     0.16923   0.45498   0.62212   0.00000  Uiso   1.00
O1282  O     0.20854   0.48406   0.89251   0.00000  Uiso   1.00
C1283  C     0.20444   0.44479   0.91302   0.00000  Uiso   1.00
H1284  H     0.18553   0.44662   0.94969   0.00000  Uiso   1.00
H1285  H     0.24080   0.43002   0.90684   0.00000  Uiso   1.00
H1286  H     0.18208   0.42466   0.89819   0.00000  Uiso   1.00
O1287  O     0.29580   0.48729   0.61234   0.00000  Uiso   1.00
C1288  C     0.25966   0.51177   0.60275   0.00000  Uiso   1.00
H1289  H     0.26895   0.54530   0.60034   0.00000  Uiso   1.00
H1290  H     0.22520   0.50804   0.63050   0.00000  Uiso   1.00
H1291  H     0.25260   0.50064   0.57177   0.00000  Uiso   1.00
O1292  O     0.03907   0.52298   0.88686   0.00000  Uiso   1.00
C1293  C     0.05313   0.48188   0.89242   0.00000  Uiso   1.00
H1294  H     0.09357   0.48055   0.88286   0.00000  Uiso   1.00
H1295  H     0.04129   0.46015   0.87051   0.00000  Uiso   1.00
H1296  H     0.03835   0.47069   0.92771   0.00000  Uiso   1.00
O1297  O     0.17466   0.57189   0.58296   0.00000  Uiso   1.00
C1298  C     0.15194   0.61033   0.58250   0.00000  Uiso   1.00
H1299  H     0.11780   0.60698   0.57291   0.00000  Uiso   1.00
H1300  H     0.17729   0.63274   0.55976   0.00000  Uiso   1.00
H1301  H     0.14163   0.62323   0.61688   0.00000  Uiso   1.00
O1302  O     0.14596   0.54155   0.90572   0.00000  Uiso   1.00
C1303  C     0.14987   0.58465   0.89909   0.00000  Uiso   1.00
H1304  H     0.17974   0.59791   0.91075   0.00000  Uiso   1.00
H1305  H     0.11458   0.60012   0.91602   0.00000  Uiso   1.00
H1306  H     0.15901   0.59116   0.86262   0.00000  Uiso   1.00
O1307  O     0.28825   0.37619   0.69548   0.00000  Uiso   1.00
C1308  C     0.23688   0.37384   0.71373   0.00000  Uiso   1.00
H1309  H     0.22038   0.39605   0.69546   0.00000  Uiso   1.00
H1310  H     0.22428   0.38246   0.74985   0.00000  Uiso   1.00
H1311  H     0.22303   0.34257   0.70929   0.00000  Uiso   1.00
O1312  O     0.04581   0.62362   0.80351   0.00000  Uiso   1.00
C1313  C     0.09717   0.62599   0.78532   0.00000  Uiso   1.00
H1314  H     0.10981   0.61784   0.74906   0.00000  Uiso   1.00
H1315  H     0.11361   0.60342   0.80324   0.00000  Uiso   1.00
H1316  H     0.11101   0.65713   0.79029   0.00000  Uiso   1.00
O1317  O     0.29246   0.62377   0.69241   0.00000  Uiso   1.00
C1318  C     0.32949   0.61817   0.65134   0.00000  Uiso   1.00
H1319  H     0.31377   0.60117   0.62820   0.00000  Uiso   1.00
H1320  H     0.02676   0.59936   0.65577   0.00000  Uiso   1.00
H1321  H     0.01020   0.64832   0.63521   0.00000  Uiso   1.00
O1322  O     0.04107   0.37578   0.80710   0.00000  Uiso   1.00
C1323  C     0.00458   0.37827   0.84897   0.00000  Uiso   1.00
H1324  H     0.30903   0.40036   0.84714   0.00000  Uiso   1.00
H1325  H     0.02150   0.38978   0.87417   0.00000  Uiso   1.00
H1326  H     0.32140   0.34759   0.86124   0.00000  Uiso   1.00
O1327  O     0.37291   0.43989   0.75000   0.00000  Uiso   1.00
O1328  O     0.62709   0.56011   0.75000   0.00000  Uiso   1.00
O1329  O     0.62706   0.43988   0.75001   0.00000  Uiso   1.00
O1330  O     0.37294   0.56012   0.74999   0.00000  Uiso   1.00
C1331  C     0.66649   0.42080   0.75000   0.00000  Uiso   1.00
C1332  C     0.33359   0.57915   0.74982   0.00000  Uiso   1.00
O1333  O     0.35186   0.50001   0.81492   0.00000  Uiso   1.00
O1334  O     0.64814   0.49999   0.68509   0.00000  Uiso   1.00
O1335  O     0.60600   0.50000   0.81492   0.00000  Uiso   1.00
O1336  O     0.39400   0.50000   0.68508   0.00000  Uiso   1.00
C1337  C     0.63867   0.50101   0.83622   0.00000  Uiso   1.00
C1338  C     0.36139   0.50007   0.66373   0.00000  Uiso   1.00
Cu1339 Cu    0.38022   0.50001   0.75000   0.00000  Uiso   1.00
Cu1340 Cu    0.61978   0.49999   0.75000   0.00000  Uiso   1.00
C1341  C     0.62255   0.51017   0.88485   0.00000  Uiso   1.00
C1342  C     0.37734   0.50428   0.61421   0.00000  Uiso   1.00
C1343  C     0.63782   0.54612   0.94740   0.00000  Uiso   1.00
C1344  C     0.35759   0.50979   0.54425   0.00000  Uiso   1.00
C1345  C     0.65572   0.52608   0.90614   0.00000  Uiso   1.00
C1346  C     0.34251   0.50220   0.59056   0.00000  Uiso   1.00
C1347  C     0.57244   0.50842   0.90878   0.00000  Uiso   1.00
C1348  C     0.42710   0.51243   0.59070   0.00000  Uiso   1.00
C1349  C     0.55451   0.52939   0.95018   0.00000  Uiso   1.00
C1350  C     0.44073   0.52490   0.54516   0.00000  Uiso   1.00
C1351  C     0.58799   0.54614   0.97040   0.00000  Uiso   1.00
C1352  C     0.40576   0.52122   0.52192   0.00000  Uiso   1.00
C1353  C     0.50416   0.53228   0.97335   0.00000  Uiso   1.00
C1354  C     0.48921   0.53706   0.52054   0.00000  Uiso   1.00
C1355  C     0.52252   0.55634   0.53986   0.00000  Uiso   1.00
C1356  C     0.46812   0.53334   0.95116   0.00000  Uiso   1.00
C1357  C     0.57131   0.56181   0.51400   0.00000  Uiso   1.00
C1358  C     0.41958   0.52794   0.97588   0.00000  Uiso   1.00
H1359  H     0.59662   0.57642   0.52897   0.00000  Uiso   1.00
H1360  H     0.39294   0.52773   0.95861   0.00000  Uiso   1.00
H1361  H     0.66260   0.56158   0.96208   0.00000  Uiso   1.00
H1362  H     0.66531   0.50573   0.52528   0.00000  Uiso   1.00
C1363  C     0.64275   0.35473   0.72319   0.00000  Uiso   1.00
C1364  C     0.35799   0.64510   0.77578   0.00000  Uiso   1.00
C1365  C     0.64551   0.64502   0.72123   0.00000  Uiso   1.00
C1366  C     0.35520   0.35476   0.77780   0.00000  Uiso   1.00
C1367  C     0.33445   0.62376   0.74907   0.00000  Uiso   1.00
C1368  C     0.66600   0.37612   0.75021   0.00000  Uiso   1.00
C1369  C     0.51590   0.47302   0.77644   0.00000  Uiso   1.00
C1370  C     0.48409   0.52702   0.72360   0.00000  Uiso   1.00
H1371  H     0.52731   0.45138   0.79772   0.00000  Uiso   1.00
H1372  H     0.47270   0.54862   0.70228   0.00000  Uiso   1.00
C1373  C     0.46646   0.47295   0.77632   0.00000  Uiso   1.00
C1374  C     0.53354   0.52710   0.72374   0.00000  Uiso   1.00
H1375  H     0.44095   0.45107   0.79727   0.00000  Uiso   1.00
H1376  H     0.55915   0.54885   0.70261   0.00000  Uiso   1.00
N1377  N     0.45069   0.50001   0.74999   0.00000  Uiso   1.00
N1378  N     0.54931   0.49999   0.75001   0.00000  Uiso   1.00
O1379  O     0.46265   0.50428   0.61116   0.00000  Uiso   1.00
C1380  C     0.47723   0.46278   0.60270   0.00000  Uiso   1.00
H1381  H     0.49705   0.45814   0.56654   0.00000  Uiso   1.00
H1382  H     0.44563   0.44103   0.61386   0.00000  Uiso   1.00
H1383  H     0.50257   0.45498   0.62212   0.00000  Uiso   1.00
O1384  O     0.54187   0.48406   0.89251   0.00000  Uiso   1.00
C1385  C     0.53778   0.44479   0.91302   0.00000  Uiso   1.00
H1386  H     0.51886   0.44662   0.94969   0.00000  Uiso   1.00
H1387  H     0.57414   0.43002   0.90684   0.00000  Uiso   1.00
H1388  H     0.51541   0.42466   0.89819   0.00000  Uiso   1.00
O1389  O     0.62913   0.48729   0.61234   0.00000  Uiso   1.00
C1390  C     0.59300   0.51177   0.60275   0.00000  Uiso   1.00
H1391  H     0.60228   0.54530   0.60034   0.00000  Uiso   1.00
H1392  H     0.55853   0.50804   0.63050   0.00000  Uiso   1.00
H1393  H     0.58594   0.50064   0.57177   0.00000  Uiso   1.00
O1394  O     0.37241   0.52298   0.88686   0.00000  Uiso   1.00
C1395  C     0.38646   0.48188   0.89242   0.00000  Uiso   1.00
H1396  H     0.42691   0.48055   0.88286   0.00000  Uiso   1.00
H1397  H     0.37462   0.46015   0.87051   0.00000  Uiso   1.00
H1398  H     0.37169   0.47069   0.92771   0.00000  Uiso   1.00
O1399  O     0.50800   0.57189   0.58296   0.00000  Uiso   1.00
C1400  C     0.48527   0.61033   0.58250   0.00000  Uiso   1.00
H1401  H     0.45114   0.60698   0.57291   0.00000  Uiso   1.00
H1402  H     0.51063   0.63274   0.55976   0.00000  Uiso   1.00
H1403  H     0.47496   0.62323   0.61688   0.00000  Uiso   1.00
O1404  O     0.47929   0.54155   0.90572   0.00000  Uiso   1.00
C1405  C     0.48320   0.58465   0.89909   0.00000  Uiso   1.00
H1406  H     0.51308   0.59791   0.91075   0.00000  Uiso   1.00
H1407  H     0.44792   0.60012   0.91602   0.00000  Uiso   1.00
H1408  H     0.49234   0.59116   0.86262   0.00000  Uiso   1.00
O1409  O     0.62158   0.37619   0.69548   0.00000  Uiso   1.00
C1410  C     0.57022   0.37384   0.71373   0.00000  Uiso   1.00
H1411  H     0.55371   0.39605   0.69546   0.00000  Uiso   1.00
H1412  H     0.55762   0.38246   0.74985   0.00000  Uiso   1.00
H1413  H     0.55636   0.34257   0.70929   0.00000  Uiso   1.00
O1414  O     0.37914   0.62362   0.80351   0.00000  Uiso   1.00
C1415  C     0.43050   0.62599   0.78532   0.00000  Uiso   1.00
H1416  H     0.44315   0.61784   0.74906   0.00000  Uiso   1.00
H1417  H     0.44694   0.60342   0.80324   0.00000  Uiso   1.00
H1418  H     0.44434   0.65713   0.79029   0.00000  Uiso   1.00
O1419  O     0.62579   0.62377   0.69241   0.00000  Uiso   1.00
C1420  C     0.66282   0.61817   0.65134   0.00000  Uiso   1.00
H1421  H     0.64710   0.60117   0.62820   0.00000  Uiso   1.00
H1422  H     0.36009   0.59936   0.65577   0.00000  Uiso   1.00
H1423  H     0.34353   0.64832   0.63521   0.00000  Uiso   1.00
O1424  O     0.37440   0.37578   0.80710   0.00000  Uiso   1.00
C1425  C     0.33792   0.37827   0.84897   0.00000  Uiso   1.00
H1426  H     0.64236   0.40036   0.84714   0.00000  Uiso   1.00
H1427  H     0.35483   0.38978   0.87417   0.00000  Uiso   1.00
H1428  H     0.65473   0.34759   0.86124   0.00000  Uiso   1.00
O1429  O     0.70625   0.43989   0.75000   0.00000  Uiso   1.00
O1430  O     0.96042   0.56011   0.75000   0.00000  Uiso   1.00
O1431  O     0.96039   0.43988   0.75001   0.00000  Uiso   1.00
O1432  O     0.70628   0.56012   0.74999   0.00000  Uiso   1.00
C1433  C     0.99982   0.42080   0.75000   0.00000  Uiso   1.00
C1434  C     0.66692   0.57915   0.74982   0.00000  Uiso   1.00
O1435  O     0.68519   0.50001   0.81492   0.00000  Uiso   1.00
O1436  O     0.98148   0.49999   0.68509   0.00000  Uiso   1.00
O1437  O     0.93933   0.50000   0.81492   0.00000  Uiso   1.00
O1438  O     0.72733   0.50000   0.68508   0.00000  Uiso   1.00
C1439  C     0.97201   0.50101   0.83622   0.00000  Uiso   1.00
C1440  C     0.69473   0.50007   0.66373   0.00000  Uiso   1.00
Cu1441 Cu    0.71355   0.50001   0.75000   0.00000  Uiso   1.00
Cu1442 Cu    0.95311   0.49999   0.75000   0.00000  Uiso   1.00
C1443  C     0.95588   0.51017   0.88485   0.00000  Uiso   1.00
C1444  C     0.71067   0.50428   0.61421   0.00000  Uiso   1.00
C1445  C     0.97115   0.54612   0.94740   0.00000  Uiso   1.00
C1446  C     0.69092   0.50979   0.54425   0.00000  Uiso   1.00
C1447  C     0.98905   0.52608   0.90614   0.00000  Uiso   1.00
C1448  C     0.67584   0.50220   0.59056   0.00000  Uiso   1.00
C1449  C     0.90578   0.50842   0.90878   0.00000  Uiso   1.00
C1450  C     0.76044   0.51243   0.59070   0.00000  Uiso   1.00
C1451  C     0.88784   0.52939   0.95018   0.00000  Uiso   1.00
C1452  C     0.77406   0.52490   0.54516   0.00000  Uiso   1.00
C1453  C     0.92132   0.54614   0.97040   0.00000  Uiso   1.00
C1454  C     0.73909   0.52122   0.52192   0.00000  Uiso   1.00
C1455  C     0.83749   0.53228   0.97335   0.00000  Uiso   1.00
C1456  C     0.82254   0.53706   0.52054   0.00000  Uiso   1.00
C1457  C     0.85585   0.55634   0.53986   0.00000  Uiso   1.00
C1458  C     0.80145   0.53334   0.95116   0.00000  Uiso   1.00
C1459  C     0.90465   0.56181   0.51400   0.00000  Uiso   1.00
C1460  C     0.75291   0.52794   0.97588   0.00000  Uiso   1.00
H1461  H     0.92995   0.57642   0.52897   0.00000  Uiso   1.00
H1462  H     0.72627   0.52773   0.95861   0.00000  Uiso   1.00
H1463  H     0.99593   0.56158   0.96208   0.00000  Uiso   1.00
H1464  H     0.99864   0.50573   0.52528   0.00000  Uiso   1.00
C1465  C     0.97608   0.35473   0.72319   0.00000  Uiso   1.00
C1466  C     0.69132   0.64510   0.77578   0.00000  Uiso   1.00
C1467  C     0.97884   0.64502   0.72123   0.00000  Uiso   1.00
C1468  C     0.68854   0.35476   0.77780   0.00000  Uiso   1.00
C1469  C     0.66779   0.62376   0.74907   0.00000  Uiso   1.00
C1470  C     0.99934   0.37612   0.75021   0.00000  Uiso   1.00
C1471  C     0.84923   0.47302   0.77644   0.00000  Uiso   1.00
C1472  C     0.81742   0.52702   0.72360   0.00000  Uiso   1.00
H1473  H     0.86064   0.45138   0.79772   0.00000  Uiso   1.00
H1474  H     0.80603   0.54862   0.70228   0.00000  Uiso   1.00
C1475  C     0.79979   0.47295   0.77632   0.00000  Uiso   1.00
C1476  C     0.86687   0.52710   0.72374   0.00000  Uiso   1.00
H1477  H     0.77428   0.45107   0.79727   0.00000  Uiso   1.00
H1478  H     0.89248   0.54885   0.70261   0.00000  Uiso   1.00
N1479  N     0.78403   0.50001   0.74999   0.00000  Uiso   1.00
N1480  N     0.88264   0.49999   0.75001   0.00000  Uiso   1.00
O1481  O     0.79598   0.50428   0.61116   0.00000  Uiso   1.00
C1482  C     0.81056   0.46278   0.60270   0.00000  Uiso   1.00
H1483  H     0.83038   0.45814   0.56654   0.00000  Uiso   1.00
H1484  H     0.77896   0.44103   0.61386   0.00000  Uiso   1.00
H1485  H     0.83590   0.45498   0.62212   0.00000  Uiso   1.00
O1486  O     0.87521   0.48406   0.89251   0.00000  Uiso   1.00
C1487  C     0.87111   0.44479   0.91302   0.00000  Uiso   1.00
H1488  H     0.85220   0.44662   0.94969   0.00000  Uiso   1.00
H1489  H     0.90747   0.43002   0.90684   0.00000  Uiso   1.00
H1490  H     0.84875   0.42466   0.89819   0.00000  Uiso   1.00
O1491  O     0.96246   0.48729   0.61234   0.00000  Uiso   1.00
C1492  C     0.92633   0.51177   0.60275   0.00000  Uiso   1.00
H1493  H     0.93561   0.54530   0.60034   0.00000  Uiso   1.00
H1494  H     0.89187   0.50804   0.63050   0.00000  Uiso   1.00
H1495  H     0.91927   0.50064   0.57177   0.00000  Uiso   1.00
O1496  O     0.70574   0.52298   0.88686   0.00000  Uiso   1.00
C1497  C     0.71979   0.48188   0.89242   0.00000  Uiso   1.00
H1498  H     0.76024   0.48055   0.88286   0.00000  Uiso   1.00
H1499  H     0.70795   0.46015   0.87051   0.00000  Uiso   1.00
H1500  H     0.70502   0.47069   0.92771   0.00000  Uiso   1.00
O1501  O     0.84133   0.57189   0.58296   0.00000  Uiso   1.00
C1502  C     0.81860   0.61033   0.58250   0.00000  Uiso   1.00
H1503  H     0.78447   0.60698   0.57291   0.00000  Uiso   1.00
H1504  H     0.84396   0.63274   0.55976   0.00000  Uiso   1.00
H1505  H     0.80830   0.62323   0.61688   0.00000  Uiso   1.00
O1506  O     0.81262   0.54155   0.90572   0.00000  Uiso   1.00
C1507  C     0.81654   0.58465   0.89909   0.00000  Uiso   1.00
H1508  H     0.84641   0.59791   0.91075   0.00000  Uiso   1.00
H1509  H     0.78125   0.60012   0.91602   0.00000  Uiso   1.00
H1510  H     0.82567   0.59116   0.86262   0.00000  Uiso   1.00
O1511  O     0.95491   0.37619   0.69548   0.00000  Uiso   1.00
C1512  C     0.90355   0.37384   0.71373   0.00000  Uiso   1.00
H1513  H     0.88704   0.39605   0.69546   0.00000  Uiso   1.00
H1514  H     0.89095   0.38246   0.74985   0.00000  Uiso   1.00
H1515  H     0.88970   0.34257   0.70929   0.00000  Uiso   1.00
O1516  O     0.71247   0.62362   0.80351   0.00000  Uiso   1.00
C1517  C     0.76383   0.62599   0.78532   0.00000  Uiso   1.00
H1518  H     0.77648   0.61784   0.74906   0.00000  Uiso   1.00
H1519  H     0.78028   0.60342   0.80324   0.00000  Uiso   1.00
H1520  H     0.77768   0.65713   0.79029   0.00000  Uiso   1.00
O1521  O     0.95912   0.62377   0.69241   0.00000  Uiso   1.00
C1522  C     0.99615   0.61817   0.65134   0.00000  Uiso   1.00
H1523  H     0.98043   0.60117   0.62820   0.00000  Uiso   1.00
H1524  H     0.69342   0.59936   0.65577   0.00000  Uiso   1.00
H1525  H     0.67687   0.64832   0.63521   0.00000  Uiso   1.00
O1526  O     0.70774   0.37578   0.80710   0.00000  Uiso   1.00
C1527  C     0.67125   0.37827   0.84897   0.00000  Uiso   1.00
H1528  H     0.97570   0.40036   0.84714   0.00000  Uiso   1.00
H1529  H     0.68816   0.38978   0.87417   0.00000  Uiso   1.00
H1530  H     0.98806   0.34759   0.86124   0.00000  Uiso   1.00
O1531  O     0.03958   0.77322   0.75000   0.00000  Uiso   1.00
O1532  O     0.29375   0.89345   0.75000   0.00000  Uiso   1.00
O1533  O     0.29372   0.77321   0.75001   0.00000  Uiso   1.00
O1534  O     0.03961   0.89346   0.74999   0.00000  Uiso   1.00
C1535  C     0.33316   0.75414   0.75000   0.00000  Uiso   1.00
C1536  C     0.00026   0.91249   0.74982   0.00000  Uiso   1.00
O1537  O     0.01852   0.83334   0.81492   0.00000  Uiso   1.00
O1538  O     0.31481   0.83332   0.68509   0.00000  Uiso   1.00
O1539  O     0.27267   0.83333   0.81492   0.00000  Uiso   1.00
O1540  O     0.06067   0.83333   0.68508   0.00000  Uiso   1.00
C1541  C     0.30534   0.83435   0.83622   0.00000  Uiso   1.00
C1542  C     0.02806   0.83340   0.66373   0.00000  Uiso   1.00
Cu1543 Cu    0.04689   0.83334   0.75000   0.00000  Uiso   1.00
Cu1544 Cu    0.28645   0.83333   0.75000   0.00000  Uiso   1.00
C1545  C     0.28921   0.84351   0.88485   0.00000  Uiso   1.00
C1546  C     0.04401   0.83761   0.61421   0.00000  Uiso   1.00
C1547  C     0.30448   0.87945   0.94740   0.00000  Uiso   1.00
C1548  C     0.02426   0.84312   0.54425   0.00000  Uiso   1.00
C1549  C     0.32239   0.85941   0.90614   0.00000  Uiso   1.00
C1550  C     0.00917   0.83554   0.59056   0.00000  Uiso   1.00
C1551  C     0.23911   0.84175   0.90878   0.00000  Uiso   1.00
C1552  C     0.09377   0.84576   0.59070   0.00000  Uiso   1.00
C1553  C     0.22117   0.86272   0.95018   0.00000  Uiso   1.00
C1554  C     0.10740   0.85824   0.54516   0.00000  Uiso   1.00
C1555  C     0.25466   0.87948   0.97040   0.00000  Uiso   1.00
C1556  C     0.07243   0.85456   0.52192   0.00000  Uiso   1.00
C1557  C     0.17083   0.86562   0.97335   0.00000  Uiso   1.00
C1558  C     0.15588   0.87039   0.52054   0.00000  Uiso   1.00
C1559  C     0.18919   0.88967   0.53986   0.00000  Uiso   1.00
C1560  C     0.13478   0.86667   0.95116   0.00000  Uiso   1.00
C1561  C     0.23798   0.89515   0.51400   0.00000  Uiso   1.00
C1562  C     0.08624   0.86128   0.97588   0.00000  Uiso   1.00
H1563  H     0.26328   0.90976   0.52897   0.00000  Uiso   1.00
H1564  H     0.05961   0.86106   0.95861   0.00000  Uiso   1.00
H1565  H     0.32926   0.89491   0.96208   0.00000  Uiso   1.00
H1566  H     0.33197   0.83907   0.52528   0.00000  Uiso   1.00
C1567  C     0.30941   0.68806   0.72319   0.00000  Uiso   1.00
C1568  C     0.02466   0.97844   0.77578   0.00000  Uiso   1.00
C1569  C     0.31218   0.97835   0.72123   0.00000  Uiso   1.00
C1570  C     0.02187   0.68810   0.77780   0.00000  Uiso   1.00
C1571  C     0.00112   0.95709   0.74907   0.00000  Uiso   1.00
C1572  C     0.33267   0.70945   0.75021   0.00000  Uiso   1.00
C1573  C     0.18257   0.80636   0.77644   0.00000  Uiso   1.00
C1574  C     0.15075   0.86035   0.72360   0.00000  Uiso   1.00
H1575  H     0.19398   0.78472   0.79772   0.00000  Uiso   1.00
H1576  H     0.13937   0.88196   0.70228   0.00000  Uiso   1.00
C1577  C     0.13313   0.80628   0.77632   0.00000  Uiso   1.00
C1578  C     0.20021   0.86043   0.72374   0.00000  Uiso   1.00
H1579  H     0.10761   0.78440   0.79727   0.00000  Uiso   1.00
H1580  H     0.22582   0.88218   0.70261   0.00000  Uiso   1.00
N1581  N     0.11736   0.83334   0.74999   0.00000  Uiso   1.00
N1582  N     0.21597   0.83332   0.75001   0.00000  Uiso   1.00
O1583  O     0.12931   0.83762   0.61116   0.00000  Uiso   1.00
C1584  C     0.14390   0.79611   0.60270   0.00000  Uiso   1.00
H1585  H     0.16372   0.79148   0.56654   0.00000  Uiso   1.00
H1586  H     0.11229   0.77437   0.61386   0.00000  Uiso   1.00
H1587  H     0.16923   0.78831   0.62212   0.00000  Uiso   1.00
O1588  O     0.20854   0.81739   0.89251   0.00000  Uiso   1.00
C1589  C     0.20444   0.77812   0.91302   0.00000  Uiso   1.00
H1590  H     0.18553   0.77995   0.94969   0.00000  Uiso   1.00
H1591  H     0.24080   0.76335   0.90684   0.00000  Uiso   1.00
H1592  H     0.18208   0.75800   0.89819   0.00000  Uiso   1.00
O1593  O     0.29580   0.82062   0.61234   0.00000  Uiso   1.00
C1594  C     0.25966   0.84510   0.60275   0.00000  Uiso   1.00
H1595  H     0.26895   0.87863   0.60034   0.00000  Uiso   1.00
H1596  H     0.22520   0.84137   0.63050   0.00000  Uiso   1.00
H1597  H     0.25260   0.83397   0.57177   0.00000  Uiso   1.00
O1598  O     0.03907   0.85631   0.88686   0.00000  Uiso   1.00
C1599  C     0.05313   0.81521   0.89242   0.00000  Uiso   1.00
H1600  H     0.09357   0.81389   0.88286   0.00000  Uiso   1.00
H1601  H     0.04129   0.79348   0.87051   0.00000  Uiso   1.00
H1602  H     0.03835   0.80403   0.92771   0.00000  Uiso   1.00
O1603  O     0.17466   0.90523   0.58296   0.00000  Uiso   1.00
C1604  C     0.15194   0.94366   0.58250   0.00000  Uiso   1.00
H1605  H     0.11780   0.94032   0.57291   0.00000  Uiso   1.00
H1606  H     0.17729   0.96608   0.55976   0.00000  Uiso   1.00
H1607  H     0.14163   0.95656   0.61688   0.00000  Uiso   1.00
O1608  O     0.14596   0.87489   0.90572   0.00000  Uiso   1.00
C1609  C     0.14987   0.91799   0.89909   0.00000  Uiso   1.00
H1610  H     0.17974   0.93124   0.91075   0.00000  Uiso   1.00
H1611  H     0.11458   0.93345   0.91602   0.00000  Uiso   1.00
H1612  H     0.15901   0.92450   0.86262   0.00000  Uiso   1.00
O1613  O     0.28825   0.70953   0.69548   0.00000  Uiso   1.00
C1614  C     0.23688   0.70717   0.71373   0.00000  Uiso   1.00
H1615  H     0.22038   0.72938   0.69546   0.00000  Uiso   1.00
H1616  H     0.22428   0.71580   0.74985   0.00000  Uiso   1.00
H1617  H     0.22303   0.67590   0.70929   0.00000  Uiso   1.00
O1618  O     0.04581   0.95695   0.80351   0.00000  Uiso   1.00
C1619  C     0.09717   0.95933   0.78532   0.00000  Uiso   1.00
H1620  H     0.10981   0.95117   0.74906   0.00000  Uiso   1.00
H1621  H     0.11361   0.93675   0.80324   0.00000  Uiso   1.00
H1622  H     0.11101   0.99046   0.79029   0.00000  Uiso   1.00
O1623  O     0.29246   0.95711   0.69241   0.00000  Uiso   1.00
C1624  C     0.32949   0.95151   0.65134   0.00000  Uiso   1.00
H1625  H     0.31377   0.93450   0.62820   0.00000  Uiso   1.00
H1626  H     0.02676   0.93269   0.65577   0.00000  Uiso   1.00
H1627  H     0.01020   0.98165   0.63521   0.00000  Uiso   1.00
O1628  O     0.04107   0.70911   0.80710   0.00000  Uiso   1.00
C1629  C     0.00458   0.71160   0.84897   0.00000  Uiso   1.00
H1630  H     0.30903   0.73370   0.84714   0.00000  Uiso   1.00
H1631  H     0.02150   0.72312   0.87417   0.00000  Uiso   1.00
H1632  H     0.32140   0.68092   0.86124   0.00000  Uiso   1.00
O1633  O     0.37291   0.77322   0.75000   0.00000  Uiso   1.00
O1634  O     0.62709   0.89345   0.75000   0.00000  Uiso   1.00
O1635  O     0.62706   0.77321   0.75001   0.00000  Uiso   1.00
O1636  O     0.37294   0.89346   0.74999   0.00000  Uiso   1.00
C1637  C     0.66649   0.75414   0.75000   0.00000  Uiso   1.00
C1638  C     0.33359   0.91249   0.74982   0.00000  Uiso   1.00
O1639  O     0.35186   0.83334   0.81492   0.00000  Uiso   1.00
O1640  O     0.64814   0.83332   0.68509   0.00000  Uiso   1.00
O1641  O     0.60600   0.83333   0.81492   0.00000  Uiso   1.00
O1642  O     0.39400   0.83333   0.68508   0.00000  Uiso   1.00
C1643  C     0.63867   0.83435   0.83622   0.00000  Uiso   1.00
C1644  C     0.36139   0.83340   0.66373   0.00000  Uiso   1.00
Cu1645 Cu    0.38022   0.83334   0.75000   0.00000  Uiso   1.00
Cu1646 Cu    0.61978   0.83333   0.75000   0.00000  Uiso   1.00
C1647  C     0.62255   0.84351   0.88485   0.00000  Uiso   1.00
C1648  C     0.37734   0.83761   0.61421   0.00000  Uiso   1.00
C1649  C     0.63782   0.87945   0.94740   0.00000  Uiso   1.00
C1650  C     0.35759   0.84312   0.54425   0.00000  Uiso   1.00
C1651  C     0.65572   0.85941   0.90614   0.00000  Uiso   1.00
C1652  C     0.34251   0.83554   0.59056   0.00000  Uiso   1.00
C1653  C     0.57244   0.84175   0.90878   0.00000  Uiso   1.00
C1654  C     0.42710   0.84576   0.59070   0.00000  Uiso   1.00
C1655  C     0.55451   0.86272   0.95018   0.00000  Uiso   1.00
C1656  C     0.44073   0.85824   0.54516   0.00000  Uiso   1.00
C1657  C     0.58799   0.87948   0.97040   0.00000  Uiso   1.00
C1658  C     0.40576   0.85456   0.52192   0.00000  Uiso   1.00
C1659  C     0.50416   0.86562   0.97335   0.00000  Uiso   1.00
C1660  C     0.48921   0.87039   0.52054   0.00000  Uiso   1.00
C1661  C     0.52252   0.88967   0.53986   0.00000  Uiso   1.00
C1662  C     0.46812   0.86667   0.95116   0.00000  Uiso   1.00
C1663  C     0.57131   0.89515   0.51400   0.00000  Uiso   1.00
C1664  C     0.41958   0.86128   0.97588   0.00000  Uiso   1.00
H1665  H     0.59662   0.90976   0.52897   0.00000  Uiso   1.00
H1666  H     0.39294   0.86106   0.95861   0.00000  Uiso   1.00
H1667  H     0.66260   0.89491   0.96208   0.00000  Uiso   1.00
H1668  H     0.66531   0.83907   0.52528   0.00000  Uiso   1.00
C1669  C     0.64275   0.68806   0.72319   0.00000  Uiso   1.00
C1670  C     0.35799   0.97844   0.77578   0.00000  Uiso   1.00
C1671  C     0.64551   0.97835   0.72123   0.00000  Uiso   1.00
C1672  C     0.35520   0.68810   0.77780   0.00000  Uiso   1.00
C1673  C     0.33445   0.95709   0.74907   0.00000  Uiso   1.00
C1674  C     0.66600   0.70945   0.75021   0.00000  Uiso   1.00
C1675  C     0.51590   0.80636   0.77644   0.00000  Uiso   1.00
C1676  C     0.48409   0.86035   0.72360   0.00000  Uiso   1.00
H1677  H     0.52731   0.78472   0.79772   0.00000  Uiso   1.00
H1678  H     0.47270   0.88196   0.70228   0.00000  Uiso   1.00
C1679  C     0.46646   0.80628   0.77632   0.00000  Uiso   1.00
C1680  C     0.53354   0.86043   0.72374   0.00000  Uiso   1.00
H1681  H     0.44095   0.78440   0.79727   0.00000  Uiso   1.00
H1682  H     0.55915   0.88218   0.70261   0.00000  Uiso   1.00
N1683  N     0.45069   0.83334   0.74999   0.00000  Uiso   1.00
N1684  N     0.54931   0.83332   0.75001   0.00000  Uiso   1.00
O1685  O     0.46265   0.83762   0.61116   0.00000  Uiso   1.00
C1686  C     0.47723   0.79611   0.60270   0.00000  Uiso   1.00
H1687  H     0.49705   0.79148   0.56654   0.00000  Uiso   1.00
H1688  H     0.44563   0.77437   0.61386   0.00000  Uiso   1.00
H1689  H     0.50257   0.78831   0.62212   0.00000  Uiso   1.00
O1690  O     0.54187   0.81739   0.89251   0.00000  Uiso   1.00
C1691  C     0.53778   0.77812   0.91302   0.00000  Uiso   1.00
H1692  H     0.51886   0.77995   0.94969   0.00000  Uiso   1.00
H1693  H     0.57414   0.76335   0.90684   0.00000  Uiso   1.00
H1694  H     0.51541   0.75800   0.89819   0.00000  Uiso   1.00
O1695  O     0.62913   0.82062   0.61234   0.00000  Uiso   1.00
C1696  C     0.59300   0.84510   0.60275   0.00000  Uiso   1.00
H1697  H     0.60228   0.87863   0.60034   0.00000  Uiso   1.00
H1698  H     0.55853   0.84137   0.63050   0.00000  Uiso   1.00
H1699  H     0.58594   0.83397   0.57177   0.00000  Uiso   1.00
O1700  O     0.37241   0.85631   0.88686   0.00000  Uiso   1.00
C1701  C     0.38646   0.81521   0.89242   0.00000  Uiso   1.00
H1702  H     0.42691   0.81389   0.88286   0.00000  Uiso   1.00
H1703  H     0.37462   0.79348   0.87051   0.00000  Uiso   1.00
H1704  H     0.37169   0.80403   0.92771   0.00000  Uiso   1.00
O1705  O     0.50800   0.90523   0.58296   0.00000  Uiso   1.00
C1706  C     0.48527   0.94366   0.58250   0.00000  Uiso   1.00
H1707  H     0.45114   0.94032   0.57291   0.00000  Uiso   1.00
H1708  H     0.51063   0.96608   0.55976   0.00000  Uiso   1.00
H1709  H     0.47496   0.95656   0.61688   0.00000  Uiso   1.00
O1710  O     0.47929   0.87489   0.90572   0.00000  Uiso   1.00
C1711  C     0.48320   0.91799   0.89909   0.00000  Uiso   1.00
H1712  H     0.51308   0.93124   0.91075   0.00000  Uiso   1.00
H1713  H     0.44792   0.93345   0.91602   0.00000  Uiso   1.00
H1714  H     0.49234   0.92450   0.86262   0.00000  Uiso   1.00
O1715  O     0.62158   0.70953   0.69548   0.00000  Uiso   1.00
C1716  C     0.57022   0.70717   0.71373   0.00000  Uiso   1.00
H1717  H     0.55371   0.72938   0.69546   0.00000  Uiso   1.00
H1718  H     0.55762   0.71580   0.74985   0.00000  Uiso   1.00
H1719  H     0.55636   0.67590   0.70929   0.00000  Uiso   1.00
O1720  O     0.37914   0.95695   0.80351   0.00000  Uiso   1.00
C1721  C     0.43050   0.95933   0.78532   0.00000  Uiso   1.00
H1722  H     0.44315   0.95117   0.74906   0.00000  Uiso   1.00
H1723  H     0.44694   0.93675   0.80324   0.00000  Uiso   1.00
H1724  H     0.44434   0.99046   0.79029   0.00000  Uiso   1.00
O1725  O     0.62579   0.95711   0.69241   0.00000  Uiso   1.00
C1726  C     0.66282   0.95151   0.65134   0.00000  Uiso   1.00
H1727  H     0.64710   0.93450   0.62820   0.00000  Uiso   1.00
H1728  H     0.36009   0.93269   0.65577   0.00000  Uiso   1.00
H1729  H     0.34353   0.98165   0.63521   0.00000  Uiso   1.00
O1730  O     0.37440   0.70911   0.80710   0.00000  Uiso   1.00
C1731  C     0.33792   0.71160   0.84897   0.00000  Uiso   1.00
H1732  H     0.64236   0.73370   0.84714   0.00000  Uiso   1.00
H1733  H     0.35483   0.72312   0.87417   0.00000  Uiso   1.00
H1734  H     0.65473   0.68092   0.86124   0.00000  Uiso   1.00
O1735  O     0.70625   0.77322   0.75000   0.00000  Uiso   1.00
O1736  O     0.96042   0.89345   0.75000   0.00000  Uiso   1.00
O1737  O     0.96039   0.77321   0.75001   0.00000  Uiso   1.00
O1738  O     0.70628   0.89346   0.74999   0.00000  Uiso   1.00
C1739  C     0.99982   0.75414   0.75000   0.00000  Uiso   1.00
C1740  C     0.66692   0.91249   0.74982   0.00000  Uiso   1.00
O1741  O     0.68519   0.83334   0.81492   0.00000  Uiso   1.00
O1742  O     0.98148   0.83332   0.68509   0.00000  Uiso   1.00
O1743  O     0.93933   0.83333   0.81492   0.00000  Uiso   1.00
O1744  O     0.72733   0.83333   0.68508   0.00000  Uiso   1.00
C1745  C     0.97201   0.83435   0.83622   0.00000  Uiso   1.00
C1746  C     0.69473   0.83340   0.66373   0.00000  Uiso   1.00
Cu1747 Cu    0.71355   0.83334   0.75000   0.00000  Uiso   1.00
Cu1748 Cu    0.95311   0.83333   0.75000   0.00000  Uiso   1.00
C1749  C     0.95588   0.84351   0.88485   0.00000  Uiso   1.00
C1750  C     0.71067   0.83761   0.61421   0.00000  Uiso   1.00
C1751  C     0.97115   0.87945   0.94740   0.00000  Uiso   1.00
C1752  C     0.69092   0.84312   0.54425   0.00000  Uiso   1.00
C1753  C     0.98905   0.85941   0.90614   0.00000  Uiso   1.00
C1754  C     0.67584   0.83554   0.59056   0.00000  Uiso   1.00
C1755  C     0.90578   0.84175   0.90878   0.00000  Uiso   1.00
C1756  C     0.76044   0.84576   0.59070   0.00000  Uiso   1.00
C1757  C     0.88784   0.86272   0.95018   0.00000  Uiso   1.00
C1758  C     0.77406   0.85824   0.54516   0.00000  Uiso   1.00
C1759  C     0.92132   0.87948   0.97040   0.00000  Uiso   1.00
C1760  C     0.73909   0.85456   0.52192   0.00000  Uiso   1.00
C1761  C     0.83749   0.86562   0.97335   0.00000  Uiso   1.00
C1762  C     0.82254   0.87039   0.52054   0.00000  Uiso   1.00
C1763  C     0.85585   0.88967   0.53986   0.00000  Uiso   1.00
C1764  C     0.80145   0.86667   0.95116   0.00000  Uiso   1.00
C1765  C     0.90465   0.89515   0.51400   0.00000  Uiso   1.00
C1766  C     0.75291   0.86128   0.97588   0.00000  Uiso   1.00
H1767  H     0.92995   0.90976   0.52897   0.00000  Uiso   1.00
H1768  H     0.72627   0.86106   0.95861   0.00000  Uiso   1.00
H1769  H     0.99593   0.89491   0.96208   0.00000  Uiso   1.00
H1770  H     0.99864   0.83907   0.52528   0.00000  Uiso   1.00
C1771  C     0.97608   0.68806   0.72319   0.00000  Uiso   1.00
C1772  C     0.69132   0.97844   0.77578   0.00000  Uiso   1.00
C1773  C     0.97884   0.97835   0.72123   0.00000  Uiso   1.00
C1774  C     0.68854   0.68810   0.77780   0.00000  Uiso   1.00
C1775  C     0.66779   0.95709   0.74907   0.00000  Uiso   1.00
C1776  C     0.99934   0.70945   0.75021   0.00000  Uiso   1.00
C1777  C     0.84923   0.80636   0.77644   0.00000  Uiso   1.00
C1778  C     0.81742   0.86035   0.72360   0.00000  Uiso   1.00
H1779  H     0.86064   0.78472   0.79772   0.00000  Uiso   1.00
H1780  H     0.80603   0.88196   0.70228   0.00000  Uiso   1.00
C1781  C     0.79979   0.80628   0.77632   0.00000  Uiso   1.00
C1782  C     0.86687   0.86043   0.72374   0.00000  Uiso   1.00
H1783  H     0.77428   0.78440   0.79727   0.00000  Uiso   1.00
H1784  H     0.89248   0.88218   0.70261   0.00000  Uiso   1.00
N1785  N     0.78403   0.83334   0.74999   0.00000  Uiso   1.00
N1786  N     0.88264   0.83332   0.75001   0.00000  Uiso   1.00
O1787  O     0.79598   0.83762   0.61116   0.00000  Uiso   1.00
C1788  C     0.81056   0.79611   0.60270   0.00000  Uiso   1.00
H1789  H     0.83038   0.79148   0.56654   0.00000  Uiso   1.00
H1790  H     0.77896   0.77437   0.61386   0.00000  Uiso   1.00
H1791  H     0.83590   0.78831   0.62212   0.00000  Uiso   1.00
O1792  O     0.87521   0.81739   0.89251   0.00000  Uiso   1.00
C1793  C     0.87111   0.77812   0.91302   0.00000  Uiso   1.00
H1794  H     0.85220   0.77995   0.94969   0.00000  Uiso   1.00
H1795  H     0.90747   0.76335   0.90684   0.00000  Uiso   1.00
H1796  H     0.84875   0.75800   0.89819   0.00000  Uiso   1.00
O1797  O     0.96246   0.82062   0.61234   0.00000  Uiso   1.00
C1798  C     0.92633   0.84510   0.60275   0.00000  Uiso   1.00
H1799  H     0.93561   0.87863   0.60034   0.00000  Uiso   1.00
H1800  H     0.89187   0.84137   0.63050   0.00000  Uiso   1.00
H1801  H     0.91927   0.83397   0.57177   0.00000  Uiso   1.00
O1802  O     0.70574   0.85631   0.88686   0.00000  Uiso   1.00
C1803  C     0.71979   0.81521   0.89242   0.00000  Uiso   1.00
H1804  H     0.76024   0.81389   0.88286   0.00000  Uiso   1.00
H1805  H     0.70795   0.79348   0.87051   0.00000  Uiso   1.00
H1806  H     0.70502   0.80403   0.92771   0.00000  Uiso   1.00
O1807  O     0.84133   0.90523   0.58296   0.00000  Uiso   1.00
C1808  C     0.81860   0.94366   0.58250   0.00000  Uiso   1.00
H1809  H     0.78447   0.94032   0.57291   0.00000  Uiso   1.00
H1810  H     0.84396   0.96608   0.55976   0.00000  Uiso   1.00
H1811  H     0.80830   0.95656   0.61688   0.00000  Uiso   1.00
O1812  O     0.81262   0.87489   0.90572   0.00000  Uiso   1.00
C1813  C     0.81654   0.91799   0.89909   0.00000  Uiso   1.00
H1814  H     0.84641   0.93124   0.91075   0.00000  Uiso   1.00
H1815  H     0.78125   0.93345   0.91602   0.00000  Uiso   1.00
H1816  H     0.82567   0.92450   0.86262   0.00000  Uiso   1.00
O1817  O     0.95491   0.70953   0.69548   0.00000  Uiso   1.00
C1818  C     0.90355   0.70717   0.71373   0.00000  Uiso   1.00
H1819  H     0.88704   0.72938   0.69546   0.00000  Uiso   1.00
H1820  H     0.89095   0.71580   0.74985   0.00000  Uiso   1.00
H1821  H     0.88970   0.67590   0.70929   0.00000  Uiso   1.00
O1822  O     0.71247   0.95695   0.80351   0.00000  Uiso   1.00
C1823  C     0.76383   0.95933   0.78532   0.00000  Uiso   1.00
H1824  H     0.77648   0.95117   0.74906   0.00000  Uiso   1.00
H1825  H     0.78028   0.93675   0.80324   0.00000  Uiso   1.00
H1826  H     0.77768   0.99046   0.79029   0.00000  Uiso   1.00
O1827  O     0.95912   0.95711   0.69241   0.00000  Uiso   1.00
C1828  C     0.99615   0.95151   0.65134   0.00000  Uiso   1.00
H1829  H     0.98043   0.93450   0.62820   0.00000  Uiso   1.00
H1830  H     0.69342   0.93269   0.65577   0.00000  Uiso   1.00
H1831  H     0.67687   0.98165   0.63521   0.00000  Uiso   1.00
O1832  O     0.70774   0.70911   0.80710   0.00000  Uiso   1.00
C1833  C     0.67125   0.71160   0.84897   0.00000  Uiso   1.00
H1834  H     0.97570   0.73370   0.84714   0.00000  Uiso   1.00
H1835  H     0.68816   0.72312   0.87417   0.00000  Uiso   1.00
H1836  H     0.98806   0.68092   0.86124   0.00000  Uiso   1.00
loop_
_geom_bond_atom_site_label_1
_geom_bond_atom_site_label_2
_geom_bond_distance
_geom_bond_site_symmetry_2
_ccdc_geom_bond_type
O1     Cu13    1.957   .     S
O1     C209    1.295   1_455 S
O2     Cu14    1.957   .     S
O2     C108    1.295   .     S
O3     Cu14    1.959   .     S
O3     C5      1.292   .     A
O4     Cu13    1.959   .     S
O4     C6      1.291   .     A
C5     C42     1.447   .     S
C5     O103    1.295   .     S
C6     C41     1.445   .     S
C6     O206    1.295   1_455 S
O7     Cu13    1.945   .     S
O7     C215    1.300   1_455 S
O8     Cu14    1.945   .     S
O8     C114    1.301   .     S
O9     Cu14    1.947   .     S
O9     C11     1.304   .     A
O10    C12     1.303   .     A
O10    Cu13    1.947   .     S
C11    C15     1.481   .     S
C11    O109    1.300   .     S
C12    C16     1.482   .     S
C12    O212    1.301   1_455 S
Cu13   N51     2.022   .     S
Cu13   Cu218   2.691   1_455 S
Cu14   N52     2.022   .     S
Cu14   Cu115   2.691   .     S
C15    C19     1.413   .     A
C15    C21     1.407   .     A
C16    C22     1.418   .     A
C16    C20     1.413   .     A
C17    C25     1.393   .     A
C17    C19     1.400   .     A
C17    H35     1.079   .     S
C18    C26     1.395   .     A
C18    C20     1.401   .     A
C18    H240    1.083   1_455 S
C19    O170    1.383   .     S
C20    O267    1.391   1_455 S
C21    C23     1.418   .     A
C21    O58     1.385   .     S
C22    O53     1.384   .     S
C22    C24     1.414   .     A
C23    C27     1.411   .     A
C23    C25     1.408   .     A
C24    C26     1.411   .     A
C24    C28     1.424   .     A
C25    C949    1.400   .     S
C26    C950    1.389   1_554 S
C27    C30     1.409   .     A
C27    C946    1.416   .     S
C28    C29     1.420   .     A
C28    C945    1.416   1_554 S
C29    O73     1.383   .     S
C29    C31     1.399   .     A
C30    C32     1.384   .     A
C30    O78     1.383   .     S
C31    H33     1.084   .     S
C31    C943    1.400   1_554 S
C32    H34     1.061   .     S
C32    C944    1.389   .     S
H36    C120    1.083   .     S
C37    C42     1.408   .     A
C37    O83     1.385   .     S
C37    C651    1.397   1_545 S
C38    C41     1.405   .     A
C38    O88     1.386   .     S
C38    C346    1.396   .     S
C39    O93     1.384   .     S
C39    C343    1.397   .     S
C39    C143    1.405   .     S
C40    O98     1.384   .     S
C40    C650    1.396   1_545 S
C40    C246    1.406   1_455 S
C41    C243    1.405   1_455 S
C42    C142    1.406   .     S
C43    N52     1.368   .     A
C43    H45     1.082   .     S
C43    C47     1.420   .     A
C44    H46     1.082   .     S
C44    N51     1.368   .     A
C44    C48     1.420   .     A
C47    H49     1.081   .     S
C47    N51     1.368   .     A
C48    H50     1.082   .     S
C48    N52     1.368   .     A
O53    C54     1.412   .     S
C54    H56     1.114   .     S
C54    H55     1.113   .     S
C54    H57     1.108   .     S
O58    C59     1.410   .     S
C59    H60     1.113   .     S
C59    H61     1.113   .     S
C59    H62     1.109   .     S
O63    C64     1.410   .     S
O63    C122    1.391   .     S
C64    H67     1.109   .     S
C64    H65     1.114   .     S
C64    H66     1.107   .     S
O68    C69     1.418   .     S
O68    C223    1.383   1_455 S
C69    H70     1.109   .     S
C69    H71     1.106   .     S
C69    H72     1.114   .     S
O73    C74     1.410   .     S
C74    H76     1.114   .     S
C74    H77     1.109   .     S
C74    H75     1.113   .     S
O78    C79     1.409   .     S
C79    H81     1.113   .     S
C79    H80     1.113   .     S
C79    H82     1.109   .     S
O83    C84     1.412   .     S
C84    H87     1.111   .     S
C84    H85     1.110   .     S
C84    H86     1.114   .     S
O88    C89     1.412   .     S
C89    H91     1.109   .     S
C89    H92     1.111   .     S
C89    H90     1.114   .     S
O93    C94     1.411   .     S
C94    H95     1.109   .     S
C94    H198    1.113   .     S
C94    H199    1.113   .     S
H96    C298    1.113   1_455 S
H97    C298    1.113   1_455 S
O98    C99     1.411   .     S
C99    H101    1.108   .     S
C99    H304    1.112   1_455 S
C99    H306    1.114   1_455 S
H100   C201    1.112   .     S
H102   C201    1.114   .     S
O103   Cu115   1.957   .     S
O104   Cu116   1.957   .     S
O104   C210    1.295   .     S
O105   Cu116   1.959   .     S
O105   C107    1.292   .     A
O106   Cu115   1.959   .     S
O106   C108    1.291   .     A
C107   C144    1.447   .     S
C107   O205    1.295   .     S
C108   C143    1.445   .     S
O109   Cu115   1.945   .     S
O110   Cu116   1.945   .     S
O110   C216    1.301   .     S
O111   Cu116   1.947   .     S
O111   C113    1.304   .     A
O112   C114    1.303   .     A
O112   Cu115   1.947   .     S
C113   C117    1.481   .     S
C113   O211    1.300   .     S
C114   C118    1.482   .     S
Cu115  N153    2.022   .     S
Cu116  N154    2.022   .     S
Cu116  Cu217   2.691   .     S
C117   C121    1.413   .     A
C117   C123    1.407   .     A
C118   C124    1.418   .     A
C118   C122    1.413   .     A
C119   C127    1.393   .     A
C119   C121    1.400   .     A
C119   H137    1.079   .     S
C120   C128    1.395   .     A
C120   C122    1.401   .     A
C121   O272    1.383   .     S
C123   C125    1.418   .     A
C123   O160    1.385   .     S
C124   O155    1.384   .     S
C124   C126    1.414   .     A
C125   C129    1.411   .     A
C125   C127    1.408   .     A
C126   C128    1.411   .     A
C126   C130    1.424   .     A
C127   C1051   1.400   .     S
C128   C1052   1.389   1_554 S
C129   C132    1.409   .     A
C129   C1048   1.416   .     S
C130   C131    1.420   .     A
C130   C1047   1.416   1_554 S
C131   O175    1.383   .     S
C131   C133    1.399   .     A
C132   C134    1.384   .     A
C132   O180    1.383   .     S
C133   H135    1.084   .     S
C133   C1045   1.400   1_554 S
C134   H136    1.061   .     S
C134   C1046   1.389   .     S
H138   C222    1.083   .     S
C139   C144    1.408   .     A
C139   O185    1.385   .     S
C139   C753    1.397   1_545 S
C140   C143    1.405   .     A
C140   O190    1.386   .     S
C140   C448    1.396   .     S
C141   O195    1.384   .     S
C141   C445    1.397   .     S
C141   C245    1.405   .     S
C142   O200    1.384   .     S
C142   C752    1.396   1_545 S
C144   C244    1.406   .     S
C145   N154    1.368   .     A
C145   H147    1.082   .     S
C145   C149    1.420   .     A
C146   H148    1.082   .     S
C146   N153    1.368   .     A
C146   C150    1.420   .     A
C149   H151    1.081   .     S
C149   N153    1.368   .     A
C150   H152    1.082   .     S
C150   N154    1.368   .     A
O155   C156    1.412   .     S
C156   H158    1.114   .     S
C156   H157    1.113   .     S
C156   H159    1.108   .     S
O160   C161    1.410   .     S
C161   H162    1.113   .     S
C161   H163    1.113   .     S
C161   H164    1.109   .     S
O165   C166    1.410   .     S
O165   C224    1.391   .     S
C166   H169    1.109   .     S
C166   H167    1.114   .     S
C166   H168    1.107   .     S
O170   C171    1.418   .     S
C171   H172    1.109   .     S
C171   H173    1.106   .     S
C171   H174    1.114   .     S
O175   C176    1.410   .     S
C176   H178    1.114   .     S
C176   H179    1.109   .     S
C176   H177    1.113   .     S
O180   C181    1.409   .     S
C181   H183    1.113   .     S
C181   H182    1.113   .     S
C181   H184    1.109   .     S
O185   C186    1.412   .     S
C186   H189    1.111   .     S
C186   H187    1.110   .     S
C186   H188    1.114   .     S
O190   C191    1.412   .     S
C191   H193    1.109   .     S
C191   H194    1.111   .     S
C191   H192    1.114   .     S
O195   C196    1.411   .     S
C196   H197    1.109   .     S
C196   H300    1.113   .     S
C196   H301    1.113   .     S
O200   C201    1.411   .     S
C201   H203    1.108   .     S
H202   C303    1.112   .     S
H204   C303    1.114   .     S
O205   Cu217   1.957   .     S
O206   Cu218   1.957   .     S
O206   C6      1.295   1_655 S
O207   Cu218   1.959   .     S
O207   C209    1.292   .     A
O208   Cu217   1.959   .     S
O208   C210    1.291   .     A
C209   C246    1.447   .     S
C209   O1      1.295   1_655 S
C210   C245    1.445   .     S
O211   Cu217   1.945   .     S
O212   Cu218   1.945   .     S
O212   C12     1.301   1_655 S
O213   Cu218   1.947   .     S
O213   C215    1.304   .     A
O214   C216    1.303   .     A
O214   Cu217   1.947   .     S
C215   C219    1.481   .     S
C215   O7      1.300   1_655 S
C216   C220    1.482   .     S
Cu217  N255    2.022   .     S
Cu218  N256    2.022   .     S
Cu218  Cu13    2.691   1_655 S
C219   C223    1.413   .     A
C219   C225    1.407   .     A
C220   C226    1.418   .     A
C220   C224    1.413   .     A
C221   C229    1.393   .     A
C221   C223    1.400   .     A
C221   H239    1.079   .     S
C222   C230    1.395   .     A
C222   C224    1.401   .     A
C223   O68     1.383   1_655 S
C225   C227    1.418   .     A
C225   O262    1.385   .     S
C226   O257    1.384   .     S
C226   C228    1.414   .     A
C227   C231    1.411   .     A
C227   C229    1.408   .     A
C228   C230    1.411   .     A
C228   C232    1.424   .     A
C229   C1153   1.400   .     S
C230   C1154   1.389   1_554 S
C231   C234    1.409   .     A
C231   C1150   1.416   .     S
C232   C233    1.420   .     A
C232   C1149   1.416   1_554 S
C233   O277    1.383   .     S
C233   C235    1.399   .     A
C234   C236    1.384   .     A
C234   O282    1.383   .     S
C235   H237    1.084   .     S
C235   C1147   1.400   1_554 S
C236   H238    1.061   .     S
C236   C1148   1.389   .     S
H240   C18     1.083   1_655 S
C241   C246    1.408   .     A
C241   O287    1.385   .     S
C241   C855    1.397   1_545 S
C242   C245    1.405   .     A
C242   O292    1.386   .     S
C242   C550    1.396   .     S
C243   O297    1.384   .     S
C243   C547    1.397   .     S
C243   C41     1.405   1_655 S
C244   O302    1.384   .     S
C244   C854    1.396   1_545 S
C246   C40     1.406   1_655 S
C247   N256    1.368   .     A
C247   H249    1.082   .     S
C247   C251    1.420   .     A
C248   H250    1.082   .     S
C248   N255    1.368   .     A
C248   C252    1.420   .     A
C251   H253    1.081   .     S
C251   N255    1.368   .     A
C252   H254    1.082   .     S
C252   N256    1.368   .     A
O257   C258    1.412   .     S
C258   H260    1.114   .     S
C258   H259    1.113   .     S
C258   H261    1.108   .     S
O262   C263    1.410   .     S
C263   H264    1.113   .     S
C263   H265    1.113   .     S
C263   H266    1.109   .     S
O267   C268    1.410   .     S
O267   C20     1.391   1_655 S
C268   H271    1.109   .     S
C268   H269    1.114   .     S
C268   H270    1.107   .     S
O272   C273    1.418   .     S
C273   H274    1.109   .     S
C273   H275    1.106   .     S
C273   H276    1.114   .     S
O277   C278    1.410   .     S
C278   H280    1.114   .     S
C278   H281    1.109   .     S
C278   H279    1.113   .     S
O282   C283    1.409   .     S
C283   H285    1.113   .     S
C283   H284    1.113   .     S
C283   H286    1.109   .     S
O287   C288    1.412   .     S
C288   H291    1.111   .     S
C288   H289    1.110   .     S
C288   H290    1.114   .     S
O292   C293    1.412   .     S
C293   H295    1.109   .     S
C293   H296    1.111   .     S
C293   H294    1.114   .     S
O297   C298    1.411   .     S
C298   H299    1.109   .     S
C298   H96     1.113   1_655 S
C298   H97     1.113   1_655 S
O302   C303    1.411   .     S
C303   H305    1.108   .     S
H304   C99     1.112   1_655 S
H306   C99     1.114   1_655 S
O307   Cu319   1.957   .     S
O307   C515    1.295   1_455 S
O308   Cu320   1.957   .     S
O308   C414    1.295   .     S
O309   Cu320   1.959   .     S
O309   C311    1.292   .     A
O310   Cu319   1.959   .     S
O310   C312    1.291   .     A
C311   C348    1.447   .     S
C311   O409    1.295   .     S
C312   C347    1.445   .     S
C312   O512    1.295   1_455 S
O313   Cu319   1.945   .     S
O313   C521    1.300   1_455 S
O314   Cu320   1.945   .     S
O314   C420    1.301   .     S
O315   Cu320   1.947   .     S
O315   C317    1.304   .     A
O316   C318    1.303   .     A
O316   Cu319   1.947   .     S
C317   C321    1.481   .     S
C317   O415    1.300   .     S
C318   C322    1.482   .     S
C318   O518    1.301   1_455 S
Cu319  N357    2.022   .     S
Cu319  Cu524   2.691   1_455 S
Cu320  N358    2.022   .     S
Cu320  Cu421   2.691   .     S
C321   C325    1.413   .     A
C321   C327    1.407   .     A
C322   C328    1.418   .     A
C322   C326    1.413   .     A
C323   C331    1.393   .     A
C323   C325    1.400   .     A
C323   H341    1.079   .     S
C324   C332    1.395   .     A
C324   C326    1.401   .     A
C324   H546    1.083   1_455 S
C325   O476    1.383   .     S
C326   O573    1.391   1_455 S
C327   C329    1.418   .     A
C327   O364    1.385   .     S
C328   O359    1.384   .     S
C328   C330    1.414   .     A
C329   C333    1.411   .     A
C329   C331    1.408   .     A
C330   C332    1.411   .     A
C330   C334    1.424   .     A
C331   C1255   1.400   .     S
C332   C1256   1.389   1_554 S
C333   C336    1.409   .     A
C333   C1252   1.416   .     S
C334   C335    1.420   .     A
C334   C1251   1.416   1_554 S
C335   O379    1.383   .     S
C335   C337    1.399   .     A
C336   C338    1.384   .     A
C336   O384    1.383   .     S
C337   H339    1.084   .     S
C337   C1249   1.400   1_554 S
C338   H340    1.061   .     S
C338   C1250   1.389   .     S
H342   C426    1.083   .     S
C343   C348    1.408   .     A
C343   O389    1.385   .     S
C344   C347    1.405   .     A
C344   O394    1.386   .     S
C344   C652    1.396   .     S
C345   O399    1.384   .     S
C345   C649    1.397   .     S
C345   C449    1.405   .     S
C346   O404    1.384   .     S
C346   C552    1.406   1_455 S
C347   C549    1.405   1_455 S
C348   C448    1.406   .     S
C349   N358    1.368   .     A
C349   H351    1.082   .     S
C349   C353    1.420   .     A
C350   H352    1.082   .     S
C350   N357    1.368   .     A
C350   C354    1.420   .     A
C353   H355    1.081   .     S
C353   N357    1.368   .     A
C354   H356    1.082   .     S
C354   N358    1.368   .     A
O359   C360    1.412   .     S
C360   H362    1.114   .     S
C360   H361    1.113   .     S
C360   H363    1.108   .     S
O364   C365    1.410   .     S
C365   H366    1.113   .     S
C365   H367    1.113   .     S
C365   H368    1.109   .     S
O369   C370    1.410   .     S
O369   C428    1.391   .     S
C370   H373    1.109   .     S
C370   H371    1.114   .     S
C370   H372    1.107   .     S
O374   C375    1.418   .     S
O374   C529    1.383   1_455 S
C375   H376    1.109   .     S
C375   H377    1.106   .     S
C375   H378    1.114   .     S
O379   C380    1.410   .     S
C380   H382    1.114   .     S
C380   H383    1.109   .     S
C380   H381    1.113   .     S
O384   C385    1.409   .     S
C385   H387    1.113   .     S
C385   H386    1.113   .     S
C385   H388    1.109   .     S
O389   C390    1.412   .     S
C390   H393    1.111   .     S
C390   H391    1.110   .     S
C390   H392    1.114   .     S
O394   C395    1.412   .     S
C395   H397    1.109   .     S
C395   H398    1.111   .     S
C395   H396    1.114   .     S
O399   C400    1.411   .     S
C400   H401    1.109   .     S
C400   H504    1.113   .     S
C400   H505    1.113   .     S
H402   C604    1.113   1_455 S
H403   C604    1.113   1_455 S
O404   C405    1.411   .     S
C405   H407    1.108   .     S
C405   H610    1.112   1_455 S
C405   H612    1.114   1_455 S
H406   C507    1.112   .     S
H408   C507    1.114   .     S
O409   Cu421   1.957   .     S
O410   Cu422   1.957   .     S
O410   C516    1.295   .     S
O411   Cu422   1.959   .     S
O411   C413    1.292   .     A
O412   Cu421   1.959   .     S
O412   C414    1.291   .     A
C413   C450    1.447   .     S
C413   O511    1.295   .     S
C414   C449    1.445   .     S
O415   Cu421   1.945   .     S
O416   Cu422   1.945   .     S
O416   C522    1.301   .     S
O417   Cu422   1.947   .     S
O417   C419    1.304   .     A
O418   C420    1.303   .     A
O418   Cu421   1.947   .     S
C419   C423    1.481   .     S
C419   O517    1.300   .     S
C420   C424    1.482   .     S
Cu421  N459    2.022   .     S
Cu422  N460    2.022   .     S
Cu422  Cu523   2.691   .     S
C423   C427    1.413   .     A
C423   C429    1.407   .     A
C424   C430    1.418   .     A
C424   C428    1.413   .     A
C425   C433    1.393   .     A
C425   C427    1.400   .     A
C425   H443    1.079   .     S
C426   C434    1.395   .     A
C426   C428    1.401   .     A
C427   O578    1.383   .     S
C429   C431    1.418   .     A
C429   O466    1.385   .     S
C430   O461    1.384   .     S
C430   C432    1.414   .     A
C431   C435    1.411   .     A
C431   C433    1.408   .     A
C432   C434    1.411   .     A
C432   C436    1.424   .     A
C433   C1357   1.400   .     S
C434   C1358   1.389   1_554 S
C435   C438    1.409   .     A
C435   C1354   1.416   .     S
C436   C437    1.420   .     A
C436   C1353   1.416   1_554 S
C437   O481    1.383   .     S
C437   C439    1.399   .     A
C438   C440    1.384   .     A
C438   O486    1.383   .     S
C439   H441    1.084   .     S
C439   C1351   1.400   1_554 S
C440   H442    1.061   .     S
C440   C1352   1.389   .     S
H444   C528    1.083   .     S
C445   C450    1.408   .     A
C445   O491    1.385   .     S
C446   C449    1.405   .     A
C446   O496    1.386   .     S
C446   C754    1.396   .     S
C447   O501    1.384   .     S
C447   C751    1.397   .     S
C447   C551    1.405   .     S
C448   O506    1.384   .     S
C450   C550    1.406   .     S
C451   N460    1.368   .     A
C451   H453    1.082   .     S
C451   C455    1.420   .     A
C452   H454    1.082   .     S
C452   N459    1.368   .     A
C452   C456    1.420   .     A
C455   H457    1.081   .     S
C455   N459    1.368   .     A
C456   H458    1.082   .     S
C456   N460    1.368   .     A
O461   C462    1.412   .     S
C462   H464    1.114   .     S
C462   H463    1.113   .     S
C462   H465    1.108   .     S
O466   C467    1.410   .     S
C467   H468    1.113   .     S
C467   H469    1.113   .     S
C467   H470    1.109   .     S
O471   C472    1.410   .     S
O471   C530    1.391   .     S
C472   H475    1.109   .     S
C472   H473    1.114   .     S
C472   H474    1.107   .     S
O476   C477    1.418   .     S
C477   H478    1.109   .     S
C477   H479    1.106   .     S
C477   H480    1.114   .     S
O481   C482    1.410   .     S
C482   H484    1.114   .     S
C482   H485    1.109   .     S
C482   H483    1.113   .     S
O486   C487    1.409   .     S
C487   H489    1.113   .     S
C487   H488    1.113   .     S
C487   H490    1.109   .     S
O491   C492    1.412   .     S
C492   H495    1.111   .     S
C492   H493    1.110   .     S
C492   H494    1.114   .     S
O496   C497    1.412   .     S
C497   H499    1.109   .     S
C497   H500    1.111   .     S
C497   H498    1.114   .     S
O501   C502    1.411   .     S
C502   H503    1.109   .     S
C502   H606    1.113   .     S
C502   H607    1.113   .     S
O506   C507    1.411   .     S
C507   H509    1.108   .     S
H508   C609    1.112   .     S
H510   C609    1.114   .     S
O511   Cu523   1.957   .     S
O512   Cu524   1.957   .     S
O512   C312    1.295   1_655 S
O513   Cu524   1.959   .     S
O513   C515    1.292   .     A
O514   Cu523   1.959   .     S
O514   C516    1.291   .     A
C515   C552    1.447   .     S
C515   O307    1.295   1_655 S
C516   C551    1.445   .     S
O517   Cu523   1.945   .     S
O518   Cu524   1.945   .     S
O518   C318    1.301   1_655 S
O519   Cu524   1.947   .     S
O519   C521    1.304   .     A
O520   C522    1.303   .     A
O520   Cu523   1.947   .     S
C521   C525    1.481   .     S
C521   O313    1.300   1_655 S
C522   C526    1.482   .     S
Cu523  N561    2.022   .     S
Cu524  N562    2.022   .     S
Cu524  Cu319   2.691   1_655 S
C525   C529    1.413   .     A
C525   C531    1.407   .     A
C526   C532    1.418   .     A
C526   C530    1.413   .     A
C527   C535    1.393   .     A
C527   C529    1.400   .     A
C527   H545    1.079   .     S
C528   C536    1.395   .     A
C528   C530    1.401   .     A
C529   O374    1.383   1_655 S
C531   C533    1.418   .     A
C531   O568    1.385   .     S
C532   O563    1.384   .     S
C532   C534    1.414   .     A
C533   C537    1.411   .     A
C533   C535    1.408   .     A
C534   C536    1.411   .     A
C534   C538    1.424   .     A
C535   C1459   1.400   .     S
C536   C1460   1.389   1_554 S
C537   C540    1.409   .     A
C537   C1456   1.416   .     S
C538   C539    1.420   .     A
C538   C1455   1.416   1_554 S
C539   O583    1.383   .     S
C539   C541    1.399   .     A
C540   C542    1.384   .     A
C540   O588    1.383   .     S
C541   H543    1.084   .     S
C541   C1453   1.400   1_554 S
C542   H544    1.061   .     S
C542   C1454   1.389   .     S
H546   C324    1.083   1_655 S
C547   C552    1.408   .     A
C547   O593    1.385   .     S
C548   C551    1.405   .     A
C548   O598    1.386   .     S
C548   C856    1.396   .     S
C549   O603    1.384   .     S
C549   C853    1.397   .     S
C549   C347    1.405   1_655 S
C550   O608    1.384   .     S
C552   C346    1.406   1_655 S
C553   N562    1.368   .     A
C553   H555    1.082   .     S
C553   C557    1.420   .     A
C554   H556    1.082   .     S
C554   N561    1.368   .     A
C554   C558    1.420   .     A
C557   H559    1.081   .     S
C557   N561    1.368   .     A
C558   H560    1.082   .     S
C558   N562    1.368   .     A
O563   C564    1.412   .     S
C564   H566    1.114   .     S
C564   H565    1.113   .     S
C564   H567    1.108   .     S
O568   C569    1.410   .     S
C569   H570    1.113   .     S
C569   H571    1.113   .     S
C569   H572    1.109   .     S
O573   C574    1.410   .     S
O573   C326    1.391   1_655 S
C574   H577    1.109   .     S
C574   H575    1.114   .     S
C574   H576    1.107   .     S
O578   C579    1.418   .     S
C579   H580    1.109   .     S
C579   H581    1.106   .     S
C579   H582    1.114   .     S
O583   C584    1.410   .     S
C584   H586    1.114   .     S
C584   H587    1.109   .     S
C584   H585    1.113   .     S
O588   C589    1.409   .     S
C589   H591    1.113   .     S
C589   H590    1.113   .     S
C589   H592    1.109   .     S
O593   C594    1.412   .     S
C594   H597    1.111   .     S
C594   H595    1.110   .     S
C594   H596    1.114   .     S
O598   C599    1.412   .     S
C599   H601    1.109   .     S
C599   H602    1.111   .     S
C599   H600    1.114   .     S
O603   C604    1.411   .     S
C604   H605    1.109   .     S
C604   H402    1.113   1_655 S
C604   H403    1.113   1_655 S
O608   C609    1.411   .     S
C609   H611    1.108   .     S
H610   C405    1.112   1_655 S
H612   C405    1.114   1_655 S
O613   Cu625   1.957   .     S
O613   C821    1.295   1_455 S
O614   Cu626   1.957   .     S
O614   C720    1.295   .     S
O615   Cu626   1.959   .     S
O615   C617    1.292   .     A
O616   Cu625   1.959   .     S
O616   C618    1.291   .     A
C617   C654    1.447   .     S
C617   O715    1.295   .     S
C618   C653    1.445   .     S
C618   O818    1.295   1_455 S
O619   Cu625   1.945   .     S
O619   C827    1.300   1_455 S
O620   Cu626   1.945   .     S
O620   C726    1.301   .     S
O621   Cu626   1.947   .     S
O621   C623    1.304   .     A
O622   C624    1.303   .     A
O622   Cu625   1.947   .     S
C623   C627    1.481   .     S
C623   O721    1.300   .     S
C624   C628    1.482   .     S
C624   O824    1.301   1_455 S
Cu625  N663    2.022   .     S
Cu625  Cu830   2.691   1_455 S
Cu626  N664    2.022   .     S
Cu626  Cu727   2.691   .     S
C627   C631    1.413   .     A
C627   C633    1.407   .     A
C628   C634    1.418   .     A
C628   C632    1.413   .     A
C629   C637    1.393   .     A
C629   C631    1.400   .     A
C629   H647    1.079   .     S
C630   C638    1.395   .     A
C630   C632    1.401   .     A
C630   H852    1.083   1_455 S
C631   O782    1.383   .     S
C632   O879    1.391   1_455 S
C633   C635    1.418   .     A
C633   O670    1.385   .     S
C634   O665    1.384   .     S
C634   C636    1.414   .     A
C635   C639    1.411   .     A
C635   C637    1.408   .     A
C636   C638    1.411   .     A
C636   C640    1.424   .     A
C637   C1561   1.400   .     S
C638   C1562   1.389   1_554 S
C639   C642    1.409   .     A
C639   C1558   1.416   .     S
C640   C641    1.420   .     A
C640   C1557   1.416   1_554 S
C641   O685    1.383   .     S
C641   C643    1.399   .     A
C642   C644    1.384   .     A
C642   O690    1.383   .     S
C643   H645    1.084   .     S
C643   C1555   1.400   1_554 S
C644   H646    1.061   .     S
C644   C1556   1.389   .     S
H648   C732    1.083   .     S
C649   C654    1.408   .     A
C649   O695    1.385   .     S
C650   C653    1.405   .     A
C650   O700    1.386   .     S
C650   C40     1.396   1_565 S
C651   O705    1.384   .     S
C651   C37     1.397   1_565 S
C651   C755    1.405   .     S
C652   O710    1.384   .     S
C652   C858    1.406   1_455 S
C653   C855    1.405   1_455 S
C654   C754    1.406   .     S
C655   N664    1.368   .     A
C655   H657    1.082   .     S
C655   C659    1.420   .     A
C656   H658    1.082   .     S
C656   N663    1.368   .     A
C656   C660    1.420   .     A
C659   H661    1.081   .     S
C659   N663    1.368   .     A
C660   H662    1.082   .     S
C660   N664    1.368   .     A
O665   C666    1.412   .     S
C666   H668    1.114   .     S
C666   H667    1.113   .     S
C666   H669    1.108   .     S
O670   C671    1.410   .     S
C671   H672    1.113   .     S
C671   H673    1.113   .     S
C671   H674    1.109   .     S
O675   C676    1.410   .     S
O675   C734    1.391   .     S
C676   H679    1.109   .     S
C676   H677    1.114   .     S
C676   H678    1.107   .     S
O680   C681    1.418   .     S
O680   C835    1.383   1_455 S
C681   H682    1.109   .     S
C681   H683    1.106   .     S
C681   H684    1.114   .     S
O685   C686    1.410   .     S
C686   H688    1.114   .     S
C686   H689    1.109   .     S
C686   H687    1.113   .     S
O690   C691    1.409   .     S
C691   H693    1.113   .     S
C691   H692    1.113   .     S
C691   H694    1.109   .     S
O695   C696    1.412   .     S
C696   H699    1.111   .     S
C696   H697    1.110   .     S
C696   H698    1.114   .     S
O700   C701    1.412   .     S
C701   H703    1.109   .     S
C701   H704    1.111   .     S
C701   H702    1.114   .     S
O705   C706    1.411   .     S
C706   H707    1.109   .     S
C706   H810    1.113   .     S
C706   H811    1.113   .     S
H708   C910    1.113   1_455 S
H709   C910    1.113   1_455 S
O710   C711    1.411   .     S
C711   H713    1.108   .     S
C711   H916    1.112   1_455 S
C711   H918    1.114   1_455 S
H712   C813    1.112   .     S
H714   C813    1.114   .     S
O715   Cu727   1.957   .     S
O716   Cu728   1.957   .     S
O716   C822    1.295   .     S
O717   Cu728   1.959   .     S
O717   C719    1.292   .     A
O718   Cu727   1.959   .     S
O718   C720    1.291   .     A
C719   C756    1.447   .     S
C719   O817    1.295   .     S
C720   C755    1.445   .     S
O721   Cu727   1.945   .     S
O722   Cu728   1.945   .     S
O722   C828    1.301   .     S
O723   Cu728   1.947   .     S
O723   C725    1.304   .     A
O724   C726    1.303   .     A
O724   Cu727   1.947   .     S
C725   C729    1.481   .     S
C725   O823    1.300   .     S
C726   C730    1.482   .     S
Cu727  N765    2.022   .     S
Cu728  N766    2.022   .     S
Cu728  Cu829   2.691   .     S
C729   C733    1.413   .     A
C729   C735    1.407   .     A
C730   C736    1.418   .     A
C730   C734    1.413   .     A
C731   C739    1.393   .     A
C731   C733    1.400   .     A
C731   H749    1.079   .     S
C732   C740    1.395   .     A
C732   C734    1.401   .     A
C733   O884    1.383   .     S
C735   C737    1.418   .     A
C735   O772    1.385   .     S
C736   O767    1.384   .     S
C736   C738    1.414   .     A
C737   C741    1.411   .     A
C737   C739    1.408   .     A
C738   C740    1.411   .     A
C738   C742    1.424   .     A
C739   C1663   1.400   .     S
C740   C1664   1.389   1_554 S
C741   C744    1.409   .     A
C741   C1660   1.416   .     S
C742   C743    1.420   .     A
C742   C1659   1.416   1_554 S
C743   O787    1.383   .     S
C743   C745    1.399   .     A
C744   C746    1.384   .     A
C744   O792    1.383   .     S
C745   H747    1.084   .     S
C745   C1657   1.400   1_554 S
C746   H748    1.061   .     S
C746   C1658   1.389   .     S
H750   C834    1.083   .     S
C751   C756    1.408   .     A
C751   O797    1.385   .     S
C752   C755    1.405   .     A
C752   O802    1.386   .     S
C752   C142    1.396   1_565 S
C753   O807    1.384   .     S
C753   C139    1.397   1_565 S
C753   C857    1.405   .     S
C754   O812    1.384   .     S
C756   C856    1.406   .     S
C757   N766    1.368   .     A
C757   H759    1.082   .     S
C757   C761    1.420   .     A
C758   H760    1.082   .     S
C758   N765    1.368   .     A
C758   C762    1.420   .     A
C761   H763    1.081   .     S
C761   N765    1.368   .     A
C762   H764    1.082   .     S
C762   N766    1.368   .     A
O767   C768    1.412   .     S
C768   H770    1.114   .     S
C768   H769    1.113   .     S
C768   H771    1.108   .     S
O772   C773    1.410   .     S
C773   H774    1.113   .     S
C773   H775    1.113   .     S
C773   H776    1.109   .     S
O777   C778    1.410   .     S
O777   C836    1.391   .     S
C778   H781    1.109   .     S
C778   H779    1.114   .     S
C778   H780    1.107   .     S
O782   C783    1.418   .     S
C783   H784    1.109   .     S
C783   H785    1.106   .     S
C783   H786    1.114   .     S
O787   C788    1.410   .     S
C788   H790    1.114   .     S
C788   H791    1.109   .     S
C788   H789    1.113   .     S
O792   C793    1.409   .     S
C793   H795    1.113   .     S
C793   H794    1.113   .     S
C793   H796    1.109   .     S
O797   C798    1.412   .     S
C798   H801    1.111   .     S
C798   H799    1.110   .     S
C798   H800    1.114   .     S
O802   C803    1.412   .     S
C803   H805    1.109   .     S
C803   H806    1.111   .     S
C803   H804    1.114   .     S
O807   C808    1.411   .     S
C808   H809    1.109   .     S
C808   H912    1.113   .     S
C808   H913    1.113   .     S
O812   C813    1.411   .     S
C813   H815    1.108   .     S
H814   C915    1.112   .     S
H816   C915    1.114   .     S
O817   Cu829   1.957   .     S
O818   Cu830   1.957   .     S
O818   C618    1.295   1_655 S
O819   Cu830   1.959   .     S
O819   C821    1.292   .     A
O820   Cu829   1.959   .     S
O820   C822    1.291   .     A
C821   C858    1.447   .     S
C821   O613    1.295   1_655 S
C822   C857    1.445   .     S
O823   Cu829   1.945   .     S
O824   Cu830   1.945   .     S
O824   C624    1.301   1_655 S
O825   Cu830   1.947   .     S
O825   C827    1.304   .     A
O826   C828    1.303   .     A
O826   Cu829   1.947   .     S
C827   C831    1.481   .     S
C827   O619    1.300   1_655 S
C828   C832    1.482   .     S
Cu829  N867    2.022   .     S
Cu830  N868    2.022   .     S
Cu830  Cu625   2.691   1_655 S
C831   C835    1.413   .     A
C831   C837    1.407   .     A
C832   C838    1.418   .     A
C832   C836    1.413   .     A
C833   C841    1.393   .     A
C833   C835    1.400   .     A
C833   H851    1.079   .     S
C834   C842    1.395   .     A
C834   C836    1.401   .     A
C835   O680    1.383   1_655 S
C837   C839    1.418   .     A
C837   O874    1.385   .     S
C838   O869    1.384   .     S
C838   C840    1.414   .     A
C839   C843    1.411   .     A
C839   C841    1.408   .     A
C840   C842    1.411   .     A
C840   C844    1.424   .     A
C841   C1765   1.400   .     S
C842   C1766   1.389   1_554 S
C843   C846    1.409   .     A
C843   C1762   1.416   .     S
C844   C845    1.420   .     A
C844   C1761   1.416   1_554 S
C845   O889    1.383   .     S
C845   C847    1.399   .     A
C846   C848    1.384   .     A
C846   O894    1.383   .     S
C847   H849    1.084   .     S
C847   C1759   1.400   1_554 S
C848   H850    1.061   .     S
C848   C1760   1.389   .     S
H852   C630    1.083   1_655 S
C853   C858    1.408   .     A
C853   O899    1.385   .     S
C854   C857    1.405   .     A
C854   O904    1.386   .     S
C854   C244    1.396   1_565 S
C855   O909    1.384   .     S
C855   C241    1.397   1_565 S
C855   C653    1.405   1_655 S
C856   O914    1.384   .     S
C858   C652    1.406   1_655 S
C859   N868    1.368   .     A
C859   H861    1.082   .     S
C859   C863    1.420   .     A
C860   H862    1.082   .     S
C860   N867    1.368   .     A
C860   C864    1.420   .     A
C863   H865    1.081   .     S
C863   N867    1.368   .     A
C864   H866    1.082   .     S
C864   N868    1.368   .     A
O869   C870    1.412   .     S
C870   H872    1.114   .     S
C870   H871    1.113   .     S
C870   H873    1.108   .     S
O874   C875    1.410   .     S
C875   H876    1.113   .     S
C875   H877    1.113   .     S
C875   H878    1.109   .     S
O879   C880    1.410   .     S
O879   C632    1.391   1_655 S
C880   H883    1.109   .     S
C880   H881    1.114   .     S
C880   H882    1.107   .     S
O884   C885    1.418   .     S
C885   H886    1.109   .     S
C885   H887    1.106   .     S
C885   H888    1.114   .     S
O889   C890    1.410   .     S
C890   H892    1.114   .     S
C890   H893    1.109   .     S
C890   H891    1.113   .     S
O894   C895    1.409   .     S
C895   H897    1.113   .     S
C895   H896    1.113   .     S
C895   H898    1.109   .     S
O899   C900    1.412   .     S
C900   H903    1.111   .     S
C900   H901    1.110   .     S
C900   H902    1.114   .     S
O904   C905    1.412   .     S
C905   H907    1.109   .     S
C905   H908    1.111   .     S
C905   H906    1.114   .     S
O909   C910    1.411   .     S
C910   H911    1.109   .     S
C910   H708    1.113   1_655 S
C910   H709    1.113   1_655 S
O914   C915    1.411   .     S
C915   H917    1.108   .     S
H916   C711    1.112   1_655 S
H918   C711    1.114   1_655 S
O919   Cu931   1.957   .     S
O919   C1127   1.295   1_455 S
O920   Cu932   1.957   .     S
O920   C1026   1.295   .     S
O921   Cu932   1.959   .     S
O921   C923    1.292   .     A
O922   Cu931   1.959   .     S
O922   C924    1.291   .     A
C923   C960    1.447   .     S
C923   O1021   1.295   .     S
C924   C959    1.445   .     S
C924   O1124   1.295   1_455 S
O925   Cu931   1.945   .     S
O925   C1133   1.300   1_455 S
O926   Cu932   1.945   .     S
O926   C1032   1.301   .     S
O927   Cu932   1.947   .     S
O927   C929    1.304   .     A
O928   C930    1.303   .     A
O928   Cu931   1.947   .     S
C929   C933    1.481   .     S
C929   O1027   1.300   .     S
C930   C934    1.482   .     S
C930   O1130   1.301   1_455 S
Cu931  N969    2.022   .     S
Cu931  Cu1136  2.691   1_455 S
Cu932  N970    2.022   .     S
Cu932  Cu1033  2.691   .     S
C933   C937    1.413   .     A
C933   C939    1.407   .     A
C934   C940    1.418   .     A
C934   C938    1.413   .     A
C935   C943    1.393   .     A
C935   C937    1.400   .     A
C935   H953    1.079   .     S
C936   C944    1.395   .     A
C936   C938    1.401   .     A
C936   H1158   1.083   1_455 S
C937   O1088   1.383   .     S
C938   O1185   1.391   1_455 S
C939   C941    1.418   .     A
C939   O976    1.385   .     S
C940   O971    1.384   .     S
C940   C942    1.414   .     A
C941   C945    1.411   .     A
C941   C943    1.408   .     A
C942   C944    1.411   .     A
C942   C946    1.424   .     A
C943   C31     1.400   1_556 S
C945   C948    1.409   .     A
C945   C28     1.416   1_556 S
C946   C947    1.420   .     A
C947   O991    1.383   .     S
C947   C949    1.399   .     A
C948   C950    1.384   .     A
C948   O996    1.383   .     S
C949   H951    1.084   .     S
C950   H952    1.061   .     S
C950   C26     1.389   1_556 S
H954   C1038   1.083   .     S
C955   C960    1.408   .     A
C955   O1001   1.385   .     S
C955   C1569   1.397   1_545 S
C956   C959    1.405   .     A
C956   O1006   1.386   .     S
C956   C1264   1.396   .     S
C957   O1011   1.384   .     S
C957   C1261   1.397   .     S
C957   C1061   1.405   .     S
C958   O1016   1.384   .     S
C958   C1568   1.396   1_545 S
C958   C1164   1.406   1_455 S
C959   C1161   1.405   1_455 S
C960   C1060   1.406   .     S
C961   N970    1.368   .     A
C961   H963    1.082   .     S
C961   C965    1.420   .     A
C962   H964    1.082   .     S
C962   N969    1.368   .     A
C962   C966    1.420   .     A
C965   H967    1.081   .     S
C965   N969    1.368   .     A
C966   H968    1.082   .     S
C966   N970    1.368   .     A
O971   C972    1.412   .     S
C972   H974    1.114   .     S
C972   H973    1.113   .     S
C972   H975    1.108   .     S
O976   C977    1.410   .     S
C977   H978    1.113   .     S
C977   H979    1.113   .     S
C977   H980    1.109   .     S
O981   C982    1.410   .     S
O981   C1040   1.391   .     S
C982   H985    1.109   .     S
C982   H983    1.114   .     S
C982   H984    1.107   .     S
O986   C987    1.418   .     S
O986   C1141   1.383   1_455 S
C987   H988    1.109   .     S
C987   H989    1.106   .     S
C987   H990    1.114   .     S
O991   C992    1.410   .     S
C992   H994    1.114   .     S
C992   H995    1.109   .     S
C992   H993    1.113   .     S
O996   C997    1.409   .     S
C997   H999    1.113   .     S
C997   H998    1.113   .     S
C997   H1000   1.109   .     S
O1001  C1002   1.412   .     S
C1002  H1005   1.111   .     S
C1002  H1003   1.110   .     S
C1002  H1004   1.114   .     S
O1006  C1007   1.412   .     S
C1007  H1009   1.109   .     S
C1007  H1010   1.111   .     S
C1007  H1008   1.114   .     S
O1011  C1012   1.411   .     S
C1012  H1013   1.109   .     S
C1012  H1116   1.113   .     S
C1012  H1117   1.113   .     S
H1014  C1216   1.113   1_455 S
H1015  C1216   1.113   1_455 S
O1016  C1017   1.411   .     S
C1017  H1019   1.108   .     S
C1017  H1222   1.112   1_455 S
C1017  H1224   1.114   1_455 S
H1018  C1119   1.112   .     S
H1020  C1119   1.114   .     S
O1021  Cu1033  1.957   .     S
O1022  Cu1034  1.957   .     S
O1022  C1128   1.295   .     S
O1023  Cu1034  1.959   .     S
O1023  C1025   1.292   .     A
O1024  Cu1033  1.959   .     S
O1024  C1026   1.291   .     A
C1025  C1062   1.447   .     S
C1025  O1123   1.295   .     S
C1026  C1061   1.445   .     S
O1027  Cu1033  1.945   .     S
O1028  Cu1034  1.945   .     S
O1028  C1134   1.301   .     S
O1029  Cu1034  1.947   .     S
O1029  C1031   1.304   .     A
O1030  C1032   1.303   .     A
O1030  Cu1033  1.947   .     S
C1031  C1035   1.481   .     S
C1031  O1129   1.300   .     S
C1032  C1036   1.482   .     S
Cu1033 N1071   2.022   .     S
Cu1034 N1072   2.022   .     S
Cu1034 Cu1135  2.691   .     S
C1035  C1039   1.413   .     A
C1035  C1041   1.407   .     A
C1036  C1042   1.418   .     A
C1036  C1040   1.413   .     A
C1037  C1045   1.393   .     A
C1037  C1039   1.400   .     A
C1037  H1055   1.079   .     S
C1038  C1046   1.395   .     A
C1038  C1040   1.401   .     A
C1039  O1190   1.383   .     S
C1041  C1043   1.418   .     A
C1041  O1078   1.385   .     S
C1042  O1073   1.384   .     S
C1042  C1044   1.414   .     A
C1043  C1047   1.411   .     A
C1043  C1045   1.408   .     A
C1044  C1046   1.411   .     A
C1044  C1048   1.424   .     A
C1045  C133    1.400   1_556 S
C1047  C1050   1.409   .     A
C1047  C130    1.416   1_556 S
C1048  C1049   1.420   .     A
C1049  O1093   1.383   .     S
C1049  C1051   1.399   .     A
C1050  C1052   1.384   .     A
C1050  O1098   1.383   .     S
C1051  H1053   1.084   .     S
C1052  H1054   1.061   .     S
C1052  C128    1.389   1_556 S
H1056  C1140   1.083   .     S
C1057  C1062   1.408   .     A
C1057  O1103   1.385   .     S
C1057  C1671   1.397   1_545 S
C1058  C1061   1.405   .     A
C1058  O1108   1.386   .     S
C1058  C1366   1.396   .     S
C1059  O1113   1.384   .     S
C1059  C1363   1.397   .     S
C1059  C1163   1.405   .     S
C1060  O1118   1.384   .     S
C1060  C1670   1.396   1_545 S
C1062  C1162   1.406   .     S
C1063  N1072   1.368   .     A
C1063  H1065   1.082   .     S
C1063  C1067   1.420   .     A
C1064  H1066   1.082   .     S
C1064  N1071   1.368   .     A
C1064  C1068   1.420   .     A
C1067  H1069   1.081   .     S
C1067  N1071   1.368   .     A
C1068  H1070   1.082   .     S
C1068  N1072   1.368   .     A
O1073  C1074   1.412   .     S
C1074  H1076   1.114   .     S
C1074  H1075   1.113   .     S
C1074  H1077   1.108   .     S
O1078  C1079   1.410   .     S
C1079  H1080   1.113   .     S
C1079  H1081   1.113   .     S
C1079  H1082   1.109   .     S
O1083  C1084   1.410   .     S
O1083  C1142   1.391   .     S
C1084  H1087   1.109   .     S
C1084  H1085   1.114   .     S
C1084  H1086   1.107   .     S
O1088  C1089   1.418   .     S
C1089  H1090   1.109   .     S
C1089  H1091   1.106   .     S
C1089  H1092   1.114   .     S
O1093  C1094   1.410   .     S
C1094  H1096   1.114   .     S
C1094  H1097   1.109   .     S
C1094  H1095   1.113   .     S
O1098  C1099   1.409   .     S
C1099  H1101   1.113   .     S
C1099  H1100   1.113   .     S
C1099  H1102   1.109   .     S
O1103  C1104   1.412   .     S
C1104  H1107   1.111   .     S
C1104  H1105   1.110   .     S
C1104  H1106   1.114   .     S
O1108  C1109   1.412   .     S
C1109  H1111   1.109   .     S
C1109  H1112   1.111   .     S
C1109  H1110   1.114   .     S
O1113  C1114   1.411   .     S
C1114  H1115   1.109   .     S
C1114  H1218   1.113   .     S
C1114  H1219   1.113   .     S
O1118  C1119   1.411   .     S
C1119  H1121   1.108   .     S
H1120  C1221   1.112   .     S
H1122  C1221   1.114   .     S
O1123  Cu1135  1.957   .     S
O1124  Cu1136  1.957   .     S
O1124  C924    1.295   1_655 S
O1125  Cu1136  1.959   .     S
O1125  C1127   1.292   .     A
O1126  Cu1135  1.959   .     S
O1126  C1128   1.291   .     A
C1127  C1164   1.447   .     S
C1127  O919    1.295   1_655 S
C1128  C1163   1.445   .     S
O1129  Cu1135  1.945   .     S
O1130  Cu1136  1.945   .     S
O1130  C930    1.301   1_655 S
O1131  Cu1136  1.947   .     S
O1131  C1133   1.304   .     A
O1132  C1134   1.303   .     A
O1132  Cu1135  1.947   .     S
C1133  C1137   1.481   .     S
C1133  O925    1.300   1_655 S
C1134  C1138   1.482   .     S
Cu1135 N1173   2.022   .     S
Cu1136 N1174   2.022   .     S
Cu1136 Cu931   2.691   1_655 S
C1137  C1141   1.413   .     A
C1137  C1143   1.407   .     A
C1138  C1144   1.418   .     A
C1138  C1142   1.413   .     A
C1139  C1147   1.393   .     A
C1139  C1141   1.400   .     A
C1139  H1157   1.079   .     S
C1140  C1148   1.395   .     A
C1140  C1142   1.401   .     A
C1141  O986    1.383   1_655 S
C1143  C1145   1.418   .     A
C1143  O1180   1.385   .     S
C1144  O1175   1.384   .     S
C1144  C1146   1.414   .     A
C1145  C1149   1.411   .     A
C1145  C1147   1.408   .     A
C1146  C1148   1.411   .     A
C1146  C1150   1.424   .     A
C1147  C235    1.400   1_556 S
C1149  C1152   1.409   .     A
C1149  C232    1.416   1_556 S
C1150  C1151   1.420   .     A
C1151  O1195   1.383   .     S
C1151  C1153   1.399   .     A
C1152  C1154   1.384   .     A
C1152  O1200   1.383   .     S
C1153  H1155   1.084   .     S
C1154  H1156   1.061   .     S
C1154  C230    1.389   1_556 S
H1158  C936    1.083   1_655 S
C1159  C1164   1.408   .     A
C1159  O1205   1.385   .     S
C1159  C1773   1.397   1_545 S
C1160  C1163   1.405   .     A
C1160  O1210   1.386   .     S
C1160  C1468   1.396   .     S
C1161  O1215   1.384   .     S
C1161  C1465   1.397   .     S
C1161  C959    1.405   1_655 S
C1162  O1220   1.384   .     S
C1162  C1772   1.396   1_545 S
C1164  C958    1.406   1_655 S
C1165  N1174   1.368   .     A
C1165  H1167   1.082   .     S
C1165  C1169   1.420   .     A
C1166  H1168   1.082   .     S
C1166  N1173   1.368   .     A
C1166  C1170   1.420   .     A
C1169  H1171   1.081   .     S
C1169  N1173   1.368   .     A
C1170  H1172   1.082   .     S
C1170  N1174   1.368   .     A
O1175  C1176   1.412   .     S
C1176  H1178   1.114   .     S
C1176  H1177   1.113   .     S
C1176  H1179   1.108   .     S
O1180  C1181   1.410   .     S
C1181  H1182   1.113   .     S
C1181  H1183   1.113   .     S
C1181  H1184   1.109   .     S
O1185  C1186   1.410   .     S
O1185  C938    1.391   1_655 S
C1186  H1189   1.109   .     S
C1186  H1187   1.114   .     S
C1186  H1188   1.107   .     S
O1190  C1191   1.418   .     S
C1191  H1192   1.109   .     S
C1191  H1193   1.106   .     S
C1191  H1194   1.114   .     S
O1195  C1196   1.410   .     S
C1196  H1198   1.114   .     S
C1196  H1199   1.109   .     S
C1196  H1197   1.113   .     S
O1200  C1201   1.409   .     S
C1201  H1203   1.113   .     S
C1201  H1202   1.113   .     S
C1201  H1204   1.109   .     S
O1205  C1206   1.412   .     S
C1206  H1209   1.111   .     S
C1206  H1207   1.110   .     S
C1206  H1208   1.114   .     S
O1210  C1211   1.412   .     S
C1211  H1213   1.109   .     S
C1211  H1214   1.111   .     S
C1211  H1212   1.114   .     S
O1215  C1216   1.411   .     S
C1216  H1217   1.109   .     S
C1216  H1014   1.113   1_655 S
C1216  H1015   1.113   1_655 S
O1220  C1221   1.411   .     S
C1221  H1223   1.108   .     S
H1222  C1017   1.112   1_655 S
H1224  C1017   1.114   1_655 S
O1225  Cu1237  1.957   .     S
O1225  C1433   1.295   1_455 S
O1226  Cu1238  1.957   .     S
O1226  C1332   1.295   .     S
O1227  Cu1238  1.959   .     S
O1227  C1229   1.292   .     A
O1228  Cu1237  1.959   .     S
O1228  C1230   1.291   .     A
C1229  C1266   1.447   .     S
C1229  O1327   1.295   .     S
C1230  C1265   1.445   .     S
C1230  O1430   1.295   1_455 S
O1231  Cu1237  1.945   .     S
O1231  C1439   1.300   1_455 S
O1232  Cu1238  1.945   .     S
O1232  C1338   1.301   .     S
O1233  Cu1238  1.947   .     S
O1233  C1235   1.304   .     A
O1234  C1236   1.303   .     A
O1234  Cu1237  1.947   .     S
C1235  C1239   1.481   .     S
C1235  O1333   1.300   .     S
C1236  C1240   1.482   .     S
C1236  O1436   1.301   1_455 S
Cu1237 N1275   2.022   .     S
Cu1237 Cu1442  2.691   1_455 S
Cu1238 N1276   2.022   .     S
Cu1238 Cu1339  2.691   .     S
C1239  C1243   1.413   .     A
C1239  C1245   1.407   .     A
C1240  C1246   1.418   .     A
C1240  C1244   1.413   .     A
C1241  C1249   1.393   .     A
C1241  C1243   1.400   .     A
C1241  H1259   1.079   .     S
C1242  C1250   1.395   .     A
C1242  C1244   1.401   .     A
C1242  H1464   1.083   1_455 S
C1243  O1394   1.383   .     S
C1244  O1491   1.391   1_455 S
C1245  C1247   1.418   .     A
C1245  O1282   1.385   .     S
C1246  O1277   1.384   .     S
C1246  C1248   1.414   .     A
C1247  C1251   1.411   .     A
C1247  C1249   1.408   .     A
C1248  C1250   1.411   .     A
C1248  C1252   1.424   .     A
C1249  C337    1.400   1_556 S
C1251  C1254   1.409   .     A
C1251  C334    1.416   1_556 S
C1252  C1253   1.420   .     A
C1253  O1297   1.383   .     S
C1253  C1255   1.399   .     A
C1254  C1256   1.384   .     A
C1254  O1302   1.383   .     S
C1255  H1257   1.084   .     S
C1256  H1258   1.061   .     S
C1256  C332    1.389   1_556 S
H1260  C1344   1.083   .     S
C1261  C1266   1.408   .     A
C1261  O1307   1.385   .     S
C1262  C1265   1.405   .     A
C1262  O1312   1.386   .     S
C1262  C1570   1.396   .     S
C1263  O1317   1.384   .     S
C1263  C1567   1.397   .     S
C1263  C1367   1.405   .     S
C1264  O1322   1.384   .     S
C1264  C1470   1.406   1_455 S
C1265  C1467   1.405   1_455 S
C1266  C1366   1.406   .     S
C1267  N1276   1.368   .     A
C1267  H1269   1.082   .     S
C1267  C1271   1.420   .     A
C1268  H1270   1.082   .     S
C1268  N1275   1.368   .     A
C1268  C1272   1.420   .     A
C1271  H1273   1.081   .     S
C1271  N1275   1.368   .     A
C1272  H1274   1.082   .     S
C1272  N1276   1.368   .     A
O1277  C1278   1.412   .     S
C1278  H1280   1.114   .     S
C1278  H1279   1.113   .     S
C1278  H1281   1.108   .     S
O1282  C1283   1.410   .     S
C1283  H1284   1.113   .     S
C1283  H1285   1.113   .     S
C1283  H1286   1.109   .     S
O1287  C1288   1.410   .     S
O1287  C1346   1.391   .     S
C1288  H1291   1.109   .     S
C1288  H1289   1.114   .     S
C1288  H1290   1.107   .     S
O1292  C1293   1.418   .     S
O1292  C1447   1.383   1_455 S
C1293  H1294   1.109   .     S
C1293  H1295   1.106   .     S
C1293  H1296   1.114   .     S
O1297  C1298   1.410   .     S
C1298  H1300   1.114   .     S
C1298  H1301   1.109   .     S
C1298  H1299   1.113   .     S
O1302  C1303   1.409   .     S
C1303  H1305   1.113   .     S
C1303  H1304   1.113   .     S
C1303  H1306   1.109   .     S
O1307  C1308   1.412   .     S
C1308  H1311   1.111   .     S
C1308  H1309   1.110   .     S
C1308  H1310   1.114   .     S
O1312  C1313   1.412   .     S
C1313  H1315   1.109   .     S
C1313  H1316   1.111   .     S
C1313  H1314   1.114   .     S
O1317  C1318   1.411   .     S
C1318  H1319   1.109   .     S
C1318  H1422   1.113   .     S
C1318  H1423   1.113   .     S
H1320  C1522   1.113   1_455 S
H1321  C1522   1.113   1_455 S
O1322  C1323   1.411   .     S
C1323  H1325   1.108   .     S
C1323  H1528   1.112   1_455 S
C1323  H1530   1.114   1_455 S
H1324  C1425   1.112   .     S
H1326  C1425   1.114   .     S
O1327  Cu1339  1.957   .     S
O1328  Cu1340  1.957   .     S
O1328  C1434   1.295   .     S
O1329  Cu1340  1.959   .     S
O1329  C1331   1.292   .     A
O1330  Cu1339  1.959   .     S
O1330  C1332   1.291   .     A
C1331  C1368   1.447   .     S
C1331  O1429   1.295   .     S
C1332  C1367   1.445   .     S
O1333  Cu1339  1.945   .     S
O1334  Cu1340  1.945   .     S
O1334  C1440   1.301   .     S
O1335  Cu1340  1.947   .     S
O1335  C1337   1.304   .     A
O1336  C1338   1.303   .     A
O1336  Cu1339  1.947   .     S
C1337  C1341   1.481   .     S
C1337  O1435   1.300   .     S
C1338  C1342   1.482   .     S
Cu1339 N1377   2.022   .     S
Cu1340 N1378   2.022   .     S
Cu1340 Cu1441  2.691   .     S
C1341  C1345   1.413   .     A
C1341  C1347   1.407   .     A
C1342  C1348   1.418   .     A
C1342  C1346   1.413   .     A
C1343  C1351   1.393   .     A
C1343  C1345   1.400   .     A
C1343  H1361   1.079   .     S
C1344  C1352   1.395   .     A
C1344  C1346   1.401   .     A
C1345  O1496   1.383   .     S
C1347  C1349   1.418   .     A
C1347  O1384   1.385   .     S
C1348  O1379   1.384   .     S
C1348  C1350   1.414   .     A
C1349  C1353   1.411   .     A
C1349  C1351   1.408   .     A
C1350  C1352   1.411   .     A
C1350  C1354   1.424   .     A
C1351  C439    1.400   1_556 S
C1353  C1356   1.409   .     A
C1353  C436    1.416   1_556 S
C1354  C1355   1.420   .     A
C1355  O1399   1.383   .     S
C1355  C1357   1.399   .     A
C1356  C1358   1.384   .     A
C1356  O1404   1.383   .     S
C1357  H1359   1.084   .     S
C1358  H1360   1.061   .     S
C1358  C434    1.389   1_556 S
H1362  C1446   1.083   .     S
C1363  C1368   1.408   .     A
C1363  O1409   1.385   .     S
C1364  C1367   1.405   .     A
C1364  O1414   1.386   .     S
C1364  C1672   1.396   .     S
C1365  O1419   1.384   .     S
C1365  C1669   1.397   .     S
C1365  C1469   1.405   .     S
C1366  O1424   1.384   .     S
C1368  C1468   1.406   .     S
C1369  N1378   1.368   .     A
C1369  H1371   1.082   .     S
C1369  C1373   1.420   .     A
C1370  H1372   1.082   .     S
C1370  N1377   1.368   .     A
C1370  C1374   1.420   .     A
C1373  H1375   1.081   .     S
C1373  N1377   1.368   .     A
C1374  H1376   1.082   .     S
C1374  N1378   1.368   .     A
O1379  C1380   1.412   .     S
C1380  H1382   1.114   .     S
C1380  H1381   1.113   .     S
C1380  H1383   1.108   .     S
O1384  C1385   1.410   .     S
C1385  H1386   1.113   .     S
C1385  H1387   1.113   .     S
C1385  H1388   1.109   .     S
O1389  C1390   1.410   .     S
O1389  C1448   1.391   .     S
C1390  H1393   1.109   .     S
C1390  H1391   1.114   .     S
C1390  H1392   1.107   .     S
O1394  C1395   1.418   .     S
C1395  H1396   1.109   .     S
C1395  H1397   1.106   .     S
C1395  H1398   1.114   .     S
O1399  C1400   1.410   .     S
C1400  H1402   1.114   .     S
C1400  H1403   1.109   .     S
C1400  H1401   1.113   .     S
O1404  C1405   1.409   .     S
C1405  H1407   1.113   .     S
C1405  H1406   1.113   .     S
C1405  H1408   1.109   .     S
O1409  C1410   1.412   .     S
C1410  H1413   1.111   .     S
C1410  H1411   1.110   .     S
C1410  H1412   1.114   .     S
O1414  C1415   1.412   .     S
C1415  H1417   1.109   .     S
C1415  H1418   1.111   .     S
C1415  H1416   1.114   .     S
O1419  C1420   1.411   .     S
C1420  H1421   1.109   .     S
C1420  H1524   1.113   .     S
C1420  H1525   1.113   .     S
O1424  C1425   1.411   .     S
C1425  H1427   1.108   .     S
H1426  C1527   1.112   .     S
H1428  C1527   1.114   .     S
O1429  Cu1441  1.957   .     S
O1430  Cu1442  1.957   .     S
O1430  C1230   1.295   1_655 S
O1431  Cu1442  1.959   .     S
O1431  C1433   1.292   .     A
O1432  Cu1441  1.959   .     S
O1432  C1434   1.291   .     A
C1433  C1470   1.447   .     S
C1433  O1225   1.295   1_655 S
C1434  C1469   1.445   .     S
O1435  Cu1441  1.945   .     S
O1436  Cu1442  1.945   .     S
O1436  C1236   1.301   1_655 S
O1437  Cu1442  1.947   .     S
O1437  C1439   1.304   .     A
O1438  C1440   1.303   .     A
O1438  Cu1441  1.947   .     S
C1439  C1443   1.481   .     S
C1439  O1231   1.300   1_655 S
C1440  C1444   1.482   .     S
Cu1441 N1479   2.022   .     S
Cu1442 N1480   2.022   .     S
Cu1442 Cu1237  2.691   1_655 S
C1443  C1447   1.413   .     A
C1443  C1449   1.407   .     A
C1444  C1450   1.418   .     A
C1444  C1448   1.413   .     A
C1445  C1453   1.393   .     A
C1445  C1447   1.400   .     A
C1445  H1463   1.079   .     S
C1446  C1454   1.395   .     A
C1446  C1448   1.401   .     A
C1447  O1292   1.383   1_655 S
C1449  C1451   1.418   .     A
C1449  O1486   1.385   .     S
C1450  O1481   1.384   .     S
C1450  C1452   1.414   .     A
C1451  C1455   1.411   .     A
C1451  C1453   1.408   .     A
C1452  C1454   1.411   .     A
C1452  C1456   1.424   .     A
C1453  C541    1.400   1_556 S
C1455  C1458   1.409   .     A
C1455  C538    1.416   1_556 S
C1456  C1457   1.420   .     A
C1457  O1501   1.383   .     S
C1457  C1459   1.399   .     A
C1458  C1460   1.384   .     A
C1458  O1506   1.383   .     S
C1459  H1461   1.084   .     S
C1460  H1462   1.061   .     S
C1460  C536    1.389   1_556 S
H1464  C1242   1.083   1_655 S
C1465  C1470   1.408   .     A
C1465  O1511   1.385   .     S
C1466  C1469   1.405   .     A
C1466  O1516   1.386   .     S
C1466  C1774   1.396   .     S
C1467  O1521   1.384   .     S
C1467  C1771   1.397   .     S
C1467  C1265   1.405   1_655 S
C1468  O1526   1.384   .     S
C1470  C1264   1.406   1_655 S
C1471  N1480   1.368   .     A
C1471  H1473   1.082   .     S
C1471  C1475   1.420   .     A
C1472  H1474   1.082   .     S
C1472  N1479   1.368   .     A
C1472  C1476   1.420   .     A
C1475  H1477   1.081   .     S
C1475  N1479   1.368   .     A
C1476  H1478   1.082   .     S
C1476  N1480   1.368   .     A
O1481  C1482   1.412   .     S
C1482  H1484   1.114   .     S
C1482  H1483   1.113   .     S
C1482  H1485   1.108   .     S
O1486  C1487   1.410   .     S
C1487  H1488   1.113   .     S
C1487  H1489   1.113   .     S
C1487  H1490   1.109   .     S
O1491  C1492   1.410   .     S
O1491  C1244   1.391   1_655 S
C1492  H1495   1.109   .     S
C1492  H1493   1.114   .     S
C1492  H1494   1.107   .     S
O1496  C1497   1.418   .     S
C1497  H1498   1.109   .     S
C1497  H1499   1.106   .     S
C1497  H1500   1.114   .     S
O1501  C1502   1.410   .     S
C1502  H1504   1.114   .     S
C1502  H1505   1.109   .     S
C1502  H1503   1.113   .     S
O1506  C1507   1.409   .     S
C1507  H1509   1.113   .     S
C1507  H1508   1.113   .     S
C1507  H1510   1.109   .     S
O1511  C1512   1.412   .     S
C1512  H1515   1.111   .     S
C1512  H1513   1.110   .     S
C1512  H1514   1.114   .     S
O1516  C1517   1.412   .     S
C1517  H1519   1.109   .     S
C1517  H1520   1.111   .     S
C1517  H1518   1.114   .     S
O1521  C1522   1.411   .     S
C1522  H1523   1.109   .     S
C1522  H1320   1.113   1_655 S
C1522  H1321   1.113   1_655 S
O1526  C1527   1.411   .     S
C1527  H1529   1.108   .     S
H1528  C1323   1.112   1_655 S
H1530  C1323   1.114   1_655 S
O1531  Cu1543  1.957   .     S
O1531  C1739   1.295   1_455 S
O1532  Cu1544  1.957   .     S
O1532  C1638   1.295   .     S
O1533  Cu1544  1.959   .     S
O1533  C1535   1.292   .     A
O1534  Cu1543  1.959   .     S
O1534  C1536   1.291   .     A
C1535  C1572   1.447   .     S
C1535  O1633   1.295   .     S
C1536  C1571   1.445   .     S
C1536  O1736   1.295   1_455 S
O1537  Cu1543  1.945   .     S
O1537  C1745   1.300   1_455 S
O1538  Cu1544  1.945   .     S
O1538  C1644   1.301   .     S
O1539  Cu1544  1.947   .     S
O1539  C1541   1.304   .     A
O1540  C1542   1.303   .     A
O1540  Cu1543  1.947   .     S
C1541  C1545   1.481   .     S
C1541  O1639   1.300   .     S
C1542  C1546   1.482   .     S
C1542  O1742   1.301   1_455 S
Cu1543 N1581   2.022   .     S
Cu1543 Cu1748  2.691   1_455 S
Cu1544 N1582   2.022   .     S
Cu1544 Cu1645  2.691   .     S
C1545  C1549   1.413   .     A
C1545  C1551   1.407   .     A
C1546  C1552   1.418   .     A
C1546  C1550   1.413   .     A
C1547  C1555   1.393   .     A
C1547  C1549   1.400   .     A
C1547  H1565   1.079   .     S
C1548  C1556   1.395   .     A
C1548  C1550   1.401   .     A
C1548  H1770   1.083   1_455 S
C1549  O1700   1.383   .     S
C1550  O1797   1.391   1_455 S
C1551  C1553   1.418   .     A
C1551  O1588   1.385   .     S
C1552  O1583   1.384   .     S
C1552  C1554   1.414   .     A
C1553  C1557   1.411   .     A
C1553  C1555   1.408   .     A
C1554  C1556   1.411   .     A
C1554  C1558   1.424   .     A
C1555  C643    1.400   1_556 S
C1557  C1560   1.409   .     A
C1557  C640    1.416   1_556 S
C1558  C1559   1.420   .     A
C1559  O1603   1.383   .     S
C1559  C1561   1.399   .     A
C1560  C1562   1.384   .     A
C1560  O1608   1.383   .     S
C1561  H1563   1.084   .     S
C1562  H1564   1.061   .     S
C1562  C638    1.389   1_556 S
H1566  C1650   1.083   .     S
C1567  C1572   1.408   .     A
C1567  O1613   1.385   .     S
C1568  C1571   1.405   .     A
C1568  O1618   1.386   .     S
C1568  C958    1.396   1_565 S
C1569  O1623   1.384   .     S
C1569  C955    1.397   1_565 S
C1569  C1673   1.405   .     S
C1570  O1628   1.384   .     S
C1570  C1776   1.406   1_455 S
C1571  C1773   1.405   1_455 S
C1572  C1672   1.406   .     S
C1573  N1582   1.368   .     A
C1573  H1575   1.082   .     S
C1573  C1577   1.420   .     A
C1574  H1576   1.082   .     S
C1574  N1581   1.368   .     A
C1574  C1578   1.420   .     A
C1577  H1579   1.081   .     S
C1577  N1581   1.368   .     A
C1578  H1580   1.082   .     S
C1578  N1582   1.368   .     A
O1583  C1584   1.412   .     S
C1584  H1586   1.114   .     S
C1584  H1585   1.113   .     S
C1584  H1587   1.108   .     S
O1588  C1589   1.410   .     S
C1589  H1590   1.113   .     S
C1589  H1591   1.113   .     S
C1589  H1592   1.109   .     S
O1593  C1594   1.410   .     S
O1593  C1652   1.391   .     S
C1594  H1597   1.109   .     S
C1594  H1595   1.114   .     S
C1594  H1596   1.107   .     S
O1598  C1599   1.418   .     S
O1598  C1753   1.383   1_455 S
C1599  H1600   1.109   .     S
C1599  H1601   1.106   .     S
C1599  H1602   1.114   .     S
O1603  C1604   1.410   .     S
C1604  H1606   1.114   .     S
C1604  H1607   1.109   .     S
C1604  H1605   1.113   .     S
O1608  C1609   1.409   .     S
C1609  H1611   1.113   .     S
C1609  H1610   1.113   .     S
C1609  H1612   1.109   .     S
O1613  C1614   1.412   .     S
C1614  H1617   1.111   .     S
C1614  H1615   1.110   .     S
C1614  H1616   1.114   .     S
O1618  C1619   1.412   .     S
C1619  H1621   1.109   .     S
C1619  H1622   1.111   .     S
C1619  H1620   1.114   .     S
O1623  C1624   1.411   .     S
C1624  H1625   1.109   .     S
C1624  H1728   1.113   .     S
C1624  H1729   1.113   .     S
H1626  C1828   1.113   1_455 S
H1627  C1828   1.113   1_455 S
O1628  C1629   1.411   .     S
C1629  H1631   1.108   .     S
C1629  H1834   1.112   1_455 S
C1629  H1836   1.114   1_455 S
H1630  C1731   1.112   .     S
H1632  C1731   1.114   .     S
O1633  Cu1645  1.957   .     S
O1634  Cu1646  1.957   .     S
O1634  C1740   1.295   .     S
O1635  Cu1646  1.959   .     S
O1635  C1637   1.292   .     A
O1636  Cu1645  1.959   .     S
O1636  C1638   1.291   .     A
C1637  C1674   1.447   .     S
C1637  O1735   1.295   .     S
C1638  C1673   1.445   .     S
O1639  Cu1645  1.945   .     S
O1640  Cu1646  1.945   .     S
O1640  C1746   1.301   .     S
O1641  Cu1646  1.947   .     S
O1641  C1643   1.304   .     A
O1642  C1644   1.303   .     A
O1642  Cu1645  1.947   .     S
C1643  C1647   1.481   .     S
C1643  O1741   1.300   .     S
C1644  C1648   1.482   .     S
Cu1645 N1683   2.022   .     S
Cu1646 N1684   2.022   .     S
Cu1646 Cu1747  2.691   .     S
C1647  C1651   1.413   .     A
C1647  C1653   1.407   .     A
C1648  C1654   1.418   .     A
C1648  C1652   1.413   .     A
C1649  C1657   1.393   .     A
C1649  C1651   1.400   .     A
C1649  H1667   1.079   .     S
C1650  C1658   1.395   .     A
C1650  C1652   1.401   .     A
C1651  O1802   1.383   .     S
C1653  C1655   1.418   .     A
C1653  O1690   1.385   .     S
C1654  O1685   1.384   .     S
C1654  C1656   1.414   .     A
C1655  C1659   1.411   .     A
C1655  C1657   1.408   .     A
C1656  C1658   1.411   .     A
C1656  C1660   1.424   .     A
C1657  C745    1.400   1_556 S
C1659  C1662   1.409   .     A
C1659  C742    1.416   1_556 S
C1660  C1661   1.420   .     A
C1661  O1705   1.383   .     S
C1661  C1663   1.399   .     A
C1662  C1664   1.384   .     A
C1662  O1710   1.383   .     S
C1663  H1665   1.084   .     S
C1664  H1666   1.061   .     S
C1664  C740    1.389   1_556 S
H1668  C1752   1.083   .     S
C1669  C1674   1.408   .     A
C1669  O1715   1.385   .     S
C1670  C1673   1.405   .     A
C1670  O1720   1.386   .     S
C1670  C1060   1.396   1_565 S
C1671  O1725   1.384   .     S
C1671  C1057   1.397   1_565 S
C1671  C1775   1.405   .     S
C1672  O1730   1.384   .     S
C1674  C1774   1.406   .     S
C1675  N1684   1.368   .     A
C1675  H1677   1.082   .     S
C1675  C1679   1.420   .     A
C1676  H1678   1.082   .     S
C1676  N1683   1.368   .     A
C1676  C1680   1.420   .     A
C1679  H1681   1.081   .     S
C1679  N1683   1.368   .     A
C1680  H1682   1.082   .     S
C1680  N1684   1.368   .     A
O1685  C1686   1.412   .     S
C1686  H1688   1.114   .     S
C1686  H1687   1.113   .     S
C1686  H1689   1.108   .     S
O1690  C1691   1.410   .     S
C1691  H1692   1.113   .     S
C1691  H1693   1.113   .     S
C1691  H1694   1.109   .     S
O1695  C1696   1.410   .     S
O1695  C1754   1.391   .     S
C1696  H1699   1.109   .     S
C1696  H1697   1.114   .     S
C1696  H1698   1.107   .     S
O1700  C1701   1.418   .     S
C1701  H1702   1.109   .     S
C1701  H1703   1.106   .     S
C1701  H1704   1.114   .     S
O1705  C1706   1.410   .     S
C1706  H1708   1.114   .     S
C1706  H1709   1.109   .     S
C1706  H1707   1.113   .     S
O1710  C1711   1.409   .     S
C1711  H1713   1.113   .     S
C1711  H1712   1.113   .     S
C1711  H1714   1.109   .     S
O1715  C1716   1.412   .     S
C1716  H1719   1.111   .     S
C1716  H1717   1.110   .     S
C1716  H1718   1.114   .     S
O1720  C1721   1.412   .     S
C1721  H1723   1.109   .     S
C1721  H1724   1.111   .     S
C1721  H1722   1.114   .     S
O1725  C1726   1.411   .     S
C1726  H1727   1.109   .     S
C1726  H1830   1.113   .     S
C1726  H1831   1.113   .     S
O1730  C1731   1.411   .     S
C1731  H1733   1.108   .     S
H1732  C1833   1.112   .     S
H1734  C1833   1.114   .     S
O1735  Cu1747  1.957   .     S
O1736  Cu1748  1.957   .     S
O1736  C1536   1.295   1_655 S
O1737  Cu1748  1.959   .     S
O1737  C1739   1.292   .     A
O1738  Cu1747  1.959   .     S
O1738  C1740   1.291   .     A
C1739  C1776   1.447   .     S
C1739  O1531   1.295   1_655 S
C1740  C1775   1.445   .     S
O1741  Cu1747  1.945   .     S
O1742  Cu1748  1.945   .     S
O1742  C1542   1.301   1_655 S
O1743  Cu1748  1.947   .     S
O1743  C1745   1.304   .     A
O1744  C1746   1.303   .     A
O1744  Cu1747  1.947   .     S
C1745  C1749   1.481   .     S
C1745  O1537   1.300   1_655 S
C1746  C1750   1.482   .     S
Cu1747 N1785   2.022   .     S
Cu1748 N1786   2.022   .     S
Cu1748 Cu1543  2.691   1_655 S
C1749  C1753   1.413   .     A
C1749  C1755   1.407   .     A
C1750  C1756   1.418   .     A
C1750  C1754   1.413   .     A
C1751  C1759   1.393   .     A
C1751  C1753   1.400   .     A
C1751  H1769   1.079   .     S
C1752  C1760   1.395   .     A
C1752  C1754   1.401   .     A
C1753  O1598   1.383   1_655 S
C1755  C1757   1.418   .     A
C1755  O1792   1.385   .     S
C1756  O1787   1.384   .     S
C1756  C1758   1.414   .     A
C1757  C1761   1.411   .     A
C1757  C1759   1.408   .     A
C1758  C1760   1.411   .     A
C1758  C1762   1.424   .     A
C1759  C847    1.400   1_556 S
C1761  C1764   1.409   .     A
C1761  C844    1.416   1_556 S
C1762  C1763   1.420   .     A
C1763  O1807   1.383   .     S
C1763  C1765   1.399   .     A
C1764  C1766   1.384   .     A
C1764  O1812   1.383   .     S
C1765  H1767   1.084   .     S
C1766  H1768   1.061   .     S
C1766  C842    1.389   1_556 S
H1770  C1548   1.083   1_655 S
C1771  C1776   1.408   .     A
C1771  O1817   1.385   .     S
C1772  C1775   1.405   .     A
C1772  O1822   1.386   .     S
C1772  C1162   1.396   1_565 S
C1773  O1827   1.384   .     S
C1773  C1159   1.397   1_565 S
C1773  C1571   1.405   1_655 S
C1774  O1832   1.384   .     S
C1776  C1570   1.406   1_655 S
C1777  N1786   1.368   .     A
C1777  H1779   1.082   .     S
C1777  C1781   1.420   .     A
C1778  H1780   1.082   .     S
C1778  N1785   1.368   .     A
C1778  C1782   1.420   .     A
C1781  H1783   1.081   .     S
C1781  N1785   1.368   .     A
C1782  H1784   1.082   .     S
C1782  N1786   1.368   .     A
O1787  C1788   1.412   .     S
C1788  H1790   1.114   .     S
C1788  H1789   1.113   .     S
C1788  H1791   1.108   .     S
O1792  C1793   1.410   .     S
C1793  H1794   1.113   .     S
C1793  H1795   1.113   .     S
C1793  H1796   1.109   .     S
O1797  C1798   1.410   .     S
O1797  C1550   1.391   1_655 S
C1798  H1801   1.109   .     S
C1798  H1799   1.114   .     S
C1798  H1800   1.107   .     S
O1802  C1803   1.418   .     S
C1803  H1804   1.109   .     S
C1803  H1805   1.106   .     S
C1803  H1806   1.114   .     S
O1807  C1808   1.410   .     S
C1808  H1810   1.114   .     S
C1808  H1811   1.109   .     S
C1808  H1809   1.113   .     S
O1812  C1813   1.409   .     S
C1813  H1815   1.113   .     S
C1813  H1814   1.113   .     S
C1813  H1816   1.109   .     S
O1817  C1818   1.412   .     S
C1818  H1821   1.111   .     S
C1818  H1819   1.110   .     S
C1818  H1820   1.114   .     S
O1822  C1823   1.412   .     S
C1823  H1825   1.109   .     S
C1823  H1826   1.111   .     S
C1823  H1824   1.114   .     S
O1827  C1828   1.411   .     S
C1828  H1829   1.109   .     S
C1828  H1626   1.113   1_655 S
C1828  H1627   1.113   1_655 S
O1832  C1833   1.411   .     S
C1833  H1835   1.108   .     S
H1834  C1629   1.112   1_655 S
H1836  C1629   1.114   1_655 S
