data_str_m2_o1_o17_pcu_sym.160
_audit_creation_date              2020-01-03
_audit_creation_method            'Materials Studio'
_symmetry_space_group_name_H-M    'P1'
_symmetry_Int_Tables_number       1
_symmetry_cell_setting            triclinic
loop_
_symmetry_equiv_pos_as_xyz
  x,y,z
_cell_length_a                    32.8859
_cell_length_b                    29.5179
_cell_length_c                    30.1999
_cell_angle_alpha                 90.5066
_cell_angle_beta                  95.6447
_cell_angle_gamma                 88.7281
loop_
_atom_site_label
_atom_site_type_symbol
_atom_site_fract_x
_atom_site_fract_y
_atom_site_fract_z
_atom_site_U_iso_or_equiv
_atom_site_adp_type
_atom_site_occupancy
C1     C     0.08785   0.16719   0.25055   0.00000  Uiso   1.00
C2     C     0.24573   0.16621   0.24921   0.00000  Uiso   1.00
C3     C     0.11571   0.10875   0.01619   0.00000  Uiso   1.00
C4     C     0.22290   0.22192   0.48500   0.00000  Uiso   1.00
C5     C     0.02449   0.13124   0.26888   0.00000  Uiso   1.00
C6     C     0.30980   0.20417   0.23224   0.00000  Uiso   1.00
C7     C     0.31553   0.12836   0.26446   0.00000  Uiso   1.00
C8     C     0.01928   0.20499   0.23304   0.00000  Uiso   1.00
C9     C     0.29072   0.16572   0.24808   0.00000  Uiso   1.00
C10    C     0.04329   0.16816   0.25105   0.00000  Uiso   1.00
C11    C     0.14149   0.02493   0.21936   0.00000  Uiso   1.00
C12    C     0.18663   0.30915   0.28441   0.00000  Uiso   1.00
C13    C     0.18876   0.02455   0.28317   0.00000  Uiso   1.00
C14    C     0.14413   0.30927   0.21713   0.00000  Uiso   1.00
C15    C     0.16504   0.16649   0.16469   0.00000  Uiso   1.00
C16    C     0.16940   0.16673   0.33549   0.00000  Uiso   1.00
C17    C     0.20531   0.18318   0.41244   0.00000  Uiso   1.00
C18    C     0.13218   0.14850   0.08792   0.00000  Uiso   1.00
C19    C     0.17158   0.16602   0.38446   0.00000  Uiso   1.00
C20    C     0.16491   0.16639   0.11621   0.00000  Uiso   1.00
C21    C     0.13931   0.14545   0.40374   0.00000  Uiso   1.00
C22    C     0.19811   0.18596   0.09821   0.00000  Uiso   1.00
C23    C     0.14163   0.13963   0.45006   0.00000  Uiso   1.00
C24    C     0.19722   0.19108   0.05154   0.00000  Uiso   1.00
C25    C     0.17036   0.16481   0.47743   0.00000  Uiso   1.00
C26    C     0.16863   0.16570   0.02391   0.00000  Uiso   1.00
C27    C     0.20020   0.18984   0.45822   0.00000  Uiso   1.00
C28    C     0.13832   0.14095   0.04276   0.00000  Uiso   1.00
C29    C     0.11617   0.10922   0.46968   0.00000  Uiso   1.00
C30    C     0.22310   0.22095   0.03166   0.00000  Uiso   1.00
Cu31   Cu    0.16667   0.21355   0.25000   0.00000  Uiso   1.00
Cu32   Cu    0.16667   0.11978   0.25000   0.00000  Uiso   1.00
N33    N     0.16667   0.28402   0.25000   0.00000  Uiso   1.00
N34    N     0.16667   0.04931   0.25000   0.00000  Uiso   1.00
O35    O     0.10655   0.20625   0.24999   0.00000  Uiso   1.00
O36    O     0.22679   0.12709   0.25000   0.00000  Uiso   1.00
O37    O     0.22679   0.20625   0.25000   0.00000  Uiso   1.00
O38    O     0.10655   0.12709   0.24999   0.00000  Uiso   1.00
O39    O     0.16666   0.20627   0.18513   0.00000  Uiso   1.00
O40    O     0.16668   0.12707   0.31487   0.00000  Uiso   1.00
O41    O     0.16668   0.20627   0.31487   0.00000  Uiso   1.00
O42    O     0.16666   0.12707   0.18513   0.00000  Uiso   1.00
C43    C     0.24681   0.19325   0.39588   0.00000  Uiso   1.00
C44    C     0.26526   0.15583   0.36894   0.00000  Uiso   1.00
H45    H     0.27115   0.12483   0.38925   0.00000  Uiso   1.00
H46    H     0.24548   0.14880   0.33834   0.00000  Uiso   1.00
H47    H     0.29505   0.16699   0.35891   0.00000  Uiso   1.00
H48    H     0.24542   0.22518   0.37750   0.00000  Uiso   1.00
H49    H     0.27036   0.19748   0.42437   0.00000  Uiso   1.00
C50    C     0.08975   0.14200   0.10338   0.00000  Uiso   1.00
C51    C     0.07274   0.18310   0.12688   0.00000  Uiso   1.00
H52    H     0.08707   0.18544   0.16131   0.00000  Uiso   1.00
H53    H     0.07725   0.21462   0.10841   0.00000  Uiso   1.00
H54    H     0.03944   0.17918   0.12882   0.00000  Uiso   1.00
H55    H     0.06684   0.13655   0.07452   0.00000  Uiso   1.00
H56    H     0.08964   0.11188   0.12442   0.00000  Uiso   1.00
N57    N     0.10310   0.13233   0.37668   0.00000  Uiso   1.00
H58    H     0.11041   0.10544   0.35607   0.00000  Uiso   1.00
H59    H     0.09180   0.15987   0.35729   0.00000  Uiso   1.00
N60    N     0.23303   0.19789   0.12807   0.00000  Uiso   1.00
H61    H     0.25972   0.18562   0.11554   0.00000  Uiso   1.00
H62    H     0.23380   0.23295   0.13212   0.00000  Uiso   1.00
N63    N     0.09269   0.07700   0.44259   0.00000  Uiso   1.00
H64    H     0.06184   0.08145   0.44753   0.00000  Uiso   1.00
H65    H     0.10234   0.04420   0.45197   0.00000  Uiso   1.00
N66    N     0.24753   0.25256   0.05837   0.00000  Uiso   1.00
H67    H     0.23821   0.28560   0.04953   0.00000  Uiso   1.00
H68    H     0.27817   0.24755   0.05275   0.00000  Uiso   1.00
N69    N     0.09575   0.07287   0.03691   0.00000  Uiso   1.00
H70    H     0.10966   0.04195   0.02936   0.00000  Uiso   1.00
H71    H     0.06501   0.07244   0.02429   0.00000  Uiso   1.00
N72    N     0.24181   0.25873   0.46447   0.00000  Uiso   1.00
H73    H     0.27267   0.25979   0.47654   0.00000  Uiso   1.00
H74    H     0.22736   0.28915   0.47259   0.00000  Uiso   1.00
N75    N     0.04843   0.09735   0.29425   0.00000  Uiso   1.00
H76    H     0.03900   0.09734   0.32632   0.00000  Uiso   1.00
H77    H     0.04213   0.06546   0.28042   0.00000  Uiso   1.00
N78    N     0.28565   0.24221   0.21454   0.00000  Uiso   1.00
H79    H     0.29227   0.24811   0.18200   0.00000  Uiso   1.00
H80    H     0.29322   0.27084   0.23397   0.00000  Uiso   1.00
N81    N     0.29946   0.08732   0.27942   0.00000  Uiso   1.00
H82    H     0.27989   0.07244   0.25438   0.00000  Uiso   1.00
H83    H     0.28623   0.09433   0.30854   0.00000  Uiso   1.00
N84    N     0.03844   0.24338   0.21570   0.00000  Uiso   1.00
H85    H     0.03079   0.27241   0.23338   0.00000  Uiso   1.00
H86    H     0.02796   0.24745   0.18216   0.00000  Uiso   1.00
C87    C     0.10957   0.04933   0.18765   0.00000  Uiso   1.00
C88    C     0.06522   0.04072   0.19670   0.00000  Uiso   1.00
H89    H     0.04776   0.02666   0.16653   0.00000  Uiso   1.00
H90    H     0.06359   0.01689   0.22468   0.00000  Uiso   1.00
H91    H     0.04943   0.07304   0.20414   0.00000  Uiso   1.00
H92    H     0.11284   0.08540   0.18922   0.00000  Uiso   1.00
H93    H     0.11397   0.04086   0.15271   0.00000  Uiso   1.00
C94    C     0.20291   0.28612   0.32666   0.00000  Uiso   1.00
C95    C     0.16895   0.28432   0.35879   0.00000  Uiso   1.00
H96    H     0.16030   0.31752   0.37180   0.00000  Uiso   1.00
H97    H     0.13969   0.27184   0.34222   0.00000  Uiso   1.00
H98    H     0.17912   0.26341   0.38802   0.00000  Uiso   1.00
H99    H     0.21684   0.25376   0.31752   0.00000  Uiso   1.00
H100   H     0.23016   0.30165   0.34413   0.00000  Uiso   1.00
C101   C     0.21746   0.04850   0.31802   0.00000  Uiso   1.00
C102   C     0.20269   0.05360   0.36452   0.00000  Uiso   1.00
H103   H     0.16891   0.05606   0.36260   0.00000  Uiso   1.00
H104   H     0.21496   0.02618   0.38714   0.00000  Uiso   1.00
H105   H     0.21433   0.08493   0.38076   0.00000  Uiso   1.00
H106   H     0.24829   0.03219   0.32027   0.00000  Uiso   1.00
H107   H     0.22238   0.08213   0.30698   0.00000  Uiso   1.00
C108   C     0.12204   0.28588   0.17705   0.00000  Uiso   1.00
C109   C     0.14746   0.28601   0.13706   0.00000  Uiso   1.00
H110   H     0.14543   0.31922   0.12016   0.00000  Uiso   1.00
H111   H     0.18015   0.27893   0.14771   0.00000  Uiso   1.00
H112   H     0.13613   0.26020   0.11226   0.00000  Uiso   1.00
H113   H     0.11283   0.25220   0.18587   0.00000  Uiso   1.00
H114   H     0.09184   0.30082   0.16632   0.00000  Uiso   1.00
C115   C     0.42118   0.16719   0.25055   0.00000  Uiso   1.00
C116   C     0.57906   0.16621   0.24921   0.00000  Uiso   1.00
C117   C     0.44905   0.10875   0.01619   0.00000  Uiso   1.00
C118   C     0.55623   0.22192   0.48500   0.00000  Uiso   1.00
C119   C     0.35782   0.13124   0.26888   0.00000  Uiso   1.00
C120   C     0.64314   0.20417   0.23224   0.00000  Uiso   1.00
C121   C     0.64886   0.12836   0.26446   0.00000  Uiso   1.00
C122   C     0.35262   0.20499   0.23304   0.00000  Uiso   1.00
C123   C     0.62405   0.16572   0.24808   0.00000  Uiso   1.00
C124   C     0.37662   0.16816   0.25105   0.00000  Uiso   1.00
C125   C     0.47482   0.02493   0.21936   0.00000  Uiso   1.00
C126   C     0.51997   0.30915   0.28441   0.00000  Uiso   1.00
C127   C     0.52209   0.02455   0.28317   0.00000  Uiso   1.00
C128   C     0.47746   0.30927   0.21713   0.00000  Uiso   1.00
C129   C     0.49837   0.16649   0.16469   0.00000  Uiso   1.00
C130   C     0.50274   0.16673   0.33549   0.00000  Uiso   1.00
C131   C     0.53865   0.18318   0.41244   0.00000  Uiso   1.00
C132   C     0.46552   0.14850   0.08792   0.00000  Uiso   1.00
C133   C     0.50491   0.16602   0.38446   0.00000  Uiso   1.00
C134   C     0.49824   0.16639   0.11621   0.00000  Uiso   1.00
C135   C     0.47264   0.14545   0.40374   0.00000  Uiso   1.00
C136   C     0.53144   0.18596   0.09821   0.00000  Uiso   1.00
C137   C     0.47496   0.13963   0.45006   0.00000  Uiso   1.00
C138   C     0.53055   0.19108   0.05154   0.00000  Uiso   1.00
C139   C     0.50370   0.16481   0.47743   0.00000  Uiso   1.00
C140   C     0.50197   0.16570   0.02391   0.00000  Uiso   1.00
C141   C     0.53353   0.18984   0.45822   0.00000  Uiso   1.00
C142   C     0.47166   0.14095   0.04276   0.00000  Uiso   1.00
C143   C     0.44950   0.10922   0.46968   0.00000  Uiso   1.00
C144   C     0.55644   0.22095   0.03166   0.00000  Uiso   1.00
Cu145  Cu    0.50000   0.21355   0.25000   0.00000  Uiso   1.00
Cu146  Cu    0.50000   0.11978   0.25000   0.00000  Uiso   1.00
N147   N     0.50000   0.28402   0.25000   0.00000  Uiso   1.00
N148   N     0.50000   0.04931   0.25000   0.00000  Uiso   1.00
O149   O     0.43988   0.20625   0.24999   0.00000  Uiso   1.00
O150   O     0.56012   0.12709   0.25000   0.00000  Uiso   1.00
O151   O     0.56012   0.20625   0.25000   0.00000  Uiso   1.00
O152   O     0.43988   0.12709   0.24999   0.00000  Uiso   1.00
O153   O     0.49999   0.20627   0.18513   0.00000  Uiso   1.00
O154   O     0.50001   0.12707   0.31487   0.00000  Uiso   1.00
O155   O     0.50001   0.20627   0.31487   0.00000  Uiso   1.00
O156   O     0.49999   0.12707   0.18513   0.00000  Uiso   1.00
C157   C     0.58014   0.19325   0.39588   0.00000  Uiso   1.00
C158   C     0.59859   0.15583   0.36894   0.00000  Uiso   1.00
H159   H     0.60448   0.12483   0.38925   0.00000  Uiso   1.00
H160   H     0.57882   0.14880   0.33834   0.00000  Uiso   1.00
H161   H     0.62839   0.16699   0.35891   0.00000  Uiso   1.00
H162   H     0.57876   0.22518   0.37750   0.00000  Uiso   1.00
H163   H     0.60370   0.19748   0.42437   0.00000  Uiso   1.00
C164   C     0.42309   0.14200   0.10338   0.00000  Uiso   1.00
C165   C     0.40607   0.18310   0.12688   0.00000  Uiso   1.00
H166   H     0.42041   0.18544   0.16131   0.00000  Uiso   1.00
H167   H     0.41058   0.21462   0.10841   0.00000  Uiso   1.00
H168   H     0.37277   0.17918   0.12882   0.00000  Uiso   1.00
H169   H     0.40017   0.13655   0.07452   0.00000  Uiso   1.00
H170   H     0.42297   0.11188   0.12442   0.00000  Uiso   1.00
N171   N     0.43643   0.13233   0.37668   0.00000  Uiso   1.00
H172   H     0.44375   0.10544   0.35607   0.00000  Uiso   1.00
H173   H     0.42514   0.15987   0.35729   0.00000  Uiso   1.00
N174   N     0.56637   0.19789   0.12807   0.00000  Uiso   1.00
H175   H     0.59305   0.18562   0.11554   0.00000  Uiso   1.00
H176   H     0.56714   0.23295   0.13212   0.00000  Uiso   1.00
N177   N     0.42602   0.07700   0.44259   0.00000  Uiso   1.00
H178   H     0.39517   0.08145   0.44753   0.00000  Uiso   1.00
H179   H     0.43567   0.04420   0.45197   0.00000  Uiso   1.00
N180   N     0.58086   0.25256   0.05837   0.00000  Uiso   1.00
H181   H     0.57154   0.28560   0.04953   0.00000  Uiso   1.00
H182   H     0.61150   0.24755   0.05275   0.00000  Uiso   1.00
N183   N     0.42908   0.07287   0.03691   0.00000  Uiso   1.00
H184   H     0.44299   0.04195   0.02936   0.00000  Uiso   1.00
H185   H     0.39834   0.07244   0.02429   0.00000  Uiso   1.00
N186   N     0.57514   0.25873   0.46447   0.00000  Uiso   1.00
H187   H     0.60600   0.25979   0.47654   0.00000  Uiso   1.00
H188   H     0.56069   0.28915   0.47259   0.00000  Uiso   1.00
N189   N     0.38176   0.09735   0.29425   0.00000  Uiso   1.00
H190   H     0.37233   0.09734   0.32632   0.00000  Uiso   1.00
H191   H     0.37546   0.06546   0.28042   0.00000  Uiso   1.00
N192   N     0.61898   0.24221   0.21454   0.00000  Uiso   1.00
H193   H     0.62560   0.24811   0.18200   0.00000  Uiso   1.00
H194   H     0.62655   0.27084   0.23397   0.00000  Uiso   1.00
N195   N     0.63280   0.08732   0.27942   0.00000  Uiso   1.00
H196   H     0.61323   0.07244   0.25438   0.00000  Uiso   1.00
H197   H     0.61956   0.09433   0.30854   0.00000  Uiso   1.00
N198   N     0.37178   0.24338   0.21570   0.00000  Uiso   1.00
H199   H     0.36412   0.27241   0.23338   0.00000  Uiso   1.00
H200   H     0.36130   0.24745   0.18216   0.00000  Uiso   1.00
C201   C     0.44290   0.04933   0.18765   0.00000  Uiso   1.00
C202   C     0.39855   0.04072   0.19670   0.00000  Uiso   1.00
H203   H     0.38110   0.02666   0.16653   0.00000  Uiso   1.00
H204   H     0.39692   0.01689   0.22468   0.00000  Uiso   1.00
H205   H     0.38276   0.07304   0.20414   0.00000  Uiso   1.00
H206   H     0.44618   0.08540   0.18922   0.00000  Uiso   1.00
H207   H     0.44731   0.04086   0.15271   0.00000  Uiso   1.00
C208   C     0.53624   0.28612   0.32666   0.00000  Uiso   1.00
C209   C     0.50228   0.28432   0.35879   0.00000  Uiso   1.00
H210   H     0.49363   0.31752   0.37180   0.00000  Uiso   1.00
H211   H     0.47302   0.27184   0.34222   0.00000  Uiso   1.00
H212   H     0.51245   0.26341   0.38802   0.00000  Uiso   1.00
H213   H     0.55017   0.25376   0.31752   0.00000  Uiso   1.00
H214   H     0.56349   0.30165   0.34413   0.00000  Uiso   1.00
C215   C     0.55080   0.04850   0.31802   0.00000  Uiso   1.00
C216   C     0.53603   0.05360   0.36452   0.00000  Uiso   1.00
H217   H     0.50224   0.05606   0.36260   0.00000  Uiso   1.00
H218   H     0.54829   0.02618   0.38714   0.00000  Uiso   1.00
H219   H     0.54767   0.08493   0.38076   0.00000  Uiso   1.00
H220   H     0.58162   0.03219   0.32027   0.00000  Uiso   1.00
H221   H     0.55571   0.08213   0.30698   0.00000  Uiso   1.00
C222   C     0.45538   0.28588   0.17705   0.00000  Uiso   1.00
C223   C     0.48079   0.28601   0.13706   0.00000  Uiso   1.00
H224   H     0.47877   0.31922   0.12016   0.00000  Uiso   1.00
H225   H     0.51348   0.27893   0.14771   0.00000  Uiso   1.00
H226   H     0.46946   0.26020   0.11226   0.00000  Uiso   1.00
H227   H     0.44616   0.25220   0.18587   0.00000  Uiso   1.00
H228   H     0.42517   0.30082   0.16632   0.00000  Uiso   1.00
C229   C     0.75452   0.16719   0.25055   0.00000  Uiso   1.00
C230   C     0.91239   0.16621   0.24921   0.00000  Uiso   1.00
C231   C     0.78238   0.10875   0.01619   0.00000  Uiso   1.00
C232   C     0.88957   0.22192   0.48500   0.00000  Uiso   1.00
C233   C     0.69115   0.13124   0.26888   0.00000  Uiso   1.00
C234   C     0.97647   0.20417   0.23224   0.00000  Uiso   1.00
C235   C     0.98220   0.12836   0.26446   0.00000  Uiso   1.00
C236   C     0.68595   0.20499   0.23304   0.00000  Uiso   1.00
C237   C     0.95738   0.16572   0.24808   0.00000  Uiso   1.00
C238   C     0.70995   0.16816   0.25105   0.00000  Uiso   1.00
C239   C     0.80816   0.02493   0.21936   0.00000  Uiso   1.00
C240   C     0.85330   0.30915   0.28441   0.00000  Uiso   1.00
C241   C     0.85543   0.02455   0.28317   0.00000  Uiso   1.00
C242   C     0.81079   0.30927   0.21713   0.00000  Uiso   1.00
C243   C     0.83171   0.16649   0.16469   0.00000  Uiso   1.00
C244   C     0.83607   0.16673   0.33549   0.00000  Uiso   1.00
C245   C     0.87198   0.18318   0.41244   0.00000  Uiso   1.00
C246   C     0.79885   0.14850   0.08792   0.00000  Uiso   1.00
C247   C     0.83824   0.16602   0.38446   0.00000  Uiso   1.00
C248   C     0.83158   0.16639   0.11621   0.00000  Uiso   1.00
C249   C     0.80598   0.14545   0.40374   0.00000  Uiso   1.00
C250   C     0.86478   0.18596   0.09821   0.00000  Uiso   1.00
C251   C     0.80830   0.13963   0.45006   0.00000  Uiso   1.00
C252   C     0.86389   0.19108   0.05154   0.00000  Uiso   1.00
C253   C     0.83703   0.16481   0.47743   0.00000  Uiso   1.00
C254   C     0.83530   0.16570   0.02391   0.00000  Uiso   1.00
C255   C     0.86687   0.18984   0.45822   0.00000  Uiso   1.00
C256   C     0.80499   0.14095   0.04276   0.00000  Uiso   1.00
C257   C     0.78283   0.10922   0.46968   0.00000  Uiso   1.00
C258   C     0.88977   0.22095   0.03166   0.00000  Uiso   1.00
Cu259  Cu    0.83333   0.21355   0.25000   0.00000  Uiso   1.00
Cu260  Cu    0.83333   0.11978   0.25000   0.00000  Uiso   1.00
N261   N     0.83333   0.28402   0.25000   0.00000  Uiso   1.00
N262   N     0.83333   0.04931   0.25000   0.00000  Uiso   1.00
O263   O     0.77321   0.20625   0.24999   0.00000  Uiso   1.00
O264   O     0.89345   0.12709   0.25000   0.00000  Uiso   1.00
O265   O     0.89345   0.20625   0.25000   0.00000  Uiso   1.00
O266   O     0.77321   0.12709   0.24999   0.00000  Uiso   1.00
O267   O     0.83332   0.20627   0.18513   0.00000  Uiso   1.00
O268   O     0.83334   0.12707   0.31487   0.00000  Uiso   1.00
O269   O     0.83334   0.20627   0.31487   0.00000  Uiso   1.00
O270   O     0.83332   0.12707   0.18513   0.00000  Uiso   1.00
C271   C     0.91347   0.19325   0.39588   0.00000  Uiso   1.00
C272   C     0.93193   0.15583   0.36894   0.00000  Uiso   1.00
H273   H     0.93782   0.12483   0.38925   0.00000  Uiso   1.00
H274   H     0.91215   0.14880   0.33834   0.00000  Uiso   1.00
H275   H     0.96172   0.16699   0.35891   0.00000  Uiso   1.00
H276   H     0.91209   0.22518   0.37750   0.00000  Uiso   1.00
H277   H     0.93703   0.19748   0.42437   0.00000  Uiso   1.00
C278   C     0.75642   0.14200   0.10338   0.00000  Uiso   1.00
C279   C     0.73941   0.18310   0.12688   0.00000  Uiso   1.00
H280   H     0.75374   0.18544   0.16131   0.00000  Uiso   1.00
H281   H     0.74392   0.21462   0.10841   0.00000  Uiso   1.00
H282   H     0.70610   0.17918   0.12882   0.00000  Uiso   1.00
H283   H     0.73351   0.13655   0.07452   0.00000  Uiso   1.00
H284   H     0.75630   0.11188   0.12442   0.00000  Uiso   1.00
N285   N     0.76976   0.13233   0.37668   0.00000  Uiso   1.00
H286   H     0.77708   0.10544   0.35607   0.00000  Uiso   1.00
H287   H     0.75847   0.15987   0.35729   0.00000  Uiso   1.00
N288   N     0.89970   0.19789   0.12807   0.00000  Uiso   1.00
H289   H     0.92638   0.18562   0.11554   0.00000  Uiso   1.00
H290   H     0.90047   0.23295   0.13212   0.00000  Uiso   1.00
N291   N     0.75935   0.07700   0.44259   0.00000  Uiso   1.00
H292   H     0.72850   0.08145   0.44753   0.00000  Uiso   1.00
H293   H     0.76901   0.04420   0.45197   0.00000  Uiso   1.00
N294   N     0.91419   0.25256   0.05837   0.00000  Uiso   1.00
H295   H     0.90487   0.28560   0.04953   0.00000  Uiso   1.00
H296   H     0.94483   0.24755   0.05275   0.00000  Uiso   1.00
N297   N     0.76242   0.07287   0.03691   0.00000  Uiso   1.00
H298   H     0.77633   0.04195   0.02936   0.00000  Uiso   1.00
H299   H     0.73167   0.07244   0.02429   0.00000  Uiso   1.00
N300   N     0.90848   0.25873   0.46447   0.00000  Uiso   1.00
H301   H     0.93933   0.25979   0.47654   0.00000  Uiso   1.00
H302   H     0.89403   0.28915   0.47259   0.00000  Uiso   1.00
N303   N     0.71510   0.09735   0.29425   0.00000  Uiso   1.00
H304   H     0.70566   0.09734   0.32632   0.00000  Uiso   1.00
H305   H     0.70880   0.06546   0.28042   0.00000  Uiso   1.00
N306   N     0.95231   0.24221   0.21454   0.00000  Uiso   1.00
H307   H     0.95894   0.24811   0.18200   0.00000  Uiso   1.00
H308   H     0.95988   0.27084   0.23397   0.00000  Uiso   1.00
N309   N     0.96613   0.08732   0.27942   0.00000  Uiso   1.00
H310   H     0.94656   0.07244   0.25438   0.00000  Uiso   1.00
H311   H     0.95289   0.09433   0.30854   0.00000  Uiso   1.00
N312   N     0.70511   0.24338   0.21570   0.00000  Uiso   1.00
H313   H     0.69746   0.27241   0.23338   0.00000  Uiso   1.00
H314   H     0.69463   0.24745   0.18216   0.00000  Uiso   1.00
C315   C     0.77624   0.04933   0.18765   0.00000  Uiso   1.00
C316   C     0.73188   0.04072   0.19670   0.00000  Uiso   1.00
H317   H     0.71443   0.02666   0.16653   0.00000  Uiso   1.00
H318   H     0.73026   0.01689   0.22468   0.00000  Uiso   1.00
H319   H     0.71610   0.07304   0.20414   0.00000  Uiso   1.00
H320   H     0.77951   0.08540   0.18922   0.00000  Uiso   1.00
H321   H     0.78064   0.04086   0.15271   0.00000  Uiso   1.00
C322   C     0.86958   0.28612   0.32666   0.00000  Uiso   1.00
C323   C     0.83562   0.28432   0.35879   0.00000  Uiso   1.00
H324   H     0.82697   0.31752   0.37180   0.00000  Uiso   1.00
H325   H     0.80635   0.27184   0.34222   0.00000  Uiso   1.00
H326   H     0.84579   0.26341   0.38802   0.00000  Uiso   1.00
H327   H     0.88351   0.25376   0.31752   0.00000  Uiso   1.00
H328   H     0.89682   0.30165   0.34413   0.00000  Uiso   1.00
C329   C     0.88413   0.04850   0.31802   0.00000  Uiso   1.00
C330   C     0.86936   0.05360   0.36452   0.00000  Uiso   1.00
H331   H     0.83557   0.05606   0.36260   0.00000  Uiso   1.00
H332   H     0.88163   0.02618   0.38714   0.00000  Uiso   1.00
H333   H     0.88100   0.08493   0.38076   0.00000  Uiso   1.00
H334   H     0.91496   0.03219   0.32027   0.00000  Uiso   1.00
H335   H     0.88905   0.08213   0.30698   0.00000  Uiso   1.00
C336   C     0.78871   0.28588   0.17705   0.00000  Uiso   1.00
C337   C     0.81413   0.28601   0.13706   0.00000  Uiso   1.00
H338   H     0.81210   0.31922   0.12016   0.00000  Uiso   1.00
H339   H     0.84682   0.27893   0.14771   0.00000  Uiso   1.00
H340   H     0.80279   0.26020   0.11226   0.00000  Uiso   1.00
H341   H     0.77949   0.25220   0.18587   0.00000  Uiso   1.00
H342   H     0.75851   0.30082   0.16632   0.00000  Uiso   1.00
C343   C     0.08785   0.50053   0.25055   0.00000  Uiso   1.00
C344   C     0.24573   0.49955   0.24921   0.00000  Uiso   1.00
C345   C     0.11571   0.44208   0.01619   0.00000  Uiso   1.00
C346   C     0.22290   0.55526   0.48500   0.00000  Uiso   1.00
C347   C     0.02449   0.46457   0.26888   0.00000  Uiso   1.00
C348   C     0.30980   0.53751   0.23224   0.00000  Uiso   1.00
C349   C     0.31553   0.46169   0.26446   0.00000  Uiso   1.00
C350   C     0.01928   0.53833   0.23304   0.00000  Uiso   1.00
C351   C     0.29072   0.49905   0.24808   0.00000  Uiso   1.00
C352   C     0.04329   0.50149   0.25105   0.00000  Uiso   1.00
C353   C     0.14149   0.35826   0.21936   0.00000  Uiso   1.00
C354   C     0.18663   0.64248   0.28441   0.00000  Uiso   1.00
C355   C     0.18876   0.35789   0.28317   0.00000  Uiso   1.00
C356   C     0.14413   0.64260   0.21713   0.00000  Uiso   1.00
C357   C     0.16504   0.49982   0.16469   0.00000  Uiso   1.00
C358   C     0.16940   0.50006   0.33549   0.00000  Uiso   1.00
C359   C     0.20531   0.51652   0.41244   0.00000  Uiso   1.00
C360   C     0.13218   0.48184   0.08792   0.00000  Uiso   1.00
C361   C     0.17158   0.49935   0.38446   0.00000  Uiso   1.00
C362   C     0.16491   0.49972   0.11621   0.00000  Uiso   1.00
C363   C     0.13931   0.47879   0.40374   0.00000  Uiso   1.00
C364   C     0.19811   0.51929   0.09821   0.00000  Uiso   1.00
C365   C     0.14163   0.47296   0.45006   0.00000  Uiso   1.00
C366   C     0.19722   0.52441   0.05154   0.00000  Uiso   1.00
C367   C     0.17036   0.49815   0.47743   0.00000  Uiso   1.00
C368   C     0.16863   0.49903   0.02391   0.00000  Uiso   1.00
C369   C     0.20020   0.52317   0.45822   0.00000  Uiso   1.00
C370   C     0.13832   0.47428   0.04276   0.00000  Uiso   1.00
C371   C     0.11617   0.44255   0.46968   0.00000  Uiso   1.00
C372   C     0.22310   0.55428   0.03166   0.00000  Uiso   1.00
Cu373  Cu    0.16667   0.54689   0.25000   0.00000  Uiso   1.00
Cu374  Cu    0.16667   0.45311   0.25000   0.00000  Uiso   1.00
N375   N     0.16667   0.61736   0.25000   0.00000  Uiso   1.00
N376   N     0.16667   0.38264   0.25000   0.00000  Uiso   1.00
O377   O     0.10655   0.53958   0.24999   0.00000  Uiso   1.00
O378   O     0.22679   0.46042   0.25000   0.00000  Uiso   1.00
O379   O     0.22679   0.53958   0.25000   0.00000  Uiso   1.00
O380   O     0.10655   0.46042   0.24999   0.00000  Uiso   1.00
O381   O     0.16666   0.53960   0.18513   0.00000  Uiso   1.00
O382   O     0.16668   0.46040   0.31487   0.00000  Uiso   1.00
O383   O     0.16668   0.53960   0.31487   0.00000  Uiso   1.00
O384   O     0.16666   0.46040   0.18513   0.00000  Uiso   1.00
C385   C     0.24681   0.52659   0.39588   0.00000  Uiso   1.00
C386   C     0.26526   0.48917   0.36894   0.00000  Uiso   1.00
H387   H     0.27115   0.45817   0.38925   0.00000  Uiso   1.00
H388   H     0.24548   0.48214   0.33834   0.00000  Uiso   1.00
H389   H     0.29505   0.50032   0.35891   0.00000  Uiso   1.00
H390   H     0.24542   0.55851   0.37750   0.00000  Uiso   1.00
H391   H     0.27036   0.53081   0.42437   0.00000  Uiso   1.00
C392   C     0.08975   0.47533   0.10338   0.00000  Uiso   1.00
C393   C     0.07274   0.51643   0.12688   0.00000  Uiso   1.00
H394   H     0.08707   0.51878   0.16131   0.00000  Uiso   1.00
H395   H     0.07725   0.54796   0.10841   0.00000  Uiso   1.00
H396   H     0.03944   0.51251   0.12882   0.00000  Uiso   1.00
H397   H     0.06684   0.46989   0.07452   0.00000  Uiso   1.00
H398   H     0.08964   0.44522   0.12442   0.00000  Uiso   1.00
N399   N     0.10310   0.46566   0.37668   0.00000  Uiso   1.00
H400   H     0.11041   0.43877   0.35607   0.00000  Uiso   1.00
H401   H     0.09180   0.49320   0.35729   0.00000  Uiso   1.00
N402   N     0.23303   0.53122   0.12807   0.00000  Uiso   1.00
H403   H     0.25972   0.51895   0.11554   0.00000  Uiso   1.00
H404   H     0.23380   0.56629   0.13212   0.00000  Uiso   1.00
N405   N     0.09269   0.41033   0.44259   0.00000  Uiso   1.00
H406   H     0.06184   0.41478   0.44753   0.00000  Uiso   1.00
H407   H     0.10234   0.37753   0.45197   0.00000  Uiso   1.00
N408   N     0.24753   0.58590   0.05837   0.00000  Uiso   1.00
H409   H     0.23821   0.61894   0.04953   0.00000  Uiso   1.00
H410   H     0.27817   0.58089   0.05275   0.00000  Uiso   1.00
N411   N     0.09575   0.40620   0.03691   0.00000  Uiso   1.00
H412   H     0.10966   0.37529   0.02936   0.00000  Uiso   1.00
H413   H     0.06501   0.40578   0.02429   0.00000  Uiso   1.00
N414   N     0.24181   0.59206   0.46447   0.00000  Uiso   1.00
H415   H     0.27267   0.59313   0.47654   0.00000  Uiso   1.00
H416   H     0.22736   0.62248   0.47259   0.00000  Uiso   1.00
N417   N     0.04843   0.43069   0.29425   0.00000  Uiso   1.00
H418   H     0.03900   0.43068   0.32632   0.00000  Uiso   1.00
H419   H     0.04213   0.39879   0.28042   0.00000  Uiso   1.00
N420   N     0.28565   0.57554   0.21454   0.00000  Uiso   1.00
H421   H     0.29227   0.58144   0.18200   0.00000  Uiso   1.00
H422   H     0.29322   0.60418   0.23397   0.00000  Uiso   1.00
N423   N     0.29946   0.42066   0.27942   0.00000  Uiso   1.00
H424   H     0.27989   0.40578   0.25438   0.00000  Uiso   1.00
H425   H     0.28623   0.42766   0.30854   0.00000  Uiso   1.00
N426   N     0.03844   0.57671   0.21570   0.00000  Uiso   1.00
H427   H     0.03079   0.60574   0.23338   0.00000  Uiso   1.00
H428   H     0.02796   0.58078   0.18216   0.00000  Uiso   1.00
C429   C     0.10957   0.38267   0.18765   0.00000  Uiso   1.00
C430   C     0.06522   0.37405   0.19670   0.00000  Uiso   1.00
H431   H     0.04776   0.35999   0.16653   0.00000  Uiso   1.00
H432   H     0.06359   0.35022   0.22468   0.00000  Uiso   1.00
H433   H     0.04943   0.40637   0.20414   0.00000  Uiso   1.00
H434   H     0.11284   0.41874   0.18922   0.00000  Uiso   1.00
H435   H     0.11397   0.37419   0.15271   0.00000  Uiso   1.00
C436   C     0.20291   0.61946   0.32666   0.00000  Uiso   1.00
C437   C     0.16895   0.61765   0.35879   0.00000  Uiso   1.00
H438   H     0.16030   0.65086   0.37180   0.00000  Uiso   1.00
H439   H     0.13969   0.60517   0.34222   0.00000  Uiso   1.00
H440   H     0.17912   0.59674   0.38802   0.00000  Uiso   1.00
H441   H     0.21684   0.58710   0.31752   0.00000  Uiso   1.00
H442   H     0.23016   0.63498   0.34413   0.00000  Uiso   1.00
C443   C     0.21746   0.38183   0.31802   0.00000  Uiso   1.00
C444   C     0.20269   0.38693   0.36452   0.00000  Uiso   1.00
H445   H     0.16891   0.38939   0.36260   0.00000  Uiso   1.00
H446   H     0.21496   0.35951   0.38714   0.00000  Uiso   1.00
H447   H     0.21433   0.41827   0.38076   0.00000  Uiso   1.00
H448   H     0.24829   0.36552   0.32027   0.00000  Uiso   1.00
H449   H     0.22238   0.41547   0.30698   0.00000  Uiso   1.00
C450   C     0.12204   0.61922   0.17705   0.00000  Uiso   1.00
C451   C     0.14746   0.61934   0.13706   0.00000  Uiso   1.00
H452   H     0.14543   0.65255   0.12016   0.00000  Uiso   1.00
H453   H     0.18015   0.61226   0.14771   0.00000  Uiso   1.00
H454   H     0.13613   0.59353   0.11226   0.00000  Uiso   1.00
H455   H     0.11283   0.58554   0.18587   0.00000  Uiso   1.00
H456   H     0.09184   0.63415   0.16632   0.00000  Uiso   1.00
C457   C     0.42118   0.50053   0.25055   0.00000  Uiso   1.00
C458   C     0.57906   0.49955   0.24921   0.00000  Uiso   1.00
C459   C     0.44905   0.44208   0.01619   0.00000  Uiso   1.00
C460   C     0.55623   0.55526   0.48500   0.00000  Uiso   1.00
C461   C     0.35782   0.46457   0.26888   0.00000  Uiso   1.00
C462   C     0.64314   0.53751   0.23224   0.00000  Uiso   1.00
C463   C     0.64886   0.46169   0.26446   0.00000  Uiso   1.00
C464   C     0.35262   0.53833   0.23304   0.00000  Uiso   1.00
C465   C     0.62405   0.49905   0.24808   0.00000  Uiso   1.00
C466   C     0.37662   0.50149   0.25105   0.00000  Uiso   1.00
C467   C     0.47482   0.35826   0.21936   0.00000  Uiso   1.00
C468   C     0.51997   0.64248   0.28441   0.00000  Uiso   1.00
C469   C     0.52209   0.35789   0.28317   0.00000  Uiso   1.00
C470   C     0.47746   0.64260   0.21713   0.00000  Uiso   1.00
C471   C     0.49837   0.49982   0.16469   0.00000  Uiso   1.00
C472   C     0.50274   0.50006   0.33549   0.00000  Uiso   1.00
C473   C     0.53865   0.51652   0.41244   0.00000  Uiso   1.00
C474   C     0.46552   0.48184   0.08792   0.00000  Uiso   1.00
C475   C     0.50491   0.49935   0.38446   0.00000  Uiso   1.00
C476   C     0.49824   0.49972   0.11621   0.00000  Uiso   1.00
C477   C     0.47264   0.47879   0.40374   0.00000  Uiso   1.00
C478   C     0.53144   0.51929   0.09821   0.00000  Uiso   1.00
C479   C     0.47496   0.47296   0.45006   0.00000  Uiso   1.00
C480   C     0.53055   0.52441   0.05154   0.00000  Uiso   1.00
C481   C     0.50370   0.49815   0.47743   0.00000  Uiso   1.00
C482   C     0.50197   0.49903   0.02391   0.00000  Uiso   1.00
C483   C     0.53353   0.52317   0.45822   0.00000  Uiso   1.00
C484   C     0.47166   0.47428   0.04276   0.00000  Uiso   1.00
C485   C     0.44950   0.44255   0.46968   0.00000  Uiso   1.00
C486   C     0.55644   0.55428   0.03166   0.00000  Uiso   1.00
Cu487  Cu    0.50000   0.54689   0.25000   0.00000  Uiso   1.00
Cu488  Cu    0.50000   0.45311   0.25000   0.00000  Uiso   1.00
N489   N     0.50000   0.61736   0.25000   0.00000  Uiso   1.00
N490   N     0.50000   0.38264   0.25000   0.00000  Uiso   1.00
O491   O     0.43988   0.53958   0.24999   0.00000  Uiso   1.00
O492   O     0.56012   0.46042   0.25000   0.00000  Uiso   1.00
O493   O     0.56012   0.53958   0.25000   0.00000  Uiso   1.00
O494   O     0.43988   0.46042   0.24999   0.00000  Uiso   1.00
O495   O     0.49999   0.53960   0.18513   0.00000  Uiso   1.00
O496   O     0.50001   0.46040   0.31487   0.00000  Uiso   1.00
O497   O     0.50001   0.53960   0.31487   0.00000  Uiso   1.00
O498   O     0.49999   0.46040   0.18513   0.00000  Uiso   1.00
C499   C     0.58014   0.52659   0.39588   0.00000  Uiso   1.00
C500   C     0.59859   0.48917   0.36894   0.00000  Uiso   1.00
H501   H     0.60448   0.45817   0.38925   0.00000  Uiso   1.00
H502   H     0.57882   0.48214   0.33834   0.00000  Uiso   1.00
H503   H     0.62839   0.50032   0.35891   0.00000  Uiso   1.00
H504   H     0.57876   0.55851   0.37750   0.00000  Uiso   1.00
H505   H     0.60370   0.53081   0.42437   0.00000  Uiso   1.00
C506   C     0.42309   0.47533   0.10338   0.00000  Uiso   1.00
C507   C     0.40607   0.51643   0.12688   0.00000  Uiso   1.00
H508   H     0.42041   0.51878   0.16131   0.00000  Uiso   1.00
H509   H     0.41058   0.54796   0.10841   0.00000  Uiso   1.00
H510   H     0.37277   0.51251   0.12882   0.00000  Uiso   1.00
H511   H     0.40017   0.46989   0.07452   0.00000  Uiso   1.00
H512   H     0.42297   0.44522   0.12442   0.00000  Uiso   1.00
N513   N     0.43643   0.46566   0.37668   0.00000  Uiso   1.00
H514   H     0.44375   0.43877   0.35607   0.00000  Uiso   1.00
H515   H     0.42514   0.49320   0.35729   0.00000  Uiso   1.00
N516   N     0.56637   0.53122   0.12807   0.00000  Uiso   1.00
H517   H     0.59305   0.51895   0.11554   0.00000  Uiso   1.00
H518   H     0.56714   0.56629   0.13212   0.00000  Uiso   1.00
N519   N     0.42602   0.41033   0.44259   0.00000  Uiso   1.00
H520   H     0.39517   0.41478   0.44753   0.00000  Uiso   1.00
H521   H     0.43567   0.37753   0.45197   0.00000  Uiso   1.00
N522   N     0.58086   0.58590   0.05837   0.00000  Uiso   1.00
H523   H     0.57154   0.61894   0.04953   0.00000  Uiso   1.00
H524   H     0.61150   0.58089   0.05275   0.00000  Uiso   1.00
N525   N     0.42908   0.40620   0.03691   0.00000  Uiso   1.00
H526   H     0.44299   0.37529   0.02936   0.00000  Uiso   1.00
H527   H     0.39834   0.40578   0.02429   0.00000  Uiso   1.00
N528   N     0.57514   0.59206   0.46447   0.00000  Uiso   1.00
H529   H     0.60600   0.59313   0.47654   0.00000  Uiso   1.00
H530   H     0.56069   0.62248   0.47259   0.00000  Uiso   1.00
N531   N     0.38176   0.43069   0.29425   0.00000  Uiso   1.00
H532   H     0.37233   0.43068   0.32632   0.00000  Uiso   1.00
H533   H     0.37546   0.39879   0.28042   0.00000  Uiso   1.00
N534   N     0.61898   0.57554   0.21454   0.00000  Uiso   1.00
H535   H     0.62560   0.58144   0.18200   0.00000  Uiso   1.00
H536   H     0.62655   0.60418   0.23397   0.00000  Uiso   1.00
N537   N     0.63280   0.42066   0.27942   0.00000  Uiso   1.00
H538   H     0.61323   0.40578   0.25438   0.00000  Uiso   1.00
H539   H     0.61956   0.42766   0.30854   0.00000  Uiso   1.00
N540   N     0.37178   0.57671   0.21570   0.00000  Uiso   1.00
H541   H     0.36412   0.60574   0.23338   0.00000  Uiso   1.00
H542   H     0.36130   0.58078   0.18216   0.00000  Uiso   1.00
C543   C     0.44290   0.38267   0.18765   0.00000  Uiso   1.00
C544   C     0.39855   0.37405   0.19670   0.00000  Uiso   1.00
H545   H     0.38110   0.35999   0.16653   0.00000  Uiso   1.00
H546   H     0.39692   0.35022   0.22468   0.00000  Uiso   1.00
H547   H     0.38276   0.40637   0.20414   0.00000  Uiso   1.00
H548   H     0.44618   0.41874   0.18922   0.00000  Uiso   1.00
H549   H     0.44731   0.37419   0.15271   0.00000  Uiso   1.00
C550   C     0.53624   0.61946   0.32666   0.00000  Uiso   1.00
C551   C     0.50228   0.61765   0.35879   0.00000  Uiso   1.00
H552   H     0.49363   0.65086   0.37180   0.00000  Uiso   1.00
H553   H     0.47302   0.60517   0.34222   0.00000  Uiso   1.00
H554   H     0.51245   0.59674   0.38802   0.00000  Uiso   1.00
H555   H     0.55017   0.58710   0.31752   0.00000  Uiso   1.00
H556   H     0.56349   0.63498   0.34413   0.00000  Uiso   1.00
C557   C     0.55080   0.38183   0.31802   0.00000  Uiso   1.00
C558   C     0.53603   0.38693   0.36452   0.00000  Uiso   1.00
H559   H     0.50224   0.38939   0.36260   0.00000  Uiso   1.00
H560   H     0.54829   0.35951   0.38714   0.00000  Uiso   1.00
H561   H     0.54767   0.41827   0.38076   0.00000  Uiso   1.00
H562   H     0.58162   0.36552   0.32027   0.00000  Uiso   1.00
H563   H     0.55571   0.41547   0.30698   0.00000  Uiso   1.00
C564   C     0.45538   0.61922   0.17705   0.00000  Uiso   1.00
C565   C     0.48079   0.61934   0.13706   0.00000  Uiso   1.00
H566   H     0.47877   0.65255   0.12016   0.00000  Uiso   1.00
H567   H     0.51348   0.61226   0.14771   0.00000  Uiso   1.00
H568   H     0.46946   0.59353   0.11226   0.00000  Uiso   1.00
H569   H     0.44616   0.58554   0.18587   0.00000  Uiso   1.00
H570   H     0.42517   0.63415   0.16632   0.00000  Uiso   1.00
C571   C     0.75452   0.50053   0.25055   0.00000  Uiso   1.00
C572   C     0.91239   0.49955   0.24921   0.00000  Uiso   1.00
C573   C     0.78238   0.44208   0.01619   0.00000  Uiso   1.00
C574   C     0.88957   0.55526   0.48500   0.00000  Uiso   1.00
C575   C     0.69115   0.46457   0.26888   0.00000  Uiso   1.00
C576   C     0.97647   0.53751   0.23224   0.00000  Uiso   1.00
C577   C     0.98220   0.46169   0.26446   0.00000  Uiso   1.00
C578   C     0.68595   0.53833   0.23304   0.00000  Uiso   1.00
C579   C     0.95738   0.49905   0.24808   0.00000  Uiso   1.00
C580   C     0.70995   0.50149   0.25105   0.00000  Uiso   1.00
C581   C     0.80816   0.35826   0.21936   0.00000  Uiso   1.00
C582   C     0.85330   0.64248   0.28441   0.00000  Uiso   1.00
C583   C     0.85543   0.35789   0.28317   0.00000  Uiso   1.00
C584   C     0.81079   0.64260   0.21713   0.00000  Uiso   1.00
C585   C     0.83171   0.49982   0.16469   0.00000  Uiso   1.00
C586   C     0.83607   0.50006   0.33549   0.00000  Uiso   1.00
C587   C     0.87198   0.51652   0.41244   0.00000  Uiso   1.00
C588   C     0.79885   0.48184   0.08792   0.00000  Uiso   1.00
C589   C     0.83824   0.49935   0.38446   0.00000  Uiso   1.00
C590   C     0.83158   0.49972   0.11621   0.00000  Uiso   1.00
C591   C     0.80598   0.47879   0.40374   0.00000  Uiso   1.00
C592   C     0.86478   0.51929   0.09821   0.00000  Uiso   1.00
C593   C     0.80830   0.47296   0.45006   0.00000  Uiso   1.00
C594   C     0.86389   0.52441   0.05154   0.00000  Uiso   1.00
C595   C     0.83703   0.49815   0.47743   0.00000  Uiso   1.00
C596   C     0.83530   0.49903   0.02391   0.00000  Uiso   1.00
C597   C     0.86687   0.52317   0.45822   0.00000  Uiso   1.00
C598   C     0.80499   0.47428   0.04276   0.00000  Uiso   1.00
C599   C     0.78283   0.44255   0.46968   0.00000  Uiso   1.00
C600   C     0.88977   0.55428   0.03166   0.00000  Uiso   1.00
Cu601  Cu    0.83333   0.54689   0.25000   0.00000  Uiso   1.00
Cu602  Cu    0.83333   0.45311   0.25000   0.00000  Uiso   1.00
N603   N     0.83333   0.61736   0.25000   0.00000  Uiso   1.00
N604   N     0.83333   0.38264   0.25000   0.00000  Uiso   1.00
O605   O     0.77321   0.53958   0.24999   0.00000  Uiso   1.00
O606   O     0.89345   0.46042   0.25000   0.00000  Uiso   1.00
O607   O     0.89345   0.53958   0.25000   0.00000  Uiso   1.00
O608   O     0.77321   0.46042   0.24999   0.00000  Uiso   1.00
O609   O     0.83332   0.53960   0.18513   0.00000  Uiso   1.00
O610   O     0.83334   0.46040   0.31487   0.00000  Uiso   1.00
O611   O     0.83334   0.53960   0.31487   0.00000  Uiso   1.00
O612   O     0.83332   0.46040   0.18513   0.00000  Uiso   1.00
C613   C     0.91347   0.52659   0.39588   0.00000  Uiso   1.00
C614   C     0.93193   0.48917   0.36894   0.00000  Uiso   1.00
H615   H     0.93782   0.45817   0.38925   0.00000  Uiso   1.00
H616   H     0.91215   0.48214   0.33834   0.00000  Uiso   1.00
H617   H     0.96172   0.50032   0.35891   0.00000  Uiso   1.00
H618   H     0.91209   0.55851   0.37750   0.00000  Uiso   1.00
H619   H     0.93703   0.53081   0.42437   0.00000  Uiso   1.00
C620   C     0.75642   0.47533   0.10338   0.00000  Uiso   1.00
C621   C     0.73941   0.51643   0.12688   0.00000  Uiso   1.00
H622   H     0.75374   0.51878   0.16131   0.00000  Uiso   1.00
H623   H     0.74392   0.54796   0.10841   0.00000  Uiso   1.00
H624   H     0.70610   0.51251   0.12882   0.00000  Uiso   1.00
H625   H     0.73351   0.46989   0.07452   0.00000  Uiso   1.00
H626   H     0.75630   0.44522   0.12442   0.00000  Uiso   1.00
N627   N     0.76976   0.46566   0.37668   0.00000  Uiso   1.00
H628   H     0.77708   0.43877   0.35607   0.00000  Uiso   1.00
H629   H     0.75847   0.49320   0.35729   0.00000  Uiso   1.00
N630   N     0.89970   0.53122   0.12807   0.00000  Uiso   1.00
H631   H     0.92638   0.51895   0.11554   0.00000  Uiso   1.00
H632   H     0.90047   0.56629   0.13212   0.00000  Uiso   1.00
N633   N     0.75935   0.41033   0.44259   0.00000  Uiso   1.00
H634   H     0.72850   0.41478   0.44753   0.00000  Uiso   1.00
H635   H     0.76901   0.37753   0.45197   0.00000  Uiso   1.00
N636   N     0.91419   0.58590   0.05837   0.00000  Uiso   1.00
H637   H     0.90487   0.61894   0.04953   0.00000  Uiso   1.00
H638   H     0.94483   0.58089   0.05275   0.00000  Uiso   1.00
N639   N     0.76242   0.40620   0.03691   0.00000  Uiso   1.00
H640   H     0.77633   0.37529   0.02936   0.00000  Uiso   1.00
H641   H     0.73167   0.40578   0.02429   0.00000  Uiso   1.00
N642   N     0.90848   0.59206   0.46447   0.00000  Uiso   1.00
H643   H     0.93933   0.59313   0.47654   0.00000  Uiso   1.00
H644   H     0.89403   0.62248   0.47259   0.00000  Uiso   1.00
N645   N     0.71510   0.43069   0.29425   0.00000  Uiso   1.00
H646   H     0.70566   0.43068   0.32632   0.00000  Uiso   1.00
H647   H     0.70880   0.39879   0.28042   0.00000  Uiso   1.00
N648   N     0.95231   0.57554   0.21454   0.00000  Uiso   1.00
H649   H     0.95894   0.58144   0.18200   0.00000  Uiso   1.00
H650   H     0.95988   0.60418   0.23397   0.00000  Uiso   1.00
N651   N     0.96613   0.42066   0.27942   0.00000  Uiso   1.00
H652   H     0.94656   0.40578   0.25438   0.00000  Uiso   1.00
H653   H     0.95289   0.42766   0.30854   0.00000  Uiso   1.00
N654   N     0.70511   0.57671   0.21570   0.00000  Uiso   1.00
H655   H     0.69746   0.60574   0.23338   0.00000  Uiso   1.00
H656   H     0.69463   0.58078   0.18216   0.00000  Uiso   1.00
C657   C     0.77624   0.38267   0.18765   0.00000  Uiso   1.00
C658   C     0.73188   0.37405   0.19670   0.00000  Uiso   1.00
H659   H     0.71443   0.35999   0.16653   0.00000  Uiso   1.00
H660   H     0.73026   0.35022   0.22468   0.00000  Uiso   1.00
H661   H     0.71610   0.40637   0.20414   0.00000  Uiso   1.00
H662   H     0.77951   0.41874   0.18922   0.00000  Uiso   1.00
H663   H     0.78064   0.37419   0.15271   0.00000  Uiso   1.00
C664   C     0.86958   0.61946   0.32666   0.00000  Uiso   1.00
C665   C     0.83562   0.61765   0.35879   0.00000  Uiso   1.00
H666   H     0.82697   0.65086   0.37180   0.00000  Uiso   1.00
H667   H     0.80635   0.60517   0.34222   0.00000  Uiso   1.00
H668   H     0.84579   0.59674   0.38802   0.00000  Uiso   1.00
H669   H     0.88351   0.58710   0.31752   0.00000  Uiso   1.00
H670   H     0.89682   0.63498   0.34413   0.00000  Uiso   1.00
C671   C     0.88413   0.38183   0.31802   0.00000  Uiso   1.00
C672   C     0.86936   0.38693   0.36452   0.00000  Uiso   1.00
H673   H     0.83557   0.38939   0.36260   0.00000  Uiso   1.00
H674   H     0.88163   0.35951   0.38714   0.00000  Uiso   1.00
H675   H     0.88100   0.41827   0.38076   0.00000  Uiso   1.00
H676   H     0.91496   0.36552   0.32027   0.00000  Uiso   1.00
H677   H     0.88905   0.41547   0.30698   0.00000  Uiso   1.00
C678   C     0.78871   0.61922   0.17705   0.00000  Uiso   1.00
C679   C     0.81413   0.61934   0.13706   0.00000  Uiso   1.00
H680   H     0.81210   0.65255   0.12016   0.00000  Uiso   1.00
H681   H     0.84682   0.61226   0.14771   0.00000  Uiso   1.00
H682   H     0.80279   0.59353   0.11226   0.00000  Uiso   1.00
H683   H     0.77949   0.58554   0.18587   0.00000  Uiso   1.00
H684   H     0.75851   0.63415   0.16632   0.00000  Uiso   1.00
C685   C     0.08785   0.83386   0.25055   0.00000  Uiso   1.00
C686   C     0.24573   0.83288   0.24921   0.00000  Uiso   1.00
C687   C     0.11571   0.77542   0.01619   0.00000  Uiso   1.00
C688   C     0.22290   0.88859   0.48500   0.00000  Uiso   1.00
C689   C     0.02449   0.79791   0.26888   0.00000  Uiso   1.00
C690   C     0.30980   0.87084   0.23224   0.00000  Uiso   1.00
C691   C     0.31553   0.79503   0.26446   0.00000  Uiso   1.00
C692   C     0.01928   0.87166   0.23304   0.00000  Uiso   1.00
C693   C     0.29072   0.83239   0.24808   0.00000  Uiso   1.00
C694   C     0.04329   0.83482   0.25105   0.00000  Uiso   1.00
C695   C     0.14149   0.69160   0.21936   0.00000  Uiso   1.00
C696   C     0.18663   0.97581   0.28441   0.00000  Uiso   1.00
C697   C     0.18876   0.69122   0.28317   0.00000  Uiso   1.00
C698   C     0.14413   0.97593   0.21713   0.00000  Uiso   1.00
C699   C     0.16504   0.83315   0.16469   0.00000  Uiso   1.00
C700   C     0.16940   0.83339   0.33549   0.00000  Uiso   1.00
C701   C     0.20531   0.84985   0.41244   0.00000  Uiso   1.00
C702   C     0.13218   0.81517   0.08792   0.00000  Uiso   1.00
C703   C     0.17158   0.83269   0.38446   0.00000  Uiso   1.00
C704   C     0.16491   0.83306   0.11621   0.00000  Uiso   1.00
C705   C     0.13931   0.81212   0.40374   0.00000  Uiso   1.00
C706   C     0.19811   0.85263   0.09821   0.00000  Uiso   1.00
C707   C     0.14163   0.80630   0.45006   0.00000  Uiso   1.00
C708   C     0.19722   0.85775   0.05154   0.00000  Uiso   1.00
C709   C     0.17036   0.83148   0.47743   0.00000  Uiso   1.00
C710   C     0.16863   0.83237   0.02391   0.00000  Uiso   1.00
C711   C     0.20020   0.85651   0.45822   0.00000  Uiso   1.00
C712   C     0.13832   0.80761   0.04276   0.00000  Uiso   1.00
C713   C     0.11617   0.77588   0.46968   0.00000  Uiso   1.00
C714   C     0.22310   0.88762   0.03166   0.00000  Uiso   1.00
Cu715  Cu    0.16667   0.88022   0.25000   0.00000  Uiso   1.00
Cu716  Cu    0.16667   0.78645   0.25000   0.00000  Uiso   1.00
N717   N     0.16667   0.95069   0.25000   0.00000  Uiso   1.00
N718   N     0.16667   0.71598   0.25000   0.00000  Uiso   1.00
O719   O     0.10655   0.87291   0.24999   0.00000  Uiso   1.00
O720   O     0.22679   0.79375   0.25000   0.00000  Uiso   1.00
O721   O     0.22679   0.87291   0.25000   0.00000  Uiso   1.00
O722   O     0.10655   0.79375   0.24999   0.00000  Uiso   1.00
O723   O     0.16666   0.87293   0.18513   0.00000  Uiso   1.00
O724   O     0.16668   0.79373   0.31487   0.00000  Uiso   1.00
O725   O     0.16668   0.87293   0.31487   0.00000  Uiso   1.00
O726   O     0.16666   0.79373   0.18513   0.00000  Uiso   1.00
C727   C     0.24681   0.85992   0.39588   0.00000  Uiso   1.00
C728   C     0.26526   0.82250   0.36894   0.00000  Uiso   1.00
H729   H     0.27115   0.79150   0.38925   0.00000  Uiso   1.00
H730   H     0.24548   0.81547   0.33834   0.00000  Uiso   1.00
H731   H     0.29505   0.83365   0.35891   0.00000  Uiso   1.00
H732   H     0.24542   0.89184   0.37750   0.00000  Uiso   1.00
H733   H     0.27036   0.86414   0.42437   0.00000  Uiso   1.00
C734   C     0.08975   0.80866   0.10338   0.00000  Uiso   1.00
C735   C     0.07274   0.84977   0.12688   0.00000  Uiso   1.00
H736   H     0.08707   0.85211   0.16131   0.00000  Uiso   1.00
H737   H     0.07725   0.88129   0.10841   0.00000  Uiso   1.00
H738   H     0.03944   0.84585   0.12882   0.00000  Uiso   1.00
H739   H     0.06684   0.80322   0.07452   0.00000  Uiso   1.00
H740   H     0.08964   0.77855   0.12442   0.00000  Uiso   1.00
N741   N     0.10310   0.79900   0.37668   0.00000  Uiso   1.00
H742   H     0.11041   0.77211   0.35607   0.00000  Uiso   1.00
H743   H     0.09180   0.82654   0.35729   0.00000  Uiso   1.00
N744   N     0.23303   0.86455   0.12807   0.00000  Uiso   1.00
H745   H     0.25972   0.85228   0.11554   0.00000  Uiso   1.00
H746   H     0.23380   0.89962   0.13212   0.00000  Uiso   1.00
N747   N     0.09269   0.74366   0.44259   0.00000  Uiso   1.00
H748   H     0.06184   0.74812   0.44753   0.00000  Uiso   1.00
H749   H     0.10234   0.71087   0.45197   0.00000  Uiso   1.00
N750   N     0.24753   0.91923   0.05837   0.00000  Uiso   1.00
H751   H     0.23821   0.95227   0.04953   0.00000  Uiso   1.00
H752   H     0.27817   0.91422   0.05275   0.00000  Uiso   1.00
N753   N     0.09575   0.73953   0.03691   0.00000  Uiso   1.00
H754   H     0.10966   0.70862   0.02936   0.00000  Uiso   1.00
H755   H     0.06501   0.73911   0.02429   0.00000  Uiso   1.00
N756   N     0.24181   0.92539   0.46447   0.00000  Uiso   1.00
H757   H     0.27267   0.92646   0.47654   0.00000  Uiso   1.00
H758   H     0.22736   0.95582   0.47259   0.00000  Uiso   1.00
N759   N     0.04843   0.76402   0.29425   0.00000  Uiso   1.00
H760   H     0.03900   0.76401   0.32632   0.00000  Uiso   1.00
H761   H     0.04213   0.73213   0.28042   0.00000  Uiso   1.00
N762   N     0.28565   0.90888   0.21454   0.00000  Uiso   1.00
H763   H     0.29227   0.91478   0.18200   0.00000  Uiso   1.00
H764   H     0.29322   0.93751   0.23397   0.00000  Uiso   1.00
N765   N     0.29946   0.75399   0.27942   0.00000  Uiso   1.00
H766   H     0.27989   0.73911   0.25438   0.00000  Uiso   1.00
H767   H     0.28623   0.76100   0.30854   0.00000  Uiso   1.00
N768   N     0.03844   0.91004   0.21570   0.00000  Uiso   1.00
H769   H     0.03079   0.93908   0.23338   0.00000  Uiso   1.00
H770   H     0.02796   0.91411   0.18216   0.00000  Uiso   1.00
C771   C     0.10957   0.71600   0.18765   0.00000  Uiso   1.00
C772   C     0.06522   0.70738   0.19670   0.00000  Uiso   1.00
H773   H     0.04776   0.69332   0.16653   0.00000  Uiso   1.00
H774   H     0.06359   0.68355   0.22468   0.00000  Uiso   1.00
H775   H     0.04943   0.73970   0.20414   0.00000  Uiso   1.00
H776   H     0.11284   0.75207   0.18922   0.00000  Uiso   1.00
H777   H     0.11397   0.70753   0.15271   0.00000  Uiso   1.00
C778   C     0.20291   0.95279   0.32666   0.00000  Uiso   1.00
C779   C     0.16895   0.95098   0.35879   0.00000  Uiso   1.00
H780   H     0.16030   0.98419   0.37180   0.00000  Uiso   1.00
H781   H     0.13969   0.93851   0.34222   0.00000  Uiso   1.00
H782   H     0.17912   0.93008   0.38802   0.00000  Uiso   1.00
H783   H     0.21684   0.92043   0.31752   0.00000  Uiso   1.00
H784   H     0.23016   0.96832   0.34413   0.00000  Uiso   1.00
C785   C     0.21746   0.71517   0.31802   0.00000  Uiso   1.00
C786   C     0.20269   0.72027   0.36452   0.00000  Uiso   1.00
H787   H     0.16891   0.72273   0.36260   0.00000  Uiso   1.00
H788   H     0.21496   0.69285   0.38714   0.00000  Uiso   1.00
H789   H     0.21433   0.75160   0.38076   0.00000  Uiso   1.00
H790   H     0.24829   0.69886   0.32027   0.00000  Uiso   1.00
H791   H     0.22238   0.74880   0.30698   0.00000  Uiso   1.00
C792   C     0.12204   0.95255   0.17705   0.00000  Uiso   1.00
C793   C     0.14746   0.95268   0.13706   0.00000  Uiso   1.00
H794   H     0.14543   0.98588   0.12016   0.00000  Uiso   1.00
H795   H     0.18015   0.94560   0.14771   0.00000  Uiso   1.00
H796   H     0.13613   0.92687   0.11226   0.00000  Uiso   1.00
H797   H     0.11283   0.91887   0.18587   0.00000  Uiso   1.00
H798   H     0.09184   0.96749   0.16632   0.00000  Uiso   1.00
C799   C     0.42118   0.83386   0.25055   0.00000  Uiso   1.00
C800   C     0.57906   0.83288   0.24921   0.00000  Uiso   1.00
C801   C     0.44905   0.77542   0.01619   0.00000  Uiso   1.00
C802   C     0.55623   0.88859   0.48500   0.00000  Uiso   1.00
C803   C     0.35782   0.79791   0.26888   0.00000  Uiso   1.00
C804   C     0.64314   0.87084   0.23224   0.00000  Uiso   1.00
C805   C     0.64886   0.79503   0.26446   0.00000  Uiso   1.00
C806   C     0.35262   0.87166   0.23304   0.00000  Uiso   1.00
C807   C     0.62405   0.83239   0.24808   0.00000  Uiso   1.00
C808   C     0.37662   0.83482   0.25105   0.00000  Uiso   1.00
C809   C     0.47482   0.69160   0.21936   0.00000  Uiso   1.00
C810   C     0.51997   0.97581   0.28441   0.00000  Uiso   1.00
C811   C     0.52209   0.69122   0.28317   0.00000  Uiso   1.00
C812   C     0.47746   0.97593   0.21713   0.00000  Uiso   1.00
C813   C     0.49837   0.83315   0.16469   0.00000  Uiso   1.00
C814   C     0.50274   0.83339   0.33549   0.00000  Uiso   1.00
C815   C     0.53865   0.84985   0.41244   0.00000  Uiso   1.00
C816   C     0.46552   0.81517   0.08792   0.00000  Uiso   1.00
C817   C     0.50491   0.83269   0.38446   0.00000  Uiso   1.00
C818   C     0.49824   0.83306   0.11621   0.00000  Uiso   1.00
C819   C     0.47264   0.81212   0.40374   0.00000  Uiso   1.00
C820   C     0.53144   0.85263   0.09821   0.00000  Uiso   1.00
C821   C     0.47496   0.80630   0.45006   0.00000  Uiso   1.00
C822   C     0.53055   0.85775   0.05154   0.00000  Uiso   1.00
C823   C     0.50370   0.83148   0.47743   0.00000  Uiso   1.00
C824   C     0.50197   0.83237   0.02391   0.00000  Uiso   1.00
C825   C     0.53353   0.85651   0.45822   0.00000  Uiso   1.00
C826   C     0.47166   0.80761   0.04276   0.00000  Uiso   1.00
C827   C     0.44950   0.77588   0.46968   0.00000  Uiso   1.00
C828   C     0.55644   0.88762   0.03166   0.00000  Uiso   1.00
Cu829  Cu    0.50000   0.88022   0.25000   0.00000  Uiso   1.00
Cu830  Cu    0.50000   0.78645   0.25000   0.00000  Uiso   1.00
N831   N     0.50000   0.95069   0.25000   0.00000  Uiso   1.00
N832   N     0.50000   0.71598   0.25000   0.00000  Uiso   1.00
O833   O     0.43988   0.87291   0.24999   0.00000  Uiso   1.00
O834   O     0.56012   0.79375   0.25000   0.00000  Uiso   1.00
O835   O     0.56012   0.87291   0.25000   0.00000  Uiso   1.00
O836   O     0.43988   0.79375   0.24999   0.00000  Uiso   1.00
O837   O     0.49999   0.87293   0.18513   0.00000  Uiso   1.00
O838   O     0.50001   0.79373   0.31487   0.00000  Uiso   1.00
O839   O     0.50001   0.87293   0.31487   0.00000  Uiso   1.00
O840   O     0.49999   0.79373   0.18513   0.00000  Uiso   1.00
C841   C     0.58014   0.85992   0.39588   0.00000  Uiso   1.00
C842   C     0.59859   0.82250   0.36894   0.00000  Uiso   1.00
H843   H     0.60448   0.79150   0.38925   0.00000  Uiso   1.00
H844   H     0.57882   0.81547   0.33834   0.00000  Uiso   1.00
H845   H     0.62839   0.83365   0.35891   0.00000  Uiso   1.00
H846   H     0.57876   0.89184   0.37750   0.00000  Uiso   1.00
H847   H     0.60370   0.86414   0.42437   0.00000  Uiso   1.00
C848   C     0.42309   0.80866   0.10338   0.00000  Uiso   1.00
C849   C     0.40607   0.84977   0.12688   0.00000  Uiso   1.00
H850   H     0.42041   0.85211   0.16131   0.00000  Uiso   1.00
H851   H     0.41058   0.88129   0.10841   0.00000  Uiso   1.00
H852   H     0.37277   0.84585   0.12882   0.00000  Uiso   1.00
H853   H     0.40017   0.80322   0.07452   0.00000  Uiso   1.00
H854   H     0.42297   0.77855   0.12442   0.00000  Uiso   1.00
N855   N     0.43643   0.79900   0.37668   0.00000  Uiso   1.00
H856   H     0.44375   0.77211   0.35607   0.00000  Uiso   1.00
H857   H     0.42514   0.82654   0.35729   0.00000  Uiso   1.00
N858   N     0.56637   0.86455   0.12807   0.00000  Uiso   1.00
H859   H     0.59305   0.85228   0.11554   0.00000  Uiso   1.00
H860   H     0.56714   0.89962   0.13212   0.00000  Uiso   1.00
N861   N     0.42602   0.74366   0.44259   0.00000  Uiso   1.00
H862   H     0.39517   0.74812   0.44753   0.00000  Uiso   1.00
H863   H     0.43567   0.71087   0.45197   0.00000  Uiso   1.00
N864   N     0.58086   0.91923   0.05837   0.00000  Uiso   1.00
H865   H     0.57154   0.95227   0.04953   0.00000  Uiso   1.00
H866   H     0.61150   0.91422   0.05275   0.00000  Uiso   1.00
N867   N     0.42908   0.73953   0.03691   0.00000  Uiso   1.00
H868   H     0.44299   0.70862   0.02936   0.00000  Uiso   1.00
H869   H     0.39834   0.73911   0.02429   0.00000  Uiso   1.00
N870   N     0.57514   0.92539   0.46447   0.00000  Uiso   1.00
H871   H     0.60600   0.92646   0.47654   0.00000  Uiso   1.00
H872   H     0.56069   0.95582   0.47259   0.00000  Uiso   1.00
N873   N     0.38176   0.76402   0.29425   0.00000  Uiso   1.00
H874   H     0.37233   0.76401   0.32632   0.00000  Uiso   1.00
H875   H     0.37546   0.73213   0.28042   0.00000  Uiso   1.00
N876   N     0.61898   0.90888   0.21454   0.00000  Uiso   1.00
H877   H     0.62560   0.91478   0.18200   0.00000  Uiso   1.00
H878   H     0.62655   0.93751   0.23397   0.00000  Uiso   1.00
N879   N     0.63280   0.75399   0.27942   0.00000  Uiso   1.00
H880   H     0.61323   0.73911   0.25438   0.00000  Uiso   1.00
H881   H     0.61956   0.76100   0.30854   0.00000  Uiso   1.00
N882   N     0.37178   0.91004   0.21570   0.00000  Uiso   1.00
H883   H     0.36412   0.93908   0.23338   0.00000  Uiso   1.00
H884   H     0.36130   0.91411   0.18216   0.00000  Uiso   1.00
C885   C     0.44290   0.71600   0.18765   0.00000  Uiso   1.00
C886   C     0.39855   0.70738   0.19670   0.00000  Uiso   1.00
H887   H     0.38110   0.69332   0.16653   0.00000  Uiso   1.00
H888   H     0.39692   0.68355   0.22468   0.00000  Uiso   1.00
H889   H     0.38276   0.73970   0.20414   0.00000  Uiso   1.00
H890   H     0.44618   0.75207   0.18922   0.00000  Uiso   1.00
H891   H     0.44731   0.70753   0.15271   0.00000  Uiso   1.00
C892   C     0.53624   0.95279   0.32666   0.00000  Uiso   1.00
C893   C     0.50228   0.95098   0.35879   0.00000  Uiso   1.00
H894   H     0.49363   0.98419   0.37180   0.00000  Uiso   1.00
H895   H     0.47302   0.93851   0.34222   0.00000  Uiso   1.00
H896   H     0.51245   0.93008   0.38802   0.00000  Uiso   1.00
H897   H     0.55017   0.92043   0.31752   0.00000  Uiso   1.00
H898   H     0.56349   0.96832   0.34413   0.00000  Uiso   1.00
C899   C     0.55080   0.71517   0.31802   0.00000  Uiso   1.00
C900   C     0.53603   0.72027   0.36452   0.00000  Uiso   1.00
H901   H     0.50224   0.72273   0.36260   0.00000  Uiso   1.00
H902   H     0.54829   0.69285   0.38714   0.00000  Uiso   1.00
H903   H     0.54767   0.75160   0.38076   0.00000  Uiso   1.00
H904   H     0.58162   0.69886   0.32027   0.00000  Uiso   1.00
H905   H     0.55571   0.74880   0.30698   0.00000  Uiso   1.00
C906   C     0.45538   0.95255   0.17705   0.00000  Uiso   1.00
C907   C     0.48079   0.95268   0.13706   0.00000  Uiso   1.00
H908   H     0.47877   0.98588   0.12016   0.00000  Uiso   1.00
H909   H     0.51348   0.94560   0.14771   0.00000  Uiso   1.00
H910   H     0.46946   0.92687   0.11226   0.00000  Uiso   1.00
H911   H     0.44616   0.91887   0.18587   0.00000  Uiso   1.00
H912   H     0.42517   0.96749   0.16632   0.00000  Uiso   1.00
C913   C     0.75452   0.83386   0.25055   0.00000  Uiso   1.00
C914   C     0.91239   0.83288   0.24921   0.00000  Uiso   1.00
C915   C     0.78238   0.77542   0.01619   0.00000  Uiso   1.00
C916   C     0.88957   0.88859   0.48500   0.00000  Uiso   1.00
C917   C     0.69115   0.79791   0.26888   0.00000  Uiso   1.00
C918   C     0.97647   0.87084   0.23224   0.00000  Uiso   1.00
C919   C     0.98220   0.79503   0.26446   0.00000  Uiso   1.00
C920   C     0.68595   0.87166   0.23304   0.00000  Uiso   1.00
C921   C     0.95738   0.83239   0.24808   0.00000  Uiso   1.00
C922   C     0.70995   0.83482   0.25105   0.00000  Uiso   1.00
C923   C     0.80816   0.69160   0.21936   0.00000  Uiso   1.00
C924   C     0.85330   0.97581   0.28441   0.00000  Uiso   1.00
C925   C     0.85543   0.69122   0.28317   0.00000  Uiso   1.00
C926   C     0.81079   0.97593   0.21713   0.00000  Uiso   1.00
C927   C     0.83171   0.83315   0.16469   0.00000  Uiso   1.00
C928   C     0.83607   0.83339   0.33549   0.00000  Uiso   1.00
C929   C     0.87198   0.84985   0.41244   0.00000  Uiso   1.00
C930   C     0.79885   0.81517   0.08792   0.00000  Uiso   1.00
C931   C     0.83824   0.83269   0.38446   0.00000  Uiso   1.00
C932   C     0.83158   0.83306   0.11621   0.00000  Uiso   1.00
C933   C     0.80598   0.81212   0.40374   0.00000  Uiso   1.00
C934   C     0.86478   0.85263   0.09821   0.00000  Uiso   1.00
C935   C     0.80830   0.80630   0.45006   0.00000  Uiso   1.00
C936   C     0.86389   0.85775   0.05154   0.00000  Uiso   1.00
C937   C     0.83703   0.83148   0.47743   0.00000  Uiso   1.00
C938   C     0.83530   0.83237   0.02391   0.00000  Uiso   1.00
C939   C     0.86687   0.85651   0.45822   0.00000  Uiso   1.00
C940   C     0.80499   0.80761   0.04276   0.00000  Uiso   1.00
C941   C     0.78283   0.77588   0.46968   0.00000  Uiso   1.00
C942   C     0.88977   0.88762   0.03166   0.00000  Uiso   1.00
Cu943  Cu    0.83333   0.88022   0.25000   0.00000  Uiso   1.00
Cu944  Cu    0.83333   0.78645   0.25000   0.00000  Uiso   1.00
N945   N     0.83333   0.95069   0.25000   0.00000  Uiso   1.00
N946   N     0.83333   0.71598   0.25000   0.00000  Uiso   1.00
O947   O     0.77321   0.87291   0.24999   0.00000  Uiso   1.00
O948   O     0.89345   0.79375   0.25000   0.00000  Uiso   1.00
O949   O     0.89345   0.87291   0.25000   0.00000  Uiso   1.00
O950   O     0.77321   0.79375   0.24999   0.00000  Uiso   1.00
O951   O     0.83332   0.87293   0.18513   0.00000  Uiso   1.00
O952   O     0.83334   0.79373   0.31487   0.00000  Uiso   1.00
O953   O     0.83334   0.87293   0.31487   0.00000  Uiso   1.00
O954   O     0.83332   0.79373   0.18513   0.00000  Uiso   1.00
C955   C     0.91347   0.85992   0.39588   0.00000  Uiso   1.00
C956   C     0.93193   0.82250   0.36894   0.00000  Uiso   1.00
H957   H     0.93782   0.79150   0.38925   0.00000  Uiso   1.00
H958   H     0.91215   0.81547   0.33834   0.00000  Uiso   1.00
H959   H     0.96172   0.83365   0.35891   0.00000  Uiso   1.00
H960   H     0.91209   0.89184   0.37750   0.00000  Uiso   1.00
H961   H     0.93703   0.86414   0.42437   0.00000  Uiso   1.00
C962   C     0.75642   0.80866   0.10338   0.00000  Uiso   1.00
C963   C     0.73941   0.84977   0.12688   0.00000  Uiso   1.00
H964   H     0.75374   0.85211   0.16131   0.00000  Uiso   1.00
H965   H     0.74392   0.88129   0.10841   0.00000  Uiso   1.00
H966   H     0.70610   0.84585   0.12882   0.00000  Uiso   1.00
H967   H     0.73351   0.80322   0.07452   0.00000  Uiso   1.00
H968   H     0.75630   0.77855   0.12442   0.00000  Uiso   1.00
N969   N     0.76976   0.79900   0.37668   0.00000  Uiso   1.00
H970   H     0.77708   0.77211   0.35607   0.00000  Uiso   1.00
H971   H     0.75847   0.82654   0.35729   0.00000  Uiso   1.00
N972   N     0.89970   0.86455   0.12807   0.00000  Uiso   1.00
H973   H     0.92638   0.85228   0.11554   0.00000  Uiso   1.00
H974   H     0.90047   0.89962   0.13212   0.00000  Uiso   1.00
N975   N     0.75935   0.74366   0.44259   0.00000  Uiso   1.00
H976   H     0.72850   0.74812   0.44753   0.00000  Uiso   1.00
H977   H     0.76901   0.71087   0.45197   0.00000  Uiso   1.00
N978   N     0.91419   0.91923   0.05837   0.00000  Uiso   1.00
H979   H     0.90487   0.95227   0.04953   0.00000  Uiso   1.00
H980   H     0.94483   0.91422   0.05275   0.00000  Uiso   1.00
N981   N     0.76242   0.73953   0.03691   0.00000  Uiso   1.00
H982   H     0.77633   0.70862   0.02936   0.00000  Uiso   1.00
H983   H     0.73167   0.73911   0.02429   0.00000  Uiso   1.00
N984   N     0.90848   0.92539   0.46447   0.00000  Uiso   1.00
H985   H     0.93933   0.92646   0.47654   0.00000  Uiso   1.00
H986   H     0.89403   0.95582   0.47259   0.00000  Uiso   1.00
N987   N     0.71510   0.76402   0.29425   0.00000  Uiso   1.00
H988   H     0.70566   0.76401   0.32632   0.00000  Uiso   1.00
H989   H     0.70880   0.73213   0.28042   0.00000  Uiso   1.00
N990   N     0.95231   0.90888   0.21454   0.00000  Uiso   1.00
H991   H     0.95894   0.91478   0.18200   0.00000  Uiso   1.00
H992   H     0.95988   0.93751   0.23397   0.00000  Uiso   1.00
N993   N     0.96613   0.75399   0.27942   0.00000  Uiso   1.00
H994   H     0.94656   0.73911   0.25438   0.00000  Uiso   1.00
H995   H     0.95289   0.76100   0.30854   0.00000  Uiso   1.00
N996   N     0.70511   0.91004   0.21570   0.00000  Uiso   1.00
H997   H     0.69746   0.93908   0.23338   0.00000  Uiso   1.00
H998   H     0.69463   0.91411   0.18216   0.00000  Uiso   1.00
C999   C     0.77624   0.71600   0.18765   0.00000  Uiso   1.00
C1000  C     0.73188   0.70738   0.19670   0.00000  Uiso   1.00
H1001  H     0.71443   0.69332   0.16653   0.00000  Uiso   1.00
H1002  H     0.73026   0.68355   0.22468   0.00000  Uiso   1.00
H1003  H     0.71610   0.73970   0.20414   0.00000  Uiso   1.00
H1004  H     0.77951   0.75207   0.18922   0.00000  Uiso   1.00
H1005  H     0.78064   0.70753   0.15271   0.00000  Uiso   1.00
C1006  C     0.86958   0.95279   0.32666   0.00000  Uiso   1.00
C1007  C     0.83562   0.95098   0.35879   0.00000  Uiso   1.00
H1008  H     0.82697   0.98419   0.37180   0.00000  Uiso   1.00
H1009  H     0.80635   0.93851   0.34222   0.00000  Uiso   1.00
H1010  H     0.84579   0.93008   0.38802   0.00000  Uiso   1.00
H1011  H     0.88351   0.92043   0.31752   0.00000  Uiso   1.00
H1012  H     0.89682   0.96832   0.34413   0.00000  Uiso   1.00
C1013  C     0.88413   0.71517   0.31802   0.00000  Uiso   1.00
C1014  C     0.86936   0.72027   0.36452   0.00000  Uiso   1.00
H1015  H     0.83557   0.72273   0.36260   0.00000  Uiso   1.00
H1016  H     0.88163   0.69285   0.38714   0.00000  Uiso   1.00
H1017  H     0.88100   0.75160   0.38076   0.00000  Uiso   1.00
H1018  H     0.91496   0.69886   0.32027   0.00000  Uiso   1.00
H1019  H     0.88905   0.74880   0.30698   0.00000  Uiso   1.00
C1020  C     0.78871   0.95255   0.17705   0.00000  Uiso   1.00
C1021  C     0.81413   0.95268   0.13706   0.00000  Uiso   1.00
H1022  H     0.81210   0.98588   0.12016   0.00000  Uiso   1.00
H1023  H     0.84682   0.94560   0.14771   0.00000  Uiso   1.00
H1024  H     0.80279   0.92687   0.11226   0.00000  Uiso   1.00
H1025  H     0.77949   0.91887   0.18587   0.00000  Uiso   1.00
H1026  H     0.75851   0.96749   0.16632   0.00000  Uiso   1.00
C1027  C     0.08785   0.16719   0.75055   0.00000  Uiso   1.00
C1028  C     0.24573   0.16621   0.74921   0.00000  Uiso   1.00
C1029  C     0.11571   0.10875   0.51619   0.00000  Uiso   1.00
C1030  C     0.22290   0.22192   0.98500   0.00000  Uiso   1.00
C1031  C     0.02449   0.13124   0.76888   0.00000  Uiso   1.00
C1032  C     0.30980   0.20417   0.73224   0.00000  Uiso   1.00
C1033  C     0.31553   0.12836   0.76446   0.00000  Uiso   1.00
C1034  C     0.01928   0.20499   0.73304   0.00000  Uiso   1.00
C1035  C     0.29072   0.16572   0.74808   0.00000  Uiso   1.00
C1036  C     0.04329   0.16816   0.75105   0.00000  Uiso   1.00
C1037  C     0.14149   0.02493   0.71936   0.00000  Uiso   1.00
C1038  C     0.18663   0.30915   0.78441   0.00000  Uiso   1.00
C1039  C     0.18876   0.02455   0.78317   0.00000  Uiso   1.00
C1040  C     0.14413   0.30927   0.71713   0.00000  Uiso   1.00
C1041  C     0.16504   0.16649   0.66469   0.00000  Uiso   1.00
C1042  C     0.16940   0.16673   0.83549   0.00000  Uiso   1.00
C1043  C     0.20531   0.18318   0.91244   0.00000  Uiso   1.00
C1044  C     0.13218   0.14850   0.58792   0.00000  Uiso   1.00
C1045  C     0.17158   0.16602   0.88446   0.00000  Uiso   1.00
C1046  C     0.16491   0.16639   0.61621   0.00000  Uiso   1.00
C1047  C     0.13931   0.14545   0.90374   0.00000  Uiso   1.00
C1048  C     0.19811   0.18596   0.59821   0.00000  Uiso   1.00
C1049  C     0.14163   0.13963   0.95006   0.00000  Uiso   1.00
C1050  C     0.19722   0.19108   0.55154   0.00000  Uiso   1.00
C1051  C     0.17036   0.16481   0.97743   0.00000  Uiso   1.00
C1052  C     0.16863   0.16570   0.52391   0.00000  Uiso   1.00
C1053  C     0.20020   0.18984   0.95822   0.00000  Uiso   1.00
C1054  C     0.13832   0.14095   0.54276   0.00000  Uiso   1.00
C1055  C     0.11617   0.10922   0.96968   0.00000  Uiso   1.00
C1056  C     0.22310   0.22095   0.53166   0.00000  Uiso   1.00
Cu1057 Cu    0.16667   0.21355   0.75000   0.00000  Uiso   1.00
Cu1058 Cu    0.16667   0.11978   0.75000   0.00000  Uiso   1.00
N1059  N     0.16667   0.28402   0.75000   0.00000  Uiso   1.00
N1060  N     0.16667   0.04931   0.75000   0.00000  Uiso   1.00
O1061  O     0.10655   0.20625   0.74999   0.00000  Uiso   1.00
O1062  O     0.22679   0.12709   0.75000   0.00000  Uiso   1.00
O1063  O     0.22679   0.20625   0.75000   0.00000  Uiso   1.00
O1064  O     0.10655   0.12709   0.74999   0.00000  Uiso   1.00
O1065  O     0.16666   0.20627   0.68513   0.00000  Uiso   1.00
O1066  O     0.16668   0.12707   0.81487   0.00000  Uiso   1.00
O1067  O     0.16668   0.20627   0.81487   0.00000  Uiso   1.00
O1068  O     0.16666   0.12707   0.68513   0.00000  Uiso   1.00
C1069  C     0.24681   0.19325   0.89588   0.00000  Uiso   1.00
C1070  C     0.26526   0.15583   0.86894   0.00000  Uiso   1.00
H1071  H     0.27115   0.12483   0.88925   0.00000  Uiso   1.00
H1072  H     0.24548   0.14880   0.83834   0.00000  Uiso   1.00
H1073  H     0.29505   0.16699   0.85891   0.00000  Uiso   1.00
H1074  H     0.24542   0.22518   0.87750   0.00000  Uiso   1.00
H1075  H     0.27036   0.19748   0.92437   0.00000  Uiso   1.00
C1076  C     0.08975   0.14200   0.60338   0.00000  Uiso   1.00
C1077  C     0.07274   0.18310   0.62688   0.00000  Uiso   1.00
H1078  H     0.08707   0.18544   0.66131   0.00000  Uiso   1.00
H1079  H     0.07725   0.21462   0.60841   0.00000  Uiso   1.00
H1080  H     0.03944   0.17918   0.62882   0.00000  Uiso   1.00
H1081  H     0.06684   0.13655   0.57452   0.00000  Uiso   1.00
H1082  H     0.08964   0.11188   0.62442   0.00000  Uiso   1.00
N1083  N     0.10310   0.13233   0.87668   0.00000  Uiso   1.00
H1084  H     0.11041   0.10544   0.85607   0.00000  Uiso   1.00
H1085  H     0.09180   0.15987   0.85729   0.00000  Uiso   1.00
N1086  N     0.23303   0.19789   0.62807   0.00000  Uiso   1.00
H1087  H     0.25972   0.18562   0.61554   0.00000  Uiso   1.00
H1088  H     0.23380   0.23295   0.63212   0.00000  Uiso   1.00
N1089  N     0.09269   0.07700   0.94259   0.00000  Uiso   1.00
H1090  H     0.06184   0.08145   0.94753   0.00000  Uiso   1.00
H1091  H     0.10234   0.04420   0.95197   0.00000  Uiso   1.00
N1092  N     0.24753   0.25256   0.55837   0.00000  Uiso   1.00
H1093  H     0.23821   0.28560   0.54953   0.00000  Uiso   1.00
H1094  H     0.27817   0.24755   0.55275   0.00000  Uiso   1.00
N1095  N     0.09575   0.07287   0.53691   0.00000  Uiso   1.00
H1096  H     0.10966   0.04195   0.52936   0.00000  Uiso   1.00
H1097  H     0.06501   0.07244   0.52429   0.00000  Uiso   1.00
N1098  N     0.24181   0.25873   0.96447   0.00000  Uiso   1.00
H1099  H     0.27267   0.25979   0.97654   0.00000  Uiso   1.00
H1100  H     0.22736   0.28915   0.97259   0.00000  Uiso   1.00
N1101  N     0.04843   0.09735   0.79425   0.00000  Uiso   1.00
H1102  H     0.03900   0.09734   0.82632   0.00000  Uiso   1.00
H1103  H     0.04213   0.06546   0.78042   0.00000  Uiso   1.00
N1104  N     0.28565   0.24221   0.71454   0.00000  Uiso   1.00
H1105  H     0.29227   0.24811   0.68200   0.00000  Uiso   1.00
H1106  H     0.29322   0.27084   0.73397   0.00000  Uiso   1.00
N1107  N     0.29946   0.08732   0.77942   0.00000  Uiso   1.00
H1108  H     0.27989   0.07244   0.75438   0.00000  Uiso   1.00
H1109  H     0.28623   0.09433   0.80854   0.00000  Uiso   1.00
N1110  N     0.03844   0.24338   0.71570   0.00000  Uiso   1.00
H1111  H     0.03079   0.27241   0.73338   0.00000  Uiso   1.00
H1112  H     0.02796   0.24745   0.68216   0.00000  Uiso   1.00
C1113  C     0.10957   0.04933   0.68765   0.00000  Uiso   1.00
C1114  C     0.06522   0.04072   0.69670   0.00000  Uiso   1.00
H1115  H     0.04776   0.02666   0.66653   0.00000  Uiso   1.00
H1116  H     0.06359   0.01689   0.72468   0.00000  Uiso   1.00
H1117  H     0.04943   0.07304   0.70414   0.00000  Uiso   1.00
H1118  H     0.11284   0.08540   0.68922   0.00000  Uiso   1.00
H1119  H     0.11397   0.04086   0.65271   0.00000  Uiso   1.00
C1120  C     0.20291   0.28612   0.82666   0.00000  Uiso   1.00
C1121  C     0.16895   0.28432   0.85879   0.00000  Uiso   1.00
H1122  H     0.16030   0.31752   0.87180   0.00000  Uiso   1.00
H1123  H     0.13969   0.27184   0.84222   0.00000  Uiso   1.00
H1124  H     0.17912   0.26341   0.88802   0.00000  Uiso   1.00
H1125  H     0.21684   0.25376   0.81752   0.00000  Uiso   1.00
H1126  H     0.23016   0.30165   0.84413   0.00000  Uiso   1.00
C1127  C     0.21746   0.04850   0.81802   0.00000  Uiso   1.00
C1128  C     0.20269   0.05360   0.86452   0.00000  Uiso   1.00
H1129  H     0.16891   0.05606   0.86260   0.00000  Uiso   1.00
H1130  H     0.21496   0.02618   0.88714   0.00000  Uiso   1.00
H1131  H     0.21433   0.08493   0.88076   0.00000  Uiso   1.00
H1132  H     0.24829   0.03219   0.82027   0.00000  Uiso   1.00
H1133  H     0.22238   0.08213   0.80698   0.00000  Uiso   1.00
C1134  C     0.12204   0.28588   0.67705   0.00000  Uiso   1.00
C1135  C     0.14746   0.28601   0.63706   0.00000  Uiso   1.00
H1136  H     0.14543   0.31922   0.62016   0.00000  Uiso   1.00
H1137  H     0.18015   0.27893   0.64771   0.00000  Uiso   1.00
H1138  H     0.13613   0.26020   0.61226   0.00000  Uiso   1.00
H1139  H     0.11283   0.25220   0.68587   0.00000  Uiso   1.00
H1140  H     0.09184   0.30082   0.66632   0.00000  Uiso   1.00
C1141  C     0.42118   0.16719   0.75055   0.00000  Uiso   1.00
C1142  C     0.57906   0.16621   0.74921   0.00000  Uiso   1.00
C1143  C     0.44905   0.10875   0.51619   0.00000  Uiso   1.00
C1144  C     0.55623   0.22192   0.98500   0.00000  Uiso   1.00
C1145  C     0.35782   0.13124   0.76888   0.00000  Uiso   1.00
C1146  C     0.64314   0.20417   0.73224   0.00000  Uiso   1.00
C1147  C     0.64886   0.12836   0.76446   0.00000  Uiso   1.00
C1148  C     0.35262   0.20499   0.73304   0.00000  Uiso   1.00
C1149  C     0.62405   0.16572   0.74808   0.00000  Uiso   1.00
C1150  C     0.37662   0.16816   0.75105   0.00000  Uiso   1.00
C1151  C     0.47482   0.02493   0.71936   0.00000  Uiso   1.00
C1152  C     0.51997   0.30915   0.78441   0.00000  Uiso   1.00
C1153  C     0.52209   0.02455   0.78317   0.00000  Uiso   1.00
C1154  C     0.47746   0.30927   0.71713   0.00000  Uiso   1.00
C1155  C     0.49837   0.16649   0.66469   0.00000  Uiso   1.00
C1156  C     0.50274   0.16673   0.83549   0.00000  Uiso   1.00
C1157  C     0.53865   0.18318   0.91244   0.00000  Uiso   1.00
C1158  C     0.46552   0.14850   0.58792   0.00000  Uiso   1.00
C1159  C     0.50491   0.16602   0.88446   0.00000  Uiso   1.00
C1160  C     0.49824   0.16639   0.61621   0.00000  Uiso   1.00
C1161  C     0.47264   0.14545   0.90374   0.00000  Uiso   1.00
C1162  C     0.53144   0.18596   0.59821   0.00000  Uiso   1.00
C1163  C     0.47496   0.13963   0.95006   0.00000  Uiso   1.00
C1164  C     0.53055   0.19108   0.55154   0.00000  Uiso   1.00
C1165  C     0.50370   0.16481   0.97743   0.00000  Uiso   1.00
C1166  C     0.50197   0.16570   0.52391   0.00000  Uiso   1.00
C1167  C     0.53353   0.18984   0.95822   0.00000  Uiso   1.00
C1168  C     0.47166   0.14095   0.54276   0.00000  Uiso   1.00
C1169  C     0.44950   0.10922   0.96968   0.00000  Uiso   1.00
C1170  C     0.55644   0.22095   0.53166   0.00000  Uiso   1.00
Cu1171 Cu    0.50000   0.21355   0.75000   0.00000  Uiso   1.00
Cu1172 Cu    0.50000   0.11978   0.75000   0.00000  Uiso   1.00
N1173  N     0.50000   0.28402   0.75000   0.00000  Uiso   1.00
N1174  N     0.50000   0.04931   0.75000   0.00000  Uiso   1.00
O1175  O     0.43988   0.20625   0.74999   0.00000  Uiso   1.00
O1176  O     0.56012   0.12709   0.75000   0.00000  Uiso   1.00
O1177  O     0.56012   0.20625   0.75000   0.00000  Uiso   1.00
O1178  O     0.43988   0.12709   0.74999   0.00000  Uiso   1.00
O1179  O     0.49999   0.20627   0.68513   0.00000  Uiso   1.00
O1180  O     0.50001   0.12707   0.81487   0.00000  Uiso   1.00
O1181  O     0.50001   0.20627   0.81487   0.00000  Uiso   1.00
O1182  O     0.49999   0.12707   0.68513   0.00000  Uiso   1.00
C1183  C     0.58014   0.19325   0.89588   0.00000  Uiso   1.00
C1184  C     0.59859   0.15583   0.86894   0.00000  Uiso   1.00
H1185  H     0.60448   0.12483   0.88925   0.00000  Uiso   1.00
H1186  H     0.57882   0.14880   0.83834   0.00000  Uiso   1.00
H1187  H     0.62839   0.16699   0.85891   0.00000  Uiso   1.00
H1188  H     0.57876   0.22518   0.87750   0.00000  Uiso   1.00
H1189  H     0.60370   0.19748   0.92437   0.00000  Uiso   1.00
C1190  C     0.42309   0.14200   0.60338   0.00000  Uiso   1.00
C1191  C     0.40607   0.18310   0.62688   0.00000  Uiso   1.00
H1192  H     0.42041   0.18544   0.66131   0.00000  Uiso   1.00
H1193  H     0.41058   0.21462   0.60841   0.00000  Uiso   1.00
H1194  H     0.37277   0.17918   0.62882   0.00000  Uiso   1.00
H1195  H     0.40017   0.13655   0.57452   0.00000  Uiso   1.00
H1196  H     0.42297   0.11188   0.62442   0.00000  Uiso   1.00
N1197  N     0.43643   0.13233   0.87668   0.00000  Uiso   1.00
H1198  H     0.44375   0.10544   0.85607   0.00000  Uiso   1.00
H1199  H     0.42514   0.15987   0.85729   0.00000  Uiso   1.00
N1200  N     0.56637   0.19789   0.62807   0.00000  Uiso   1.00
H1201  H     0.59305   0.18562   0.61554   0.00000  Uiso   1.00
H1202  H     0.56714   0.23295   0.63212   0.00000  Uiso   1.00
N1203  N     0.42602   0.07700   0.94259   0.00000  Uiso   1.00
H1204  H     0.39517   0.08145   0.94753   0.00000  Uiso   1.00
H1205  H     0.43567   0.04420   0.95197   0.00000  Uiso   1.00
N1206  N     0.58086   0.25256   0.55837   0.00000  Uiso   1.00
H1207  H     0.57154   0.28560   0.54953   0.00000  Uiso   1.00
H1208  H     0.61150   0.24755   0.55275   0.00000  Uiso   1.00
N1209  N     0.42908   0.07287   0.53691   0.00000  Uiso   1.00
H1210  H     0.44299   0.04195   0.52936   0.00000  Uiso   1.00
H1211  H     0.39834   0.07244   0.52429   0.00000  Uiso   1.00
N1212  N     0.57514   0.25873   0.96447   0.00000  Uiso   1.00
H1213  H     0.60600   0.25979   0.97654   0.00000  Uiso   1.00
H1214  H     0.56069   0.28915   0.97259   0.00000  Uiso   1.00
N1215  N     0.38176   0.09735   0.79425   0.00000  Uiso   1.00
H1216  H     0.37233   0.09734   0.82632   0.00000  Uiso   1.00
H1217  H     0.37546   0.06546   0.78042   0.00000  Uiso   1.00
N1218  N     0.61898   0.24221   0.71454   0.00000  Uiso   1.00
H1219  H     0.62560   0.24811   0.68200   0.00000  Uiso   1.00
H1220  H     0.62655   0.27084   0.73397   0.00000  Uiso   1.00
N1221  N     0.63280   0.08732   0.77942   0.00000  Uiso   1.00
H1222  H     0.61323   0.07244   0.75438   0.00000  Uiso   1.00
H1223  H     0.61956   0.09433   0.80854   0.00000  Uiso   1.00
N1224  N     0.37178   0.24338   0.71570   0.00000  Uiso   1.00
H1225  H     0.36412   0.27241   0.73338   0.00000  Uiso   1.00
H1226  H     0.36130   0.24745   0.68216   0.00000  Uiso   1.00
C1227  C     0.44290   0.04933   0.68765   0.00000  Uiso   1.00
C1228  C     0.39855   0.04072   0.69670   0.00000  Uiso   1.00
H1229  H     0.38110   0.02666   0.66653   0.00000  Uiso   1.00
H1230  H     0.39692   0.01689   0.72468   0.00000  Uiso   1.00
H1231  H     0.38276   0.07304   0.70414   0.00000  Uiso   1.00
H1232  H     0.44618   0.08540   0.68922   0.00000  Uiso   1.00
H1233  H     0.44731   0.04086   0.65271   0.00000  Uiso   1.00
C1234  C     0.53624   0.28612   0.82666   0.00000  Uiso   1.00
C1235  C     0.50228   0.28432   0.85879   0.00000  Uiso   1.00
H1236  H     0.49363   0.31752   0.87180   0.00000  Uiso   1.00
H1237  H     0.47302   0.27184   0.84222   0.00000  Uiso   1.00
H1238  H     0.51245   0.26341   0.88802   0.00000  Uiso   1.00
H1239  H     0.55017   0.25376   0.81752   0.00000  Uiso   1.00
H1240  H     0.56349   0.30165   0.84413   0.00000  Uiso   1.00
C1241  C     0.55080   0.04850   0.81802   0.00000  Uiso   1.00
C1242  C     0.53603   0.05360   0.86452   0.00000  Uiso   1.00
H1243  H     0.50224   0.05606   0.86260   0.00000  Uiso   1.00
H1244  H     0.54829   0.02618   0.88714   0.00000  Uiso   1.00
H1245  H     0.54767   0.08493   0.88076   0.00000  Uiso   1.00
H1246  H     0.58162   0.03219   0.82027   0.00000  Uiso   1.00
H1247  H     0.55571   0.08213   0.80698   0.00000  Uiso   1.00
C1248  C     0.45538   0.28588   0.67705   0.00000  Uiso   1.00
C1249  C     0.48079   0.28601   0.63706   0.00000  Uiso   1.00
H1250  H     0.47877   0.31922   0.62016   0.00000  Uiso   1.00
H1251  H     0.51348   0.27893   0.64771   0.00000  Uiso   1.00
H1252  H     0.46946   0.26020   0.61226   0.00000  Uiso   1.00
H1253  H     0.44616   0.25220   0.68587   0.00000  Uiso   1.00
H1254  H     0.42517   0.30082   0.66632   0.00000  Uiso   1.00
C1255  C     0.75452   0.16719   0.75055   0.00000  Uiso   1.00
C1256  C     0.91239   0.16621   0.74921   0.00000  Uiso   1.00
C1257  C     0.78238   0.10875   0.51619   0.00000  Uiso   1.00
C1258  C     0.88957   0.22192   0.98500   0.00000  Uiso   1.00
C1259  C     0.69115   0.13124   0.76888   0.00000  Uiso   1.00
C1260  C     0.97647   0.20417   0.73224   0.00000  Uiso   1.00
C1261  C     0.98220   0.12836   0.76446   0.00000  Uiso   1.00
C1262  C     0.68595   0.20499   0.73304   0.00000  Uiso   1.00
C1263  C     0.95738   0.16572   0.74808   0.00000  Uiso   1.00
C1264  C     0.70995   0.16816   0.75105   0.00000  Uiso   1.00
C1265  C     0.80816   0.02493   0.71936   0.00000  Uiso   1.00
C1266  C     0.85330   0.30915   0.78441   0.00000  Uiso   1.00
C1267  C     0.85543   0.02455   0.78317   0.00000  Uiso   1.00
C1268  C     0.81079   0.30927   0.71713   0.00000  Uiso   1.00
C1269  C     0.83171   0.16649   0.66469   0.00000  Uiso   1.00
C1270  C     0.83607   0.16673   0.83549   0.00000  Uiso   1.00
C1271  C     0.87198   0.18318   0.91244   0.00000  Uiso   1.00
C1272  C     0.79885   0.14850   0.58792   0.00000  Uiso   1.00
C1273  C     0.83824   0.16602   0.88446   0.00000  Uiso   1.00
C1274  C     0.83158   0.16639   0.61621   0.00000  Uiso   1.00
C1275  C     0.80598   0.14545   0.90374   0.00000  Uiso   1.00
C1276  C     0.86478   0.18596   0.59821   0.00000  Uiso   1.00
C1277  C     0.80830   0.13963   0.95006   0.00000  Uiso   1.00
C1278  C     0.86389   0.19108   0.55154   0.00000  Uiso   1.00
C1279  C     0.83703   0.16481   0.97743   0.00000  Uiso   1.00
C1280  C     0.83530   0.16570   0.52391   0.00000  Uiso   1.00
C1281  C     0.86687   0.18984   0.95822   0.00000  Uiso   1.00
C1282  C     0.80499   0.14095   0.54276   0.00000  Uiso   1.00
C1283  C     0.78283   0.10922   0.96968   0.00000  Uiso   1.00
C1284  C     0.88977   0.22095   0.53166   0.00000  Uiso   1.00
Cu1285 Cu    0.83333   0.21355   0.75000   0.00000  Uiso   1.00
Cu1286 Cu    0.83333   0.11978   0.75000   0.00000  Uiso   1.00
N1287  N     0.83333   0.28402   0.75000   0.00000  Uiso   1.00
N1288  N     0.83333   0.04931   0.75000   0.00000  Uiso   1.00
O1289  O     0.77321   0.20625   0.74999   0.00000  Uiso   1.00
O1290  O     0.89345   0.12709   0.75000   0.00000  Uiso   1.00
O1291  O     0.89345   0.20625   0.75000   0.00000  Uiso   1.00
O1292  O     0.77321   0.12709   0.74999   0.00000  Uiso   1.00
O1293  O     0.83332   0.20627   0.68513   0.00000  Uiso   1.00
O1294  O     0.83334   0.12707   0.81487   0.00000  Uiso   1.00
O1295  O     0.83334   0.20627   0.81487   0.00000  Uiso   1.00
O1296  O     0.83332   0.12707   0.68513   0.00000  Uiso   1.00
C1297  C     0.91347   0.19325   0.89588   0.00000  Uiso   1.00
C1298  C     0.93193   0.15583   0.86894   0.00000  Uiso   1.00
H1299  H     0.93782   0.12483   0.88925   0.00000  Uiso   1.00
H1300  H     0.91215   0.14880   0.83834   0.00000  Uiso   1.00
H1301  H     0.96172   0.16699   0.85891   0.00000  Uiso   1.00
H1302  H     0.91209   0.22518   0.87750   0.00000  Uiso   1.00
H1303  H     0.93703   0.19748   0.92437   0.00000  Uiso   1.00
C1304  C     0.75642   0.14200   0.60338   0.00000  Uiso   1.00
C1305  C     0.73941   0.18310   0.62688   0.00000  Uiso   1.00
H1306  H     0.75374   0.18544   0.66131   0.00000  Uiso   1.00
H1307  H     0.74392   0.21462   0.60841   0.00000  Uiso   1.00
H1308  H     0.70610   0.17918   0.62882   0.00000  Uiso   1.00
H1309  H     0.73351   0.13655   0.57452   0.00000  Uiso   1.00
H1310  H     0.75630   0.11188   0.62442   0.00000  Uiso   1.00
N1311  N     0.76976   0.13233   0.87668   0.00000  Uiso   1.00
H1312  H     0.77708   0.10544   0.85607   0.00000  Uiso   1.00
H1313  H     0.75847   0.15987   0.85729   0.00000  Uiso   1.00
N1314  N     0.89970   0.19789   0.62807   0.00000  Uiso   1.00
H1315  H     0.92638   0.18562   0.61554   0.00000  Uiso   1.00
H1316  H     0.90047   0.23295   0.63212   0.00000  Uiso   1.00
N1317  N     0.75935   0.07700   0.94259   0.00000  Uiso   1.00
H1318  H     0.72850   0.08145   0.94753   0.00000  Uiso   1.00
H1319  H     0.76901   0.04420   0.95197   0.00000  Uiso   1.00
N1320  N     0.91419   0.25256   0.55837   0.00000  Uiso   1.00
H1321  H     0.90487   0.28560   0.54953   0.00000  Uiso   1.00
H1322  H     0.94483   0.24755   0.55275   0.00000  Uiso   1.00
N1323  N     0.76242   0.07287   0.53691   0.00000  Uiso   1.00
H1324  H     0.77633   0.04195   0.52936   0.00000  Uiso   1.00
H1325  H     0.73167   0.07244   0.52429   0.00000  Uiso   1.00
N1326  N     0.90848   0.25873   0.96447   0.00000  Uiso   1.00
H1327  H     0.93933   0.25979   0.97654   0.00000  Uiso   1.00
H1328  H     0.89403   0.28915   0.97259   0.00000  Uiso   1.00
N1329  N     0.71510   0.09735   0.79425   0.00000  Uiso   1.00
H1330  H     0.70566   0.09734   0.82632   0.00000  Uiso   1.00
H1331  H     0.70880   0.06546   0.78042   0.00000  Uiso   1.00
N1332  N     0.95231   0.24221   0.71454   0.00000  Uiso   1.00
H1333  H     0.95894   0.24811   0.68200   0.00000  Uiso   1.00
H1334  H     0.95988   0.27084   0.73397   0.00000  Uiso   1.00
N1335  N     0.96613   0.08732   0.77942   0.00000  Uiso   1.00
H1336  H     0.94656   0.07244   0.75438   0.00000  Uiso   1.00
H1337  H     0.95289   0.09433   0.80854   0.00000  Uiso   1.00
N1338  N     0.70511   0.24338   0.71570   0.00000  Uiso   1.00
H1339  H     0.69746   0.27241   0.73338   0.00000  Uiso   1.00
H1340  H     0.69463   0.24745   0.68216   0.00000  Uiso   1.00
C1341  C     0.77624   0.04933   0.68765   0.00000  Uiso   1.00
C1342  C     0.73188   0.04072   0.69670   0.00000  Uiso   1.00
H1343  H     0.71443   0.02666   0.66653   0.00000  Uiso   1.00
H1344  H     0.73026   0.01689   0.72468   0.00000  Uiso   1.00
H1345  H     0.71610   0.07304   0.70414   0.00000  Uiso   1.00
H1346  H     0.77951   0.08540   0.68922   0.00000  Uiso   1.00
H1347  H     0.78064   0.04086   0.65271   0.00000  Uiso   1.00
C1348  C     0.86958   0.28612   0.82666   0.00000  Uiso   1.00
C1349  C     0.83562   0.28432   0.85879   0.00000  Uiso   1.00
H1350  H     0.82697   0.31752   0.87180   0.00000  Uiso   1.00
H1351  H     0.80635   0.27184   0.84222   0.00000  Uiso   1.00
H1352  H     0.84579   0.26341   0.88802   0.00000  Uiso   1.00
H1353  H     0.88351   0.25376   0.81752   0.00000  Uiso   1.00
H1354  H     0.89682   0.30165   0.84413   0.00000  Uiso   1.00
C1355  C     0.88413   0.04850   0.81802   0.00000  Uiso   1.00
C1356  C     0.86936   0.05360   0.86452   0.00000  Uiso   1.00
H1357  H     0.83557   0.05606   0.86260   0.00000  Uiso   1.00
H1358  H     0.88163   0.02618   0.88714   0.00000  Uiso   1.00
H1359  H     0.88100   0.08493   0.88076   0.00000  Uiso   1.00
H1360  H     0.91496   0.03219   0.82027   0.00000  Uiso   1.00
H1361  H     0.88905   0.08213   0.80698   0.00000  Uiso   1.00
C1362  C     0.78871   0.28588   0.67705   0.00000  Uiso   1.00
C1363  C     0.81413   0.28601   0.63706   0.00000  Uiso   1.00
H1364  H     0.81210   0.31922   0.62016   0.00000  Uiso   1.00
H1365  H     0.84682   0.27893   0.64771   0.00000  Uiso   1.00
H1366  H     0.80279   0.26020   0.61226   0.00000  Uiso   1.00
H1367  H     0.77949   0.25220   0.68587   0.00000  Uiso   1.00
H1368  H     0.75851   0.30082   0.66632   0.00000  Uiso   1.00
C1369  C     0.08785   0.50053   0.75055   0.00000  Uiso   1.00
C1370  C     0.24573   0.49955   0.74921   0.00000  Uiso   1.00
C1371  C     0.11571   0.44208   0.51619   0.00000  Uiso   1.00
C1372  C     0.22290   0.55526   0.98500   0.00000  Uiso   1.00
C1373  C     0.02449   0.46457   0.76888   0.00000  Uiso   1.00
C1374  C     0.30980   0.53751   0.73224   0.00000  Uiso   1.00
C1375  C     0.31553   0.46169   0.76446   0.00000  Uiso   1.00
C1376  C     0.01928   0.53833   0.73304   0.00000  Uiso   1.00
C1377  C     0.29072   0.49905   0.74808   0.00000  Uiso   1.00
C1378  C     0.04329   0.50149   0.75105   0.00000  Uiso   1.00
C1379  C     0.14149   0.35826   0.71936   0.00000  Uiso   1.00
C1380  C     0.18663   0.64248   0.78441   0.00000  Uiso   1.00
C1381  C     0.18876   0.35789   0.78317   0.00000  Uiso   1.00
C1382  C     0.14413   0.64260   0.71713   0.00000  Uiso   1.00
C1383  C     0.16504   0.49982   0.66469   0.00000  Uiso   1.00
C1384  C     0.16940   0.50006   0.83549   0.00000  Uiso   1.00
C1385  C     0.20531   0.51652   0.91244   0.00000  Uiso   1.00
C1386  C     0.13218   0.48184   0.58792   0.00000  Uiso   1.00
C1387  C     0.17158   0.49935   0.88446   0.00000  Uiso   1.00
C1388  C     0.16491   0.49972   0.61621   0.00000  Uiso   1.00
C1389  C     0.13931   0.47879   0.90374   0.00000  Uiso   1.00
C1390  C     0.19811   0.51929   0.59821   0.00000  Uiso   1.00
C1391  C     0.14163   0.47296   0.95006   0.00000  Uiso   1.00
C1392  C     0.19722   0.52441   0.55154   0.00000  Uiso   1.00
C1393  C     0.17036   0.49815   0.97743   0.00000  Uiso   1.00
C1394  C     0.16863   0.49903   0.52391   0.00000  Uiso   1.00
C1395  C     0.20020   0.52317   0.95822   0.00000  Uiso   1.00
C1396  C     0.13832   0.47428   0.54276   0.00000  Uiso   1.00
C1397  C     0.11617   0.44255   0.96968   0.00000  Uiso   1.00
C1398  C     0.22310   0.55428   0.53166   0.00000  Uiso   1.00
Cu1399 Cu    0.16667   0.54689   0.75000   0.00000  Uiso   1.00
Cu1400 Cu    0.16667   0.45311   0.75000   0.00000  Uiso   1.00
N1401  N     0.16667   0.61736   0.75000   0.00000  Uiso   1.00
N1402  N     0.16667   0.38264   0.75000   0.00000  Uiso   1.00
O1403  O     0.10655   0.53958   0.74999   0.00000  Uiso   1.00
O1404  O     0.22679   0.46042   0.75000   0.00000  Uiso   1.00
O1405  O     0.22679   0.53958   0.75000   0.00000  Uiso   1.00
O1406  O     0.10655   0.46042   0.74999   0.00000  Uiso   1.00
O1407  O     0.16666   0.53960   0.68513   0.00000  Uiso   1.00
O1408  O     0.16668   0.46040   0.81487   0.00000  Uiso   1.00
O1409  O     0.16668   0.53960   0.81487   0.00000  Uiso   1.00
O1410  O     0.16666   0.46040   0.68513   0.00000  Uiso   1.00
C1411  C     0.24681   0.52659   0.89588   0.00000  Uiso   1.00
C1412  C     0.26526   0.48917   0.86894   0.00000  Uiso   1.00
H1413  H     0.27115   0.45817   0.88925   0.00000  Uiso   1.00
H1414  H     0.24548   0.48214   0.83834   0.00000  Uiso   1.00
H1415  H     0.29505   0.50032   0.85891   0.00000  Uiso   1.00
H1416  H     0.24542   0.55851   0.87750   0.00000  Uiso   1.00
H1417  H     0.27036   0.53081   0.92437   0.00000  Uiso   1.00
C1418  C     0.08975   0.47533   0.60338   0.00000  Uiso   1.00
C1419  C     0.07274   0.51643   0.62688   0.00000  Uiso   1.00
H1420  H     0.08707   0.51878   0.66131   0.00000  Uiso   1.00
H1421  H     0.07725   0.54796   0.60841   0.00000  Uiso   1.00
H1422  H     0.03944   0.51251   0.62882   0.00000  Uiso   1.00
H1423  H     0.06684   0.46989   0.57452   0.00000  Uiso   1.00
H1424  H     0.08964   0.44522   0.62442   0.00000  Uiso   1.00
N1425  N     0.10310   0.46566   0.87668   0.00000  Uiso   1.00
H1426  H     0.11041   0.43877   0.85607   0.00000  Uiso   1.00
H1427  H     0.09180   0.49320   0.85729   0.00000  Uiso   1.00
N1428  N     0.23303   0.53122   0.62807   0.00000  Uiso   1.00
H1429  H     0.25972   0.51895   0.61554   0.00000  Uiso   1.00
H1430  H     0.23380   0.56629   0.63212   0.00000  Uiso   1.00
N1431  N     0.09269   0.41033   0.94259   0.00000  Uiso   1.00
H1432  H     0.06184   0.41478   0.94753   0.00000  Uiso   1.00
H1433  H     0.10234   0.37753   0.95197   0.00000  Uiso   1.00
N1434  N     0.24753   0.58590   0.55837   0.00000  Uiso   1.00
H1435  H     0.23821   0.61894   0.54953   0.00000  Uiso   1.00
H1436  H     0.27817   0.58089   0.55275   0.00000  Uiso   1.00
N1437  N     0.09575   0.40620   0.53691   0.00000  Uiso   1.00
H1438  H     0.10966   0.37529   0.52936   0.00000  Uiso   1.00
H1439  H     0.06501   0.40578   0.52429   0.00000  Uiso   1.00
N1440  N     0.24181   0.59206   0.96447   0.00000  Uiso   1.00
H1441  H     0.27267   0.59313   0.97654   0.00000  Uiso   1.00
H1442  H     0.22736   0.62248   0.97259   0.00000  Uiso   1.00
N1443  N     0.04843   0.43069   0.79425   0.00000  Uiso   1.00
H1444  H     0.03900   0.43068   0.82632   0.00000  Uiso   1.00
H1445  H     0.04213   0.39879   0.78042   0.00000  Uiso   1.00
N1446  N     0.28565   0.57554   0.71454   0.00000  Uiso   1.00
H1447  H     0.29227   0.58144   0.68200   0.00000  Uiso   1.00
H1448  H     0.29322   0.60418   0.73397   0.00000  Uiso   1.00
N1449  N     0.29946   0.42066   0.77942   0.00000  Uiso   1.00
H1450  H     0.27989   0.40578   0.75438   0.00000  Uiso   1.00
H1451  H     0.28623   0.42766   0.80854   0.00000  Uiso   1.00
N1452  N     0.03844   0.57671   0.71570   0.00000  Uiso   1.00
H1453  H     0.03079   0.60574   0.73338   0.00000  Uiso   1.00
H1454  H     0.02796   0.58078   0.68216   0.00000  Uiso   1.00
C1455  C     0.10957   0.38267   0.68765   0.00000  Uiso   1.00
C1456  C     0.06522   0.37405   0.69670   0.00000  Uiso   1.00
H1457  H     0.04776   0.35999   0.66653   0.00000  Uiso   1.00
H1458  H     0.06359   0.35022   0.72468   0.00000  Uiso   1.00
H1459  H     0.04943   0.40637   0.70414   0.00000  Uiso   1.00
H1460  H     0.11284   0.41874   0.68922   0.00000  Uiso   1.00
H1461  H     0.11397   0.37419   0.65271   0.00000  Uiso   1.00
C1462  C     0.20291   0.61946   0.82666   0.00000  Uiso   1.00
C1463  C     0.16895   0.61765   0.85879   0.00000  Uiso   1.00
H1464  H     0.16030   0.65086   0.87180   0.00000  Uiso   1.00
H1465  H     0.13969   0.60517   0.84222   0.00000  Uiso   1.00
H1466  H     0.17912   0.59674   0.88802   0.00000  Uiso   1.00
H1467  H     0.21684   0.58710   0.81752   0.00000  Uiso   1.00
H1468  H     0.23016   0.63498   0.84413   0.00000  Uiso   1.00
C1469  C     0.21746   0.38183   0.81802   0.00000  Uiso   1.00
C1470  C     0.20269   0.38693   0.86452   0.00000  Uiso   1.00
H1471  H     0.16891   0.38939   0.86260   0.00000  Uiso   1.00
H1472  H     0.21496   0.35951   0.88714   0.00000  Uiso   1.00
H1473  H     0.21433   0.41827   0.88076   0.00000  Uiso   1.00
H1474  H     0.24829   0.36552   0.82027   0.00000  Uiso   1.00
H1475  H     0.22238   0.41547   0.80698   0.00000  Uiso   1.00
C1476  C     0.12204   0.61922   0.67705   0.00000  Uiso   1.00
C1477  C     0.14746   0.61934   0.63706   0.00000  Uiso   1.00
H1478  H     0.14543   0.65255   0.62016   0.00000  Uiso   1.00
H1479  H     0.18015   0.61226   0.64771   0.00000  Uiso   1.00
H1480  H     0.13613   0.59353   0.61226   0.00000  Uiso   1.00
H1481  H     0.11283   0.58554   0.68587   0.00000  Uiso   1.00
H1482  H     0.09184   0.63415   0.66632   0.00000  Uiso   1.00
C1483  C     0.42118   0.50053   0.75055   0.00000  Uiso   1.00
C1484  C     0.57906   0.49955   0.74921   0.00000  Uiso   1.00
C1485  C     0.44905   0.44208   0.51619   0.00000  Uiso   1.00
C1486  C     0.55623   0.55526   0.98500   0.00000  Uiso   1.00
C1487  C     0.35782   0.46457   0.76888   0.00000  Uiso   1.00
C1488  C     0.64314   0.53751   0.73224   0.00000  Uiso   1.00
C1489  C     0.64886   0.46169   0.76446   0.00000  Uiso   1.00
C1490  C     0.35262   0.53833   0.73304   0.00000  Uiso   1.00
C1491  C     0.62405   0.49905   0.74808   0.00000  Uiso   1.00
C1492  C     0.37662   0.50149   0.75105   0.00000  Uiso   1.00
C1493  C     0.47482   0.35826   0.71936   0.00000  Uiso   1.00
C1494  C     0.51997   0.64248   0.78441   0.00000  Uiso   1.00
C1495  C     0.52209   0.35789   0.78317   0.00000  Uiso   1.00
C1496  C     0.47746   0.64260   0.71713   0.00000  Uiso   1.00
C1497  C     0.49837   0.49982   0.66469   0.00000  Uiso   1.00
C1498  C     0.50274   0.50006   0.83549   0.00000  Uiso   1.00
C1499  C     0.53865   0.51652   0.91244   0.00000  Uiso   1.00
C1500  C     0.46552   0.48184   0.58792   0.00000  Uiso   1.00
C1501  C     0.50491   0.49935   0.88446   0.00000  Uiso   1.00
C1502  C     0.49824   0.49972   0.61621   0.00000  Uiso   1.00
C1503  C     0.47264   0.47879   0.90374   0.00000  Uiso   1.00
C1504  C     0.53144   0.51929   0.59821   0.00000  Uiso   1.00
C1505  C     0.47496   0.47296   0.95006   0.00000  Uiso   1.00
C1506  C     0.53055   0.52441   0.55154   0.00000  Uiso   1.00
C1507  C     0.50370   0.49815   0.97743   0.00000  Uiso   1.00
C1508  C     0.50197   0.49903   0.52391   0.00000  Uiso   1.00
C1509  C     0.53353   0.52317   0.95822   0.00000  Uiso   1.00
C1510  C     0.47166   0.47428   0.54276   0.00000  Uiso   1.00
C1511  C     0.44950   0.44255   0.96968   0.00000  Uiso   1.00
C1512  C     0.55644   0.55428   0.53166   0.00000  Uiso   1.00
Cu1513 Cu    0.50000   0.54689   0.75000   0.00000  Uiso   1.00
Cu1514 Cu    0.50000   0.45311   0.75000   0.00000  Uiso   1.00
N1515  N     0.50000   0.61736   0.75000   0.00000  Uiso   1.00
N1516  N     0.50000   0.38264   0.75000   0.00000  Uiso   1.00
O1517  O     0.43988   0.53958   0.74999   0.00000  Uiso   1.00
O1518  O     0.56012   0.46042   0.75000   0.00000  Uiso   1.00
O1519  O     0.56012   0.53958   0.75000   0.00000  Uiso   1.00
O1520  O     0.43988   0.46042   0.74999   0.00000  Uiso   1.00
O1521  O     0.49999   0.53960   0.68513   0.00000  Uiso   1.00
O1522  O     0.50001   0.46040   0.81487   0.00000  Uiso   1.00
O1523  O     0.50001   0.53960   0.81487   0.00000  Uiso   1.00
O1524  O     0.49999   0.46040   0.68513   0.00000  Uiso   1.00
C1525  C     0.58014   0.52659   0.89588   0.00000  Uiso   1.00
C1526  C     0.59859   0.48917   0.86894   0.00000  Uiso   1.00
H1527  H     0.60448   0.45817   0.88925   0.00000  Uiso   1.00
H1528  H     0.57882   0.48214   0.83834   0.00000  Uiso   1.00
H1529  H     0.62839   0.50032   0.85891   0.00000  Uiso   1.00
H1530  H     0.57876   0.55851   0.87750   0.00000  Uiso   1.00
H1531  H     0.60370   0.53081   0.92437   0.00000  Uiso   1.00
C1532  C     0.42309   0.47533   0.60338   0.00000  Uiso   1.00
C1533  C     0.40607   0.51643   0.62688   0.00000  Uiso   1.00
H1534  H     0.42041   0.51878   0.66131   0.00000  Uiso   1.00
H1535  H     0.41058   0.54796   0.60841   0.00000  Uiso   1.00
H1536  H     0.37277   0.51251   0.62882   0.00000  Uiso   1.00
H1537  H     0.40017   0.46989   0.57452   0.00000  Uiso   1.00
H1538  H     0.42297   0.44522   0.62442   0.00000  Uiso   1.00
N1539  N     0.43643   0.46566   0.87668   0.00000  Uiso   1.00
H1540  H     0.44375   0.43877   0.85607   0.00000  Uiso   1.00
H1541  H     0.42514   0.49320   0.85729   0.00000  Uiso   1.00
N1542  N     0.56637   0.53122   0.62807   0.00000  Uiso   1.00
H1543  H     0.59305   0.51895   0.61554   0.00000  Uiso   1.00
H1544  H     0.56714   0.56629   0.63212   0.00000  Uiso   1.00
N1545  N     0.42602   0.41033   0.94259   0.00000  Uiso   1.00
H1546  H     0.39517   0.41478   0.94753   0.00000  Uiso   1.00
H1547  H     0.43567   0.37753   0.95197   0.00000  Uiso   1.00
N1548  N     0.58086   0.58590   0.55837   0.00000  Uiso   1.00
H1549  H     0.57154   0.61894   0.54953   0.00000  Uiso   1.00
H1550  H     0.61150   0.58089   0.55275   0.00000  Uiso   1.00
N1551  N     0.42908   0.40620   0.53691   0.00000  Uiso   1.00
H1552  H     0.44299   0.37529   0.52936   0.00000  Uiso   1.00
H1553  H     0.39834   0.40578   0.52429   0.00000  Uiso   1.00
N1554  N     0.57514   0.59206   0.96447   0.00000  Uiso   1.00
H1555  H     0.60600   0.59313   0.97654   0.00000  Uiso   1.00
H1556  H     0.56069   0.62248   0.97259   0.00000  Uiso   1.00
N1557  N     0.38176   0.43069   0.79425   0.00000  Uiso   1.00
H1558  H     0.37233   0.43068   0.82632   0.00000  Uiso   1.00
H1559  H     0.37546   0.39879   0.78042   0.00000  Uiso   1.00
N1560  N     0.61898   0.57554   0.71454   0.00000  Uiso   1.00
H1561  H     0.62560   0.58144   0.68200   0.00000  Uiso   1.00
H1562  H     0.62655   0.60418   0.73397   0.00000  Uiso   1.00
N1563  N     0.63280   0.42066   0.77942   0.00000  Uiso   1.00
H1564  H     0.61323   0.40578   0.75438   0.00000  Uiso   1.00
H1565  H     0.61956   0.42766   0.80854   0.00000  Uiso   1.00
N1566  N     0.37178   0.57671   0.71570   0.00000  Uiso   1.00
H1567  H     0.36412   0.60574   0.73338   0.00000  Uiso   1.00
H1568  H     0.36130   0.58078   0.68216   0.00000  Uiso   1.00
C1569  C     0.44290   0.38267   0.68765   0.00000  Uiso   1.00
C1570  C     0.39855   0.37405   0.69670   0.00000  Uiso   1.00
H1571  H     0.38110   0.35999   0.66653   0.00000  Uiso   1.00
H1572  H     0.39692   0.35022   0.72468   0.00000  Uiso   1.00
H1573  H     0.38276   0.40637   0.70414   0.00000  Uiso   1.00
H1574  H     0.44618   0.41874   0.68922   0.00000  Uiso   1.00
H1575  H     0.44731   0.37419   0.65271   0.00000  Uiso   1.00
C1576  C     0.53624   0.61946   0.82666   0.00000  Uiso   1.00
C1577  C     0.50228   0.61765   0.85879   0.00000  Uiso   1.00
H1578  H     0.49363   0.65086   0.87180   0.00000  Uiso   1.00
H1579  H     0.47302   0.60517   0.84222   0.00000  Uiso   1.00
H1580  H     0.51245   0.59674   0.88802   0.00000  Uiso   1.00
H1581  H     0.55017   0.58710   0.81752   0.00000  Uiso   1.00
H1582  H     0.56349   0.63498   0.84413   0.00000  Uiso   1.00
C1583  C     0.55080   0.38183   0.81802   0.00000  Uiso   1.00
C1584  C     0.53603   0.38693   0.86452   0.00000  Uiso   1.00
H1585  H     0.50224   0.38939   0.86260   0.00000  Uiso   1.00
H1586  H     0.54829   0.35951   0.88714   0.00000  Uiso   1.00
H1587  H     0.54767   0.41827   0.88076   0.00000  Uiso   1.00
H1588  H     0.58162   0.36552   0.82027   0.00000  Uiso   1.00
H1589  H     0.55571   0.41547   0.80698   0.00000  Uiso   1.00
C1590  C     0.45538   0.61922   0.67705   0.00000  Uiso   1.00
C1591  C     0.48079   0.61934   0.63706   0.00000  Uiso   1.00
H1592  H     0.47877   0.65255   0.62016   0.00000  Uiso   1.00
H1593  H     0.51348   0.61226   0.64771   0.00000  Uiso   1.00
H1594  H     0.46946   0.59353   0.61226   0.00000  Uiso   1.00
H1595  H     0.44616   0.58554   0.68587   0.00000  Uiso   1.00
H1596  H     0.42517   0.63415   0.66632   0.00000  Uiso   1.00
C1597  C     0.75452   0.50053   0.75055   0.00000  Uiso   1.00
C1598  C     0.91239   0.49955   0.74921   0.00000  Uiso   1.00
C1599  C     0.78238   0.44208   0.51619   0.00000  Uiso   1.00
C1600  C     0.88957   0.55526   0.98500   0.00000  Uiso   1.00
C1601  C     0.69115   0.46457   0.76888   0.00000  Uiso   1.00
C1602  C     0.97647   0.53751   0.73224   0.00000  Uiso   1.00
C1603  C     0.98220   0.46169   0.76446   0.00000  Uiso   1.00
C1604  C     0.68595   0.53833   0.73304   0.00000  Uiso   1.00
C1605  C     0.95738   0.49905   0.74808   0.00000  Uiso   1.00
C1606  C     0.70995   0.50149   0.75105   0.00000  Uiso   1.00
C1607  C     0.80816   0.35826   0.71936   0.00000  Uiso   1.00
C1608  C     0.85330   0.64248   0.78441   0.00000  Uiso   1.00
C1609  C     0.85543   0.35789   0.78317   0.00000  Uiso   1.00
C1610  C     0.81079   0.64260   0.71713   0.00000  Uiso   1.00
C1611  C     0.83171   0.49982   0.66469   0.00000  Uiso   1.00
C1612  C     0.83607   0.50006   0.83549   0.00000  Uiso   1.00
C1613  C     0.87198   0.51652   0.91244   0.00000  Uiso   1.00
C1614  C     0.79885   0.48184   0.58792   0.00000  Uiso   1.00
C1615  C     0.83824   0.49935   0.88446   0.00000  Uiso   1.00
C1616  C     0.83158   0.49972   0.61621   0.00000  Uiso   1.00
C1617  C     0.80598   0.47879   0.90374   0.00000  Uiso   1.00
C1618  C     0.86478   0.51929   0.59821   0.00000  Uiso   1.00
C1619  C     0.80830   0.47296   0.95006   0.00000  Uiso   1.00
C1620  C     0.86389   0.52441   0.55154   0.00000  Uiso   1.00
C1621  C     0.83703   0.49815   0.97743   0.00000  Uiso   1.00
C1622  C     0.83530   0.49903   0.52391   0.00000  Uiso   1.00
C1623  C     0.86687   0.52317   0.95822   0.00000  Uiso   1.00
C1624  C     0.80499   0.47428   0.54276   0.00000  Uiso   1.00
C1625  C     0.78283   0.44255   0.96968   0.00000  Uiso   1.00
C1626  C     0.88977   0.55428   0.53166   0.00000  Uiso   1.00
Cu1627 Cu    0.83333   0.54689   0.75000   0.00000  Uiso   1.00
Cu1628 Cu    0.83333   0.45311   0.75000   0.00000  Uiso   1.00
N1629  N     0.83333   0.61736   0.75000   0.00000  Uiso   1.00
N1630  N     0.83333   0.38264   0.75000   0.00000  Uiso   1.00
O1631  O     0.77321   0.53958   0.74999   0.00000  Uiso   1.00
O1632  O     0.89345   0.46042   0.75000   0.00000  Uiso   1.00
O1633  O     0.89345   0.53958   0.75000   0.00000  Uiso   1.00
O1634  O     0.77321   0.46042   0.74999   0.00000  Uiso   1.00
O1635  O     0.83332   0.53960   0.68513   0.00000  Uiso   1.00
O1636  O     0.83334   0.46040   0.81487   0.00000  Uiso   1.00
O1637  O     0.83334   0.53960   0.81487   0.00000  Uiso   1.00
O1638  O     0.83332   0.46040   0.68513   0.00000  Uiso   1.00
C1639  C     0.91347   0.52659   0.89588   0.00000  Uiso   1.00
C1640  C     0.93193   0.48917   0.86894   0.00000  Uiso   1.00
H1641  H     0.93782   0.45817   0.88925   0.00000  Uiso   1.00
H1642  H     0.91215   0.48214   0.83834   0.00000  Uiso   1.00
H1643  H     0.96172   0.50032   0.85891   0.00000  Uiso   1.00
H1644  H     0.91209   0.55851   0.87750   0.00000  Uiso   1.00
H1645  H     0.93703   0.53081   0.92437   0.00000  Uiso   1.00
C1646  C     0.75642   0.47533   0.60338   0.00000  Uiso   1.00
C1647  C     0.73941   0.51643   0.62688   0.00000  Uiso   1.00
H1648  H     0.75374   0.51878   0.66131   0.00000  Uiso   1.00
H1649  H     0.74392   0.54796   0.60841   0.00000  Uiso   1.00
H1650  H     0.70610   0.51251   0.62882   0.00000  Uiso   1.00
H1651  H     0.73351   0.46989   0.57452   0.00000  Uiso   1.00
H1652  H     0.75630   0.44522   0.62442   0.00000  Uiso   1.00
N1653  N     0.76976   0.46566   0.87668   0.00000  Uiso   1.00
H1654  H     0.77708   0.43877   0.85607   0.00000  Uiso   1.00
H1655  H     0.75847   0.49320   0.85729   0.00000  Uiso   1.00
N1656  N     0.89970   0.53122   0.62807   0.00000  Uiso   1.00
H1657  H     0.92638   0.51895   0.61554   0.00000  Uiso   1.00
H1658  H     0.90047   0.56629   0.63212   0.00000  Uiso   1.00
N1659  N     0.75935   0.41033   0.94259   0.00000  Uiso   1.00
H1660  H     0.72850   0.41478   0.94753   0.00000  Uiso   1.00
H1661  H     0.76901   0.37753   0.95197   0.00000  Uiso   1.00
N1662  N     0.91419   0.58590   0.55837   0.00000  Uiso   1.00
H1663  H     0.90487   0.61894   0.54953   0.00000  Uiso   1.00
H1664  H     0.94483   0.58089   0.55275   0.00000  Uiso   1.00
N1665  N     0.76242   0.40620   0.53691   0.00000  Uiso   1.00
H1666  H     0.77633   0.37529   0.52936   0.00000  Uiso   1.00
H1667  H     0.73167   0.40578   0.52429   0.00000  Uiso   1.00
N1668  N     0.90848   0.59206   0.96447   0.00000  Uiso   1.00
H1669  H     0.93933   0.59313   0.97654   0.00000  Uiso   1.00
H1670  H     0.89403   0.62248   0.97259   0.00000  Uiso   1.00
N1671  N     0.71510   0.43069   0.79425   0.00000  Uiso   1.00
H1672  H     0.70566   0.43068   0.82632   0.00000  Uiso   1.00
H1673  H     0.70880   0.39879   0.78042   0.00000  Uiso   1.00
N1674  N     0.95231   0.57554   0.71454   0.00000  Uiso   1.00
H1675  H     0.95894   0.58144   0.68200   0.00000  Uiso   1.00
H1676  H     0.95988   0.60418   0.73397   0.00000  Uiso   1.00
N1677  N     0.96613   0.42066   0.77942   0.00000  Uiso   1.00
H1678  H     0.94656   0.40578   0.75438   0.00000  Uiso   1.00
H1679  H     0.95289   0.42766   0.80854   0.00000  Uiso   1.00
N1680  N     0.70511   0.57671   0.71570   0.00000  Uiso   1.00
H1681  H     0.69746   0.60574   0.73338   0.00000  Uiso   1.00
H1682  H     0.69463   0.58078   0.68216   0.00000  Uiso   1.00
C1683  C     0.77624   0.38267   0.68765   0.00000  Uiso   1.00
C1684  C     0.73188   0.37405   0.69670   0.00000  Uiso   1.00
H1685  H     0.71443   0.35999   0.66653   0.00000  Uiso   1.00
H1686  H     0.73026   0.35022   0.72468   0.00000  Uiso   1.00
H1687  H     0.71610   0.40637   0.70414   0.00000  Uiso   1.00
H1688  H     0.77951   0.41874   0.68922   0.00000  Uiso   1.00
H1689  H     0.78064   0.37419   0.65271   0.00000  Uiso   1.00
C1690  C     0.86958   0.61946   0.82666   0.00000  Uiso   1.00
C1691  C     0.83562   0.61765   0.85879   0.00000  Uiso   1.00
H1692  H     0.82697   0.65086   0.87180   0.00000  Uiso   1.00
H1693  H     0.80635   0.60517   0.84222   0.00000  Uiso   1.00
H1694  H     0.84579   0.59674   0.88802   0.00000  Uiso   1.00
H1695  H     0.88351   0.58710   0.81752   0.00000  Uiso   1.00
H1696  H     0.89682   0.63498   0.84413   0.00000  Uiso   1.00
C1697  C     0.88413   0.38183   0.81802   0.00000  Uiso   1.00
C1698  C     0.86936   0.38693   0.86452   0.00000  Uiso   1.00
H1699  H     0.83557   0.38939   0.86260   0.00000  Uiso   1.00
H1700  H     0.88163   0.35951   0.88714   0.00000  Uiso   1.00
H1701  H     0.88100   0.41827   0.88076   0.00000  Uiso   1.00
H1702  H     0.91496   0.36552   0.82027   0.00000  Uiso   1.00
H1703  H     0.88905   0.41547   0.80698   0.00000  Uiso   1.00
C1704  C     0.78871   0.61922   0.67705   0.00000  Uiso   1.00
C1705  C     0.81413   0.61934   0.63706   0.00000  Uiso   1.00
H1706  H     0.81210   0.65255   0.62016   0.00000  Uiso   1.00
H1707  H     0.84682   0.61226   0.64771   0.00000  Uiso   1.00
H1708  H     0.80279   0.59353   0.61226   0.00000  Uiso   1.00
H1709  H     0.77949   0.58554   0.68587   0.00000  Uiso   1.00
H1710  H     0.75851   0.63415   0.66632   0.00000  Uiso   1.00
C1711  C     0.08785   0.83386   0.75055   0.00000  Uiso   1.00
C1712  C     0.24573   0.83288   0.74921   0.00000  Uiso   1.00
C1713  C     0.11571   0.77542   0.51619   0.00000  Uiso   1.00
C1714  C     0.22290   0.88859   0.98500   0.00000  Uiso   1.00
C1715  C     0.02449   0.79791   0.76888   0.00000  Uiso   1.00
C1716  C     0.30980   0.87084   0.73224   0.00000  Uiso   1.00
C1717  C     0.31553   0.79503   0.76446   0.00000  Uiso   1.00
C1718  C     0.01928   0.87166   0.73304   0.00000  Uiso   1.00
C1719  C     0.29072   0.83239   0.74808   0.00000  Uiso   1.00
C1720  C     0.04329   0.83482   0.75105   0.00000  Uiso   1.00
C1721  C     0.14149   0.69160   0.71936   0.00000  Uiso   1.00
C1722  C     0.18663   0.97581   0.78441   0.00000  Uiso   1.00
C1723  C     0.18876   0.69122   0.78317   0.00000  Uiso   1.00
C1724  C     0.14413   0.97593   0.71713   0.00000  Uiso   1.00
C1725  C     0.16504   0.83315   0.66469   0.00000  Uiso   1.00
C1726  C     0.16940   0.83339   0.83549   0.00000  Uiso   1.00
C1727  C     0.20531   0.84985   0.91244   0.00000  Uiso   1.00
C1728  C     0.13218   0.81517   0.58792   0.00000  Uiso   1.00
C1729  C     0.17158   0.83269   0.88446   0.00000  Uiso   1.00
C1730  C     0.16491   0.83306   0.61621   0.00000  Uiso   1.00
C1731  C     0.13931   0.81212   0.90374   0.00000  Uiso   1.00
C1732  C     0.19811   0.85263   0.59821   0.00000  Uiso   1.00
C1733  C     0.14163   0.80630   0.95006   0.00000  Uiso   1.00
C1734  C     0.19722   0.85775   0.55154   0.00000  Uiso   1.00
C1735  C     0.17036   0.83148   0.97743   0.00000  Uiso   1.00
C1736  C     0.16863   0.83237   0.52391   0.00000  Uiso   1.00
C1737  C     0.20020   0.85651   0.95822   0.00000  Uiso   1.00
C1738  C     0.13832   0.80761   0.54276   0.00000  Uiso   1.00
C1739  C     0.11617   0.77588   0.96968   0.00000  Uiso   1.00
C1740  C     0.22310   0.88762   0.53166   0.00000  Uiso   1.00
Cu1741 Cu    0.16667   0.88022   0.75000   0.00000  Uiso   1.00
Cu1742 Cu    0.16667   0.78645   0.75000   0.00000  Uiso   1.00
N1743  N     0.16667   0.95069   0.75000   0.00000  Uiso   1.00
N1744  N     0.16667   0.71598   0.75000   0.00000  Uiso   1.00
O1745  O     0.10655   0.87291   0.74999   0.00000  Uiso   1.00
O1746  O     0.22679   0.79375   0.75000   0.00000  Uiso   1.00
O1747  O     0.22679   0.87291   0.75000   0.00000  Uiso   1.00
O1748  O     0.10655   0.79375   0.74999   0.00000  Uiso   1.00
O1749  O     0.16666   0.87293   0.68513   0.00000  Uiso   1.00
O1750  O     0.16668   0.79373   0.81487   0.00000  Uiso   1.00
O1751  O     0.16668   0.87293   0.81487   0.00000  Uiso   1.00
O1752  O     0.16666   0.79373   0.68513   0.00000  Uiso   1.00
C1753  C     0.24681   0.85992   0.89588   0.00000  Uiso   1.00
C1754  C     0.26526   0.82250   0.86894   0.00000  Uiso   1.00
H1755  H     0.27115   0.79150   0.88925   0.00000  Uiso   1.00
H1756  H     0.24548   0.81547   0.83834   0.00000  Uiso   1.00
H1757  H     0.29505   0.83365   0.85891   0.00000  Uiso   1.00
H1758  H     0.24542   0.89184   0.87750   0.00000  Uiso   1.00
H1759  H     0.27036   0.86414   0.92437   0.00000  Uiso   1.00
C1760  C     0.08975   0.80866   0.60338   0.00000  Uiso   1.00
C1761  C     0.07274   0.84977   0.62688   0.00000  Uiso   1.00
H1762  H     0.08707   0.85211   0.66131   0.00000  Uiso   1.00
H1763  H     0.07725   0.88129   0.60841   0.00000  Uiso   1.00
H1764  H     0.03944   0.84585   0.62882   0.00000  Uiso   1.00
H1765  H     0.06684   0.80322   0.57452   0.00000  Uiso   1.00
H1766  H     0.08964   0.77855   0.62442   0.00000  Uiso   1.00
N1767  N     0.10310   0.79900   0.87668   0.00000  Uiso   1.00
H1768  H     0.11041   0.77211   0.85607   0.00000  Uiso   1.00
H1769  H     0.09180   0.82654   0.85729   0.00000  Uiso   1.00
N1770  N     0.23303   0.86455   0.62807   0.00000  Uiso   1.00
H1771  H     0.25972   0.85228   0.61554   0.00000  Uiso   1.00
H1772  H     0.23380   0.89962   0.63212   0.00000  Uiso   1.00
N1773  N     0.09269   0.74366   0.94259   0.00000  Uiso   1.00
H1774  H     0.06184   0.74812   0.94753   0.00000  Uiso   1.00
H1775  H     0.10234   0.71087   0.95197   0.00000  Uiso   1.00
N1776  N     0.24753   0.91923   0.55837   0.00000  Uiso   1.00
H1777  H     0.23821   0.95227   0.54953   0.00000  Uiso   1.00
H1778  H     0.27817   0.91422   0.55275   0.00000  Uiso   1.00
N1779  N     0.09575   0.73953   0.53691   0.00000  Uiso   1.00
H1780  H     0.10966   0.70862   0.52936   0.00000  Uiso   1.00
H1781  H     0.06501   0.73911   0.52429   0.00000  Uiso   1.00
N1782  N     0.24181   0.92539   0.96447   0.00000  Uiso   1.00
H1783  H     0.27267   0.92646   0.97654   0.00000  Uiso   1.00
H1784  H     0.22736   0.95582   0.97259   0.00000  Uiso   1.00
N1785  N     0.04843   0.76402   0.79425   0.00000  Uiso   1.00
H1786  H     0.03900   0.76401   0.82632   0.00000  Uiso   1.00
H1787  H     0.04213   0.73213   0.78042   0.00000  Uiso   1.00
N1788  N     0.28565   0.90888   0.71454   0.00000  Uiso   1.00
H1789  H     0.29227   0.91478   0.68200   0.00000  Uiso   1.00
H1790  H     0.29322   0.93751   0.73397   0.00000  Uiso   1.00
N1791  N     0.29946   0.75399   0.77942   0.00000  Uiso   1.00
H1792  H     0.27989   0.73911   0.75438   0.00000  Uiso   1.00
H1793  H     0.28623   0.76100   0.80854   0.00000  Uiso   1.00
N1794  N     0.03844   0.91004   0.71570   0.00000  Uiso   1.00
H1795  H     0.03079   0.93908   0.73338   0.00000  Uiso   1.00
H1796  H     0.02796   0.91411   0.68216   0.00000  Uiso   1.00
C1797  C     0.10957   0.71600   0.68765   0.00000  Uiso   1.00
C1798  C     0.06522   0.70738   0.69670   0.00000  Uiso   1.00
H1799  H     0.04776   0.69332   0.66653   0.00000  Uiso   1.00
H1800  H     0.06359   0.68355   0.72468   0.00000  Uiso   1.00
H1801  H     0.04943   0.73970   0.70414   0.00000  Uiso   1.00
H1802  H     0.11284   0.75207   0.68922   0.00000  Uiso   1.00
H1803  H     0.11397   0.70753   0.65271   0.00000  Uiso   1.00
C1804  C     0.20291   0.95279   0.82666   0.00000  Uiso   1.00
C1805  C     0.16895   0.95098   0.85879   0.00000  Uiso   1.00
H1806  H     0.16030   0.98419   0.87180   0.00000  Uiso   1.00
H1807  H     0.13969   0.93851   0.84222   0.00000  Uiso   1.00
H1808  H     0.17912   0.93008   0.88802   0.00000  Uiso   1.00
H1809  H     0.21684   0.92043   0.81752   0.00000  Uiso   1.00
H1810  H     0.23016   0.96832   0.84413   0.00000  Uiso   1.00
C1811  C     0.21746   0.71517   0.81802   0.00000  Uiso   1.00
C1812  C     0.20269   0.72027   0.86452   0.00000  Uiso   1.00
H1813  H     0.16891   0.72273   0.86260   0.00000  Uiso   1.00
H1814  H     0.21496   0.69285   0.88714   0.00000  Uiso   1.00
H1815  H     0.21433   0.75160   0.88076   0.00000  Uiso   1.00
H1816  H     0.24829   0.69886   0.82027   0.00000  Uiso   1.00
H1817  H     0.22238   0.74880   0.80698   0.00000  Uiso   1.00
C1818  C     0.12204   0.95255   0.67705   0.00000  Uiso   1.00
C1819  C     0.14746   0.95268   0.63706   0.00000  Uiso   1.00
H1820  H     0.14543   0.98588   0.62016   0.00000  Uiso   1.00
H1821  H     0.18015   0.94560   0.64771   0.00000  Uiso   1.00
H1822  H     0.13613   0.92687   0.61226   0.00000  Uiso   1.00
H1823  H     0.11283   0.91887   0.68587   0.00000  Uiso   1.00
H1824  H     0.09184   0.96749   0.66632   0.00000  Uiso   1.00
C1825  C     0.42118   0.83386   0.75055   0.00000  Uiso   1.00
C1826  C     0.57906   0.83288   0.74921   0.00000  Uiso   1.00
C1827  C     0.44905   0.77542   0.51619   0.00000  Uiso   1.00
C1828  C     0.55623   0.88859   0.98500   0.00000  Uiso   1.00
C1829  C     0.35782   0.79791   0.76888   0.00000  Uiso   1.00
C1830  C     0.64314   0.87084   0.73224   0.00000  Uiso   1.00
C1831  C     0.64886   0.79503   0.76446   0.00000  Uiso   1.00
C1832  C     0.35262   0.87166   0.73304   0.00000  Uiso   1.00
C1833  C     0.62405   0.83239   0.74808   0.00000  Uiso   1.00
C1834  C     0.37662   0.83482   0.75105   0.00000  Uiso   1.00
C1835  C     0.47482   0.69160   0.71936   0.00000  Uiso   1.00
C1836  C     0.51997   0.97581   0.78441   0.00000  Uiso   1.00
C1837  C     0.52209   0.69122   0.78317   0.00000  Uiso   1.00
C1838  C     0.47746   0.97593   0.71713   0.00000  Uiso   1.00
C1839  C     0.49837   0.83315   0.66469   0.00000  Uiso   1.00
C1840  C     0.50274   0.83339   0.83549   0.00000  Uiso   1.00
C1841  C     0.53865   0.84985   0.91244   0.00000  Uiso   1.00
C1842  C     0.46552   0.81517   0.58792   0.00000  Uiso   1.00
C1843  C     0.50491   0.83269   0.88446   0.00000  Uiso   1.00
C1844  C     0.49824   0.83306   0.61621   0.00000  Uiso   1.00
C1845  C     0.47264   0.81212   0.90374   0.00000  Uiso   1.00
C1846  C     0.53144   0.85263   0.59821   0.00000  Uiso   1.00
C1847  C     0.47496   0.80630   0.95006   0.00000  Uiso   1.00
C1848  C     0.53055   0.85775   0.55154   0.00000  Uiso   1.00
C1849  C     0.50370   0.83148   0.97743   0.00000  Uiso   1.00
C1850  C     0.50197   0.83237   0.52391   0.00000  Uiso   1.00
C1851  C     0.53353   0.85651   0.95822   0.00000  Uiso   1.00
C1852  C     0.47166   0.80761   0.54276   0.00000  Uiso   1.00
C1853  C     0.44950   0.77588   0.96968   0.00000  Uiso   1.00
C1854  C     0.55644   0.88762   0.53166   0.00000  Uiso   1.00
Cu1855 Cu    0.50000   0.88022   0.75000   0.00000  Uiso   1.00
Cu1856 Cu    0.50000   0.78645   0.75000   0.00000  Uiso   1.00
N1857  N     0.50000   0.95069   0.75000   0.00000  Uiso   1.00
N1858  N     0.50000   0.71598   0.75000   0.00000  Uiso   1.00
O1859  O     0.43988   0.87291   0.74999   0.00000  Uiso   1.00
O1860  O     0.56012   0.79375   0.75000   0.00000  Uiso   1.00
O1861  O     0.56012   0.87291   0.75000   0.00000  Uiso   1.00
O1862  O     0.43988   0.79375   0.74999   0.00000  Uiso   1.00
O1863  O     0.49999   0.87293   0.68513   0.00000  Uiso   1.00
O1864  O     0.50001   0.79373   0.81487   0.00000  Uiso   1.00
O1865  O     0.50001   0.87293   0.81487   0.00000  Uiso   1.00
O1866  O     0.49999   0.79373   0.68513   0.00000  Uiso   1.00
C1867  C     0.58014   0.85992   0.89588   0.00000  Uiso   1.00
C1868  C     0.59859   0.82250   0.86894   0.00000  Uiso   1.00
H1869  H     0.60448   0.79150   0.88925   0.00000  Uiso   1.00
H1870  H     0.57882   0.81547   0.83834   0.00000  Uiso   1.00
H1871  H     0.62839   0.83365   0.85891   0.00000  Uiso   1.00
H1872  H     0.57876   0.89184   0.87750   0.00000  Uiso   1.00
H1873  H     0.60370   0.86414   0.92437   0.00000  Uiso   1.00
C1874  C     0.42309   0.80866   0.60338   0.00000  Uiso   1.00
C1875  C     0.40607   0.84977   0.62688   0.00000  Uiso   1.00
H1876  H     0.42041   0.85211   0.66131   0.00000  Uiso   1.00
H1877  H     0.41058   0.88129   0.60841   0.00000  Uiso   1.00
H1878  H     0.37277   0.84585   0.62882   0.00000  Uiso   1.00
H1879  H     0.40017   0.80322   0.57452   0.00000  Uiso   1.00
H1880  H     0.42297   0.77855   0.62442   0.00000  Uiso   1.00
N1881  N     0.43643   0.79900   0.87668   0.00000  Uiso   1.00
H1882  H     0.44375   0.77211   0.85607   0.00000  Uiso   1.00
H1883  H     0.42514   0.82654   0.85729   0.00000  Uiso   1.00
N1884  N     0.56637   0.86455   0.62807   0.00000  Uiso   1.00
H1885  H     0.59305   0.85228   0.61554   0.00000  Uiso   1.00
H1886  H     0.56714   0.89962   0.63212   0.00000  Uiso   1.00
N1887  N     0.42602   0.74366   0.94259   0.00000  Uiso   1.00
H1888  H     0.39517   0.74812   0.94753   0.00000  Uiso   1.00
H1889  H     0.43567   0.71087   0.95197   0.00000  Uiso   1.00
N1890  N     0.58086   0.91923   0.55837   0.00000  Uiso   1.00
H1891  H     0.57154   0.95227   0.54953   0.00000  Uiso   1.00
H1892  H     0.61150   0.91422   0.55275   0.00000  Uiso   1.00
N1893  N     0.42908   0.73953   0.53691   0.00000  Uiso   1.00
H1894  H     0.44299   0.70862   0.52936   0.00000  Uiso   1.00
H1895  H     0.39834   0.73911   0.52429   0.00000  Uiso   1.00
N1896  N     0.57514   0.92539   0.96447   0.00000  Uiso   1.00
H1897  H     0.60600   0.92646   0.97654   0.00000  Uiso   1.00
H1898  H     0.56069   0.95582   0.97259   0.00000  Uiso   1.00
N1899  N     0.38176   0.76402   0.79425   0.00000  Uiso   1.00
H1900  H     0.37233   0.76401   0.82632   0.00000  Uiso   1.00
H1901  H     0.37546   0.73213   0.78042   0.00000  Uiso   1.00
N1902  N     0.61898   0.90888   0.71454   0.00000  Uiso   1.00
H1903  H     0.62560   0.91478   0.68200   0.00000  Uiso   1.00
H1904  H     0.62655   0.93751   0.73397   0.00000  Uiso   1.00
N1905  N     0.63280   0.75399   0.77942   0.00000  Uiso   1.00
H1906  H     0.61323   0.73911   0.75438   0.00000  Uiso   1.00
H1907  H     0.61956   0.76100   0.80854   0.00000  Uiso   1.00
N1908  N     0.37178   0.91004   0.71570   0.00000  Uiso   1.00
H1909  H     0.36412   0.93908   0.73338   0.00000  Uiso   1.00
H1910  H     0.36130   0.91411   0.68216   0.00000  Uiso   1.00
C1911  C     0.44290   0.71600   0.68765   0.00000  Uiso   1.00
C1912  C     0.39855   0.70738   0.69670   0.00000  Uiso   1.00
H1913  H     0.38110   0.69332   0.66653   0.00000  Uiso   1.00
H1914  H     0.39692   0.68355   0.72468   0.00000  Uiso   1.00
H1915  H     0.38276   0.73970   0.70414   0.00000  Uiso   1.00
H1916  H     0.44618   0.75207   0.68922   0.00000  Uiso   1.00
H1917  H     0.44731   0.70753   0.65271   0.00000  Uiso   1.00
C1918  C     0.53624   0.95279   0.82666   0.00000  Uiso   1.00
C1919  C     0.50228   0.95098   0.85879   0.00000  Uiso   1.00
H1920  H     0.49363   0.98419   0.87180   0.00000  Uiso   1.00
H1921  H     0.47302   0.93851   0.84222   0.00000  Uiso   1.00
H1922  H     0.51245   0.93008   0.88802   0.00000  Uiso   1.00
H1923  H     0.55017   0.92043   0.81752   0.00000  Uiso   1.00
H1924  H     0.56349   0.96832   0.84413   0.00000  Uiso   1.00
C1925  C     0.55080   0.71517   0.81802   0.00000  Uiso   1.00
C1926  C     0.53603   0.72027   0.86452   0.00000  Uiso   1.00
H1927  H     0.50224   0.72273   0.86260   0.00000  Uiso   1.00
H1928  H     0.54829   0.69285   0.88714   0.00000  Uiso   1.00
H1929  H     0.54767   0.75160   0.88076   0.00000  Uiso   1.00
H1930  H     0.58162   0.69886   0.82027   0.00000  Uiso   1.00
H1931  H     0.55571   0.74880   0.80698   0.00000  Uiso   1.00
C1932  C     0.45538   0.95255   0.67705   0.00000  Uiso   1.00
C1933  C     0.48079   0.95268   0.63706   0.00000  Uiso   1.00
H1934  H     0.47877   0.98588   0.62016   0.00000  Uiso   1.00
H1935  H     0.51348   0.94560   0.64771   0.00000  Uiso   1.00
H1936  H     0.46946   0.92687   0.61226   0.00000  Uiso   1.00
H1937  H     0.44616   0.91887   0.68587   0.00000  Uiso   1.00
H1938  H     0.42517   0.96749   0.66632   0.00000  Uiso   1.00
C1939  C     0.75452   0.83386   0.75055   0.00000  Uiso   1.00
C1940  C     0.91239   0.83288   0.74921   0.00000  Uiso   1.00
C1941  C     0.78238   0.77542   0.51619   0.00000  Uiso   1.00
C1942  C     0.88957   0.88859   0.98500   0.00000  Uiso   1.00
C1943  C     0.69115   0.79791   0.76888   0.00000  Uiso   1.00
C1944  C     0.97647   0.87084   0.73224   0.00000  Uiso   1.00
C1945  C     0.98220   0.79503   0.76446   0.00000  Uiso   1.00
C1946  C     0.68595   0.87166   0.73304   0.00000  Uiso   1.00
C1947  C     0.95738   0.83239   0.74808   0.00000  Uiso   1.00
C1948  C     0.70995   0.83482   0.75105   0.00000  Uiso   1.00
C1949  C     0.80816   0.69160   0.71936   0.00000  Uiso   1.00
C1950  C     0.85330   0.97581   0.78441   0.00000  Uiso   1.00
C1951  C     0.85543   0.69122   0.78317   0.00000  Uiso   1.00
C1952  C     0.81079   0.97593   0.71713   0.00000  Uiso   1.00
C1953  C     0.83171   0.83315   0.66469   0.00000  Uiso   1.00
C1954  C     0.83607   0.83339   0.83549   0.00000  Uiso   1.00
C1955  C     0.87198   0.84985   0.91244   0.00000  Uiso   1.00
C1956  C     0.79885   0.81517   0.58792   0.00000  Uiso   1.00
C1957  C     0.83824   0.83269   0.88446   0.00000  Uiso   1.00
C1958  C     0.83158   0.83306   0.61621   0.00000  Uiso   1.00
C1959  C     0.80598   0.81212   0.90374   0.00000  Uiso   1.00
C1960  C     0.86478   0.85263   0.59821   0.00000  Uiso   1.00
C1961  C     0.80830   0.80630   0.95006   0.00000  Uiso   1.00
C1962  C     0.86389   0.85775   0.55154   0.00000  Uiso   1.00
C1963  C     0.83703   0.83148   0.97743   0.00000  Uiso   1.00
C1964  C     0.83530   0.83237   0.52391   0.00000  Uiso   1.00
C1965  C     0.86687   0.85651   0.95822   0.00000  Uiso   1.00
C1966  C     0.80499   0.80761   0.54276   0.00000  Uiso   1.00
C1967  C     0.78283   0.77588   0.96968   0.00000  Uiso   1.00
C1968  C     0.88977   0.88762   0.53166   0.00000  Uiso   1.00
Cu1969 Cu    0.83333   0.88022   0.75000   0.00000  Uiso   1.00
Cu1970 Cu    0.83333   0.78645   0.75000   0.00000  Uiso   1.00
N1971  N     0.83333   0.95069   0.75000   0.00000  Uiso   1.00
N1972  N     0.83333   0.71598   0.75000   0.00000  Uiso   1.00
O1973  O     0.77321   0.87291   0.74999   0.00000  Uiso   1.00
O1974  O     0.89345   0.79375   0.75000   0.00000  Uiso   1.00
O1975  O     0.89345   0.87291   0.75000   0.00000  Uiso   1.00
O1976  O     0.77321   0.79375   0.74999   0.00000  Uiso   1.00
O1977  O     0.83332   0.87293   0.68513   0.00000  Uiso   1.00
O1978  O     0.83334   0.79373   0.81487   0.00000  Uiso   1.00
O1979  O     0.83334   0.87293   0.81487   0.00000  Uiso   1.00
O1980  O     0.83332   0.79373   0.68513   0.00000  Uiso   1.00
C1981  C     0.91347   0.85992   0.89588   0.00000  Uiso   1.00
C1982  C     0.93193   0.82250   0.86894   0.00000  Uiso   1.00
H1983  H     0.93782   0.79150   0.88925   0.00000  Uiso   1.00
H1984  H     0.91215   0.81547   0.83834   0.00000  Uiso   1.00
H1985  H     0.96172   0.83365   0.85891   0.00000  Uiso   1.00
H1986  H     0.91209   0.89184   0.87750   0.00000  Uiso   1.00
H1987  H     0.93703   0.86414   0.92437   0.00000  Uiso   1.00
C1988  C     0.75642   0.80866   0.60338   0.00000  Uiso   1.00
C1989  C     0.73941   0.84977   0.62688   0.00000  Uiso   1.00
H1990  H     0.75374   0.85211   0.66131   0.00000  Uiso   1.00
H1991  H     0.74392   0.88129   0.60841   0.00000  Uiso   1.00
H1992  H     0.70610   0.84585   0.62882   0.00000  Uiso   1.00
H1993  H     0.73351   0.80322   0.57452   0.00000  Uiso   1.00
H1994  H     0.75630   0.77855   0.62442   0.00000  Uiso   1.00
N1995  N     0.76976   0.79900   0.87668   0.00000  Uiso   1.00
H1996  H     0.77708   0.77211   0.85607   0.00000  Uiso   1.00
H1997  H     0.75847   0.82654   0.85729   0.00000  Uiso   1.00
N1998  N     0.89970   0.86455   0.62807   0.00000  Uiso   1.00
H1999  H     0.92638   0.85228   0.61554   0.00000  Uiso   1.00
H2000  H     0.90047   0.89962   0.63212   0.00000  Uiso   1.00
N2001  N     0.75935   0.74366   0.94259   0.00000  Uiso   1.00
H2002  H     0.72850   0.74812   0.94753   0.00000  Uiso   1.00
H2003  H     0.76901   0.71087   0.95197   0.00000  Uiso   1.00
N2004  N     0.91419   0.91923   0.55837   0.00000  Uiso   1.00
H2005  H     0.90487   0.95227   0.54953   0.00000  Uiso   1.00
H2006  H     0.94483   0.91422   0.55275   0.00000  Uiso   1.00
N2007  N     0.76242   0.73953   0.53691   0.00000  Uiso   1.00
H2008  H     0.77633   0.70862   0.52936   0.00000  Uiso   1.00
H2009  H     0.73167   0.73911   0.52429   0.00000  Uiso   1.00
N2010  N     0.90848   0.92539   0.96447   0.00000  Uiso   1.00
H2011  H     0.93933   0.92646   0.97654   0.00000  Uiso   1.00
H2012  H     0.89403   0.95582   0.97259   0.00000  Uiso   1.00
N2013  N     0.71510   0.76402   0.79425   0.00000  Uiso   1.00
H2014  H     0.70566   0.76401   0.82632   0.00000  Uiso   1.00
H2015  H     0.70880   0.73213   0.78042   0.00000  Uiso   1.00
N2016  N     0.95231   0.90888   0.71454   0.00000  Uiso   1.00
H2017  H     0.95894   0.91478   0.68200   0.00000  Uiso   1.00
H2018  H     0.95988   0.93751   0.73397   0.00000  Uiso   1.00
N2019  N     0.96613   0.75399   0.77942   0.00000  Uiso   1.00
H2020  H     0.94656   0.73911   0.75438   0.00000  Uiso   1.00
H2021  H     0.95289   0.76100   0.80854   0.00000  Uiso   1.00
N2022  N     0.70511   0.91004   0.71570   0.00000  Uiso   1.00
H2023  H     0.69746   0.93908   0.73338   0.00000  Uiso   1.00
H2024  H     0.69463   0.91411   0.68216   0.00000  Uiso   1.00
C2025  C     0.77624   0.71600   0.68765   0.00000  Uiso   1.00
C2026  C     0.73188   0.70738   0.69670   0.00000  Uiso   1.00
H2027  H     0.71443   0.69332   0.66653   0.00000  Uiso   1.00
H2028  H     0.73026   0.68355   0.72468   0.00000  Uiso   1.00
H2029  H     0.71610   0.73970   0.70414   0.00000  Uiso   1.00
H2030  H     0.77951   0.75207   0.68922   0.00000  Uiso   1.00
H2031  H     0.78064   0.70753   0.65271   0.00000  Uiso   1.00
C2032  C     0.86958   0.95279   0.82666   0.00000  Uiso   1.00
C2033  C     0.83562   0.95098   0.85879   0.00000  Uiso   1.00
H2034  H     0.82697   0.98419   0.87180   0.00000  Uiso   1.00
H2035  H     0.80635   0.93851   0.84222   0.00000  Uiso   1.00
H2036  H     0.84579   0.93008   0.88802   0.00000  Uiso   1.00
H2037  H     0.88351   0.92043   0.81752   0.00000  Uiso   1.00
H2038  H     0.89682   0.96832   0.84413   0.00000  Uiso   1.00
C2039  C     0.88413   0.71517   0.81802   0.00000  Uiso   1.00
C2040  C     0.86936   0.72027   0.86452   0.00000  Uiso   1.00
H2041  H     0.83557   0.72273   0.86260   0.00000  Uiso   1.00
H2042  H     0.88163   0.69285   0.88714   0.00000  Uiso   1.00
H2043  H     0.88100   0.75160   0.88076   0.00000  Uiso   1.00
H2044  H     0.91496   0.69886   0.82027   0.00000  Uiso   1.00
H2045  H     0.88905   0.74880   0.80698   0.00000  Uiso   1.00
C2046  C     0.78871   0.95255   0.67705   0.00000  Uiso   1.00
C2047  C     0.81413   0.95268   0.63706   0.00000  Uiso   1.00
H2048  H     0.81210   0.98588   0.62016   0.00000  Uiso   1.00
H2049  H     0.84682   0.94560   0.64771   0.00000  Uiso   1.00
H2050  H     0.80279   0.92687   0.61226   0.00000  Uiso   1.00
H2051  H     0.77949   0.91887   0.68587   0.00000  Uiso   1.00
H2052  H     0.75851   0.96749   0.66632   0.00000  Uiso   1.00
loop_
_geom_bond_atom_site_label_1
_geom_bond_atom_site_label_2
_geom_bond_distance
_geom_bond_site_symmetry_2
_ccdc_geom_bond_type
C1     O35     1.319   .     A
C1     O38     1.323   .     A
C1     C10     1.467   .     S
C2     O36     1.326   .     A
C2     O37     1.325   .     A
C2     C9      1.483   .     S
C3     C28     1.414   .     A
C3     N69     1.438   .     S
C3     C1055   1.406   1_554 S
C4     N72     1.438   .     S
C4     C27     1.417   .     A
C4     C1056   1.409   .     S
C5     N75     1.438   .     S
C5     C10     1.402   .     A
C5     C235    1.388   1_455 S
C6     C9      1.418   .     A
C6     N78     1.437   .     S
C6     C122    1.407   .     S
C7     N81     1.427   .     S
C7     C9      1.420   .     A
C7     C119    1.388   .     S
C8     N84     1.436   .     S
C8     C10     1.410   .     A
C8     C234    1.407   1_455 S
C11    C87     1.523   .     S
C11    N34     1.387   .     A
C11    C698    1.448   1_545 S
C12    C94     1.497   .     S
C12    N33     1.391   .     A
C12    C355    1.443   .     S
C13    C101    1.523   .     S
C13    N34     1.383   .     A
C13    C696    1.443   1_545 S
C14    C108    1.518   .     S
C14    N33     1.391   .     A
C14    C353    1.448   .     S
C15    C20     1.464   .     S
C15    O39     1.321   .     A
C15    O42     1.320   .     A
C16    O40     1.322   .     A
C16    C19     1.474   .     S
C16    O41     1.325   .     A
C17    C27     1.420   .     A
C17    C43     1.535   .     S
C17    C19     1.426   .     A
C18    C20     1.415   .     A
C18    C28     1.413   .     A
C18    C50     1.531   .     S
C19    C21     1.411   .     A
C20    C22     1.404   .     A
C21    N57     1.435   .     S
C21    C23     1.405   .     A
C22    N60     1.437   .     S
C22    C24     1.416   .     A
C23    C29     1.414   .     A
C23    C25     1.413   .     A
C24    C26     1.417   .     A
C24    C30     1.416   .     A
C25    C27     1.413   .     A
C25    C1052   1.410   .     S
C26    C28     1.415   .     A
C26    C1051   1.410   1_554 S
C29    N63     1.437   .     S
C29    C1029   1.406   .     S
C30    N66     1.435   .     S
C30    C1030   1.409   1_554 S
Cu31   N33     2.080   .     S
Cu31   O37     1.984   .     S
Cu31   Cu32    2.768   .     S
Cu31   O41     1.973   .     S
Cu31   O39     1.969   .     S
Cu31   O35     1.994   .     S
Cu32   O36     1.994   .     S
Cu32   O38     1.984   .     S
Cu32   N34     2.080   .     S
Cu32   O40     1.969   .     S
Cu32   O42     1.973   .     S
C43    C44     1.517   .     S
C43    H48     1.096   .     S
C43    H49     1.108   .     S
C44    H47     1.111   .     S
C44    H46     1.098   .     S
C44    H45     1.109   .     S
C50    H56     1.098   .     S
C50    C51     1.524   .     S
C50    H55     1.108   .     S
C51    H52     1.101   .     S
C51    H53     1.109   .     S
C51    H54     1.111   .     S
N57    H58     1.043   .     S
N57    H59     1.046   .     S
N60    H62     1.042   .     S
N60    H61     1.046   .     S
N63    H65     1.045   .     S
N63    H64     1.045   .     S
N66    H68     1.045   .     S
N66    H67     1.045   .     S
N69    H71     1.045   .     S
N69    H70     1.045   .     S
N72    H74     1.045   .     S
N72    H73     1.045   .     S
N75    H76     1.046   .     S
N75    H77     1.043   .     S
N78    H80     1.045   .     S
N78    H79     1.044   .     S
N81    H82     1.044   .     S
N81    H83     1.036   .     S
N84    H85     1.045   .     S
N84    H86     1.045   .     S
C87    C88     1.537   .     S
C87    H92     1.073   .     S
C87    H93     1.105   .     S
C88    H91     1.108   .     S
C88    H90     1.110   .     S
C88    H89     1.110   .     S
C94    H100    1.101   .     S
C94    C95     1.552   .     S
C94    H99     1.095   .     S
C95    H96     1.095   .     S
C95    H98     1.102   .     S
C95    H97     1.109   .     S
C101   H107    1.071   .     S
C101   C102    1.536   .     S
C101   H106    1.109   .     S
C102   H105    1.101   .     S
C102   H103    1.108   .     S
C102   H104    1.107   .     S
C108   C109    1.535   .     S
C108   H114    1.098   .     S
C108   H113    1.089   .     S
C109   H111    1.107   .     S
C109   H112    1.108   .     S
C109   H110    1.107   .     S
C115   O149    1.319   .     A
C115   O152    1.323   .     A
C115   C124    1.467   .     S
C116   O150    1.326   .     A
C116   O151    1.325   .     A
C116   C123    1.483   .     S
C117   C142    1.414   .     A
C117   N183    1.438   .     S
C117   C1169   1.406   1_554 S
C118   N186    1.438   .     S
C118   C141    1.417   .     A
C118   C1170   1.409   .     S
C119   N189    1.438   .     S
C119   C124    1.402   .     A
C120   C123    1.418   .     A
C120   N192    1.437   .     S
C120   C236    1.407   .     S
C121   N195    1.427   .     S
C121   C123    1.420   .     A
C121   C233    1.388   .     S
C122   N198    1.436   .     S
C122   C124    1.410   .     A
C125   C201    1.523   .     S
C125   N148    1.387   .     A
C125   C812    1.448   1_545 S
C126   C208    1.497   .     S
C126   N147    1.391   .     A
C126   C469    1.443   .     S
C127   C215    1.523   .     S
C127   N148    1.383   .     A
C127   C810    1.443   1_545 S
C128   C222    1.518   .     S
C128   N147    1.391   .     A
C128   C467    1.448   .     S
C129   C134    1.464   .     S
C129   O153    1.321   .     A
C129   O156    1.320   .     A
C130   O154    1.322   .     A
C130   C133    1.474   .     S
C130   O155    1.325   .     A
C131   C141    1.420   .     A
C131   C157    1.535   .     S
C131   C133    1.426   .     A
C132   C134    1.415   .     A
C132   C142    1.413   .     A
C132   C164    1.531   .     S
C133   C135    1.411   .     A
C134   C136    1.404   .     A
C135   N171    1.435   .     S
C135   C137    1.405   .     A
C136   N174    1.437   .     S
C136   C138    1.416   .     A
C137   C143    1.414   .     A
C137   C139    1.413   .     A
C138   C140    1.417   .     A
C138   C144    1.416   .     A
C139   C141    1.413   .     A
C139   C1166   1.410   .     S
C140   C142    1.415   .     A
C140   C1165   1.410   1_554 S
C143   N177    1.437   .     S
C143   C1143   1.406   .     S
C144   N180    1.435   .     S
C144   C1144   1.409   1_554 S
Cu145  N147    2.080   .     S
Cu145  O151    1.984   .     S
Cu145  Cu146   2.768   .     S
Cu145  O155    1.973   .     S
Cu145  O153    1.969   .     S
Cu145  O149    1.994   .     S
Cu146  O150    1.994   .     S
Cu146  O152    1.984   .     S
Cu146  N148    2.080   .     S
Cu146  O154    1.969   .     S
Cu146  O156    1.973   .     S
C157   C158    1.517   .     S
C157   H162    1.096   .     S
C157   H163    1.108   .     S
C158   H161    1.111   .     S
C158   H160    1.098   .     S
C158   H159    1.109   .     S
C164   H170    1.098   .     S
C164   C165    1.524   .     S
C164   H169    1.108   .     S
C165   H166    1.101   .     S
C165   H167    1.109   .     S
C165   H168    1.111   .     S
N171   H172    1.043   .     S
N171   H173    1.046   .     S
N174   H176    1.042   .     S
N174   H175    1.046   .     S
N177   H179    1.045   .     S
N177   H178    1.045   .     S
N180   H182    1.045   .     S
N180   H181    1.045   .     S
N183   H185    1.045   .     S
N183   H184    1.045   .     S
N186   H188    1.045   .     S
N186   H187    1.045   .     S
N189   H190    1.046   .     S
N189   H191    1.043   .     S
N192   H194    1.045   .     S
N192   H193    1.044   .     S
N195   H196    1.044   .     S
N195   H197    1.036   .     S
N198   H199    1.045   .     S
N198   H200    1.045   .     S
C201   C202    1.537   .     S
C201   H206    1.073   .     S
C201   H207    1.105   .     S
C202   H205    1.108   .     S
C202   H204    1.110   .     S
C202   H203    1.110   .     S
C208   H214    1.101   .     S
C208   C209    1.552   .     S
C208   H213    1.095   .     S
C209   H210    1.095   .     S
C209   H212    1.102   .     S
C209   H211    1.109   .     S
C215   H221    1.071   .     S
C215   C216    1.536   .     S
C215   H220    1.109   .     S
C216   H219    1.101   .     S
C216   H217    1.108   .     S
C216   H218    1.107   .     S
C222   C223    1.535   .     S
C222   H228    1.098   .     S
C222   H227    1.089   .     S
C223   H225    1.107   .     S
C223   H226    1.108   .     S
C223   H224    1.107   .     S
C229   O263    1.319   .     A
C229   O266    1.323   .     A
C229   C238    1.467   .     S
C230   O264    1.326   .     A
C230   O265    1.325   .     A
C230   C237    1.483   .     S
C231   C256    1.414   .     A
C231   N297    1.438   .     S
C231   C1283   1.406   1_554 S
C232   N300    1.438   .     S
C232   C255    1.417   .     A
C232   C1284   1.409   .     S
C233   N303    1.438   .     S
C233   C238    1.402   .     A
C234   C237    1.418   .     A
C234   N306    1.437   .     S
C234   C8      1.407   1_655 S
C235   N309    1.427   .     S
C235   C237    1.420   .     A
C235   C5      1.388   1_655 S
C236   N312    1.436   .     S
C236   C238    1.410   .     A
C239   C315    1.523   .     S
C239   N262    1.387   .     A
C239   C926    1.448   1_545 S
C240   C322    1.497   .     S
C240   N261    1.391   .     A
C240   C583    1.443   .     S
C241   C329    1.523   .     S
C241   N262    1.383   .     A
C241   C924    1.443   1_545 S
C242   C336    1.518   .     S
C242   N261    1.391   .     A
C242   C581    1.448   .     S
C243   C248    1.464   .     S
C243   O267    1.321   .     A
C243   O270    1.320   .     A
C244   O268    1.322   .     A
C244   C247    1.474   .     S
C244   O269    1.325   .     A
C245   C255    1.420   .     A
C245   C271    1.535   .     S
C245   C247    1.426   .     A
C246   C248    1.415   .     A
C246   C256    1.413   .     A
C246   C278    1.531   .     S
C247   C249    1.411   .     A
C248   C250    1.404   .     A
C249   N285    1.435   .     S
C249   C251    1.405   .     A
C250   N288    1.437   .     S
C250   C252    1.416   .     A
C251   C257    1.414   .     A
C251   C253    1.413   .     A
C252   C254    1.417   .     A
C252   C258    1.416   .     A
C253   C255    1.413   .     A
C253   C1280   1.410   .     S
C254   C256    1.415   .     A
C254   C1279   1.410   1_554 S
C257   N291    1.437   .     S
C257   C1257   1.406   .     S
C258   N294    1.435   .     S
C258   C1258   1.409   1_554 S
Cu259  N261    2.080   .     S
Cu259  O265    1.984   .     S
Cu259  Cu260   2.768   .     S
Cu259  O269    1.973   .     S
Cu259  O267    1.969   .     S
Cu259  O263    1.994   .     S
Cu260  O264    1.994   .     S
Cu260  O266    1.984   .     S
Cu260  N262    2.080   .     S
Cu260  O268    1.969   .     S
Cu260  O270    1.973   .     S
C271   C272    1.517   .     S
C271   H276    1.096   .     S
C271   H277    1.108   .     S
C272   H275    1.111   .     S
C272   H274    1.098   .     S
C272   H273    1.109   .     S
C278   H284    1.098   .     S
C278   C279    1.524   .     S
C278   H283    1.108   .     S
C279   H280    1.101   .     S
C279   H281    1.109   .     S
C279   H282    1.111   .     S
N285   H286    1.043   .     S
N285   H287    1.046   .     S
N288   H290    1.042   .     S
N288   H289    1.046   .     S
N291   H293    1.045   .     S
N291   H292    1.045   .     S
N294   H296    1.045   .     S
N294   H295    1.045   .     S
N297   H299    1.045   .     S
N297   H298    1.045   .     S
N300   H302    1.045   .     S
N300   H301    1.045   .     S
N303   H304    1.046   .     S
N303   H305    1.043   .     S
N306   H308    1.045   .     S
N306   H307    1.044   .     S
N309   H310    1.044   .     S
N309   H311    1.036   .     S
N312   H313    1.045   .     S
N312   H314    1.045   .     S
C315   C316    1.537   .     S
C315   H320    1.073   .     S
C315   H321    1.105   .     S
C316   H319    1.108   .     S
C316   H318    1.110   .     S
C316   H317    1.110   .     S
C322   H328    1.101   .     S
C322   C323    1.552   .     S
C322   H327    1.095   .     S
C323   H324    1.095   .     S
C323   H326    1.102   .     S
C323   H325    1.109   .     S
C329   H335    1.071   .     S
C329   C330    1.536   .     S
C329   H334    1.109   .     S
C330   H333    1.101   .     S
C330   H331    1.108   .     S
C330   H332    1.107   .     S
C336   C337    1.535   .     S
C336   H342    1.098   .     S
C336   H341    1.089   .     S
C337   H339    1.107   .     S
C337   H340    1.108   .     S
C337   H338    1.107   .     S
C343   O377    1.319   .     A
C343   O380    1.323   .     A
C343   C352    1.467   .     S
C344   O378    1.326   .     A
C344   O379    1.325   .     A
C344   C351    1.483   .     S
C345   C370    1.414   .     A
C345   N411    1.438   .     S
C345   C1397   1.406   1_554 S
C346   N414    1.438   .     S
C346   C369    1.417   .     A
C346   C1398   1.409   .     S
C347   N417    1.438   .     S
C347   C352    1.402   .     A
C347   C577    1.388   1_455 S
C348   C351    1.418   .     A
C348   N420    1.437   .     S
C348   C464    1.407   .     S
C349   N423    1.427   .     S
C349   C351    1.420   .     A
C349   C461    1.388   .     S
C350   N426    1.436   .     S
C350   C352    1.410   .     A
C350   C576    1.407   1_455 S
C353   C429    1.523   .     S
C353   N376    1.387   .     A
C354   C436    1.497   .     S
C354   N375    1.391   .     A
C354   C697    1.443   .     S
C355   C443    1.523   .     S
C355   N376    1.383   .     A
C356   C450    1.518   .     S
C356   N375    1.391   .     A
C356   C695    1.448   .     S
C357   C362    1.464   .     S
C357   O381    1.321   .     A
C357   O384    1.320   .     A
C358   O382    1.322   .     A
C358   C361    1.474   .     S
C358   O383    1.325   .     A
C359   C369    1.420   .     A
C359   C385    1.535   .     S
C359   C361    1.426   .     A
C360   C362    1.415   .     A
C360   C370    1.413   .     A
C360   C392    1.531   .     S
C361   C363    1.411   .     A
C362   C364    1.404   .     A
C363   N399    1.435   .     S
C363   C365    1.405   .     A
C364   N402    1.437   .     S
C364   C366    1.416   .     A
C365   C371    1.414   .     A
C365   C367    1.413   .     A
C366   C368    1.417   .     A
C366   C372    1.416   .     A
C367   C369    1.413   .     A
C367   C1394   1.410   .     S
C368   C370    1.415   .     A
C368   C1393   1.410   1_554 S
C371   N405    1.437   .     S
C371   C1371   1.406   .     S
C372   N408    1.435   .     S
C372   C1372   1.409   1_554 S
Cu373  N375    2.080   .     S
Cu373  O379    1.984   .     S
Cu373  Cu374   2.768   .     S
Cu373  O383    1.973   .     S
Cu373  O381    1.969   .     S
Cu373  O377    1.994   .     S
Cu374  O378    1.994   .     S
Cu374  O380    1.984   .     S
Cu374  N376    2.080   .     S
Cu374  O382    1.969   .     S
Cu374  O384    1.973   .     S
C385   C386    1.517   .     S
C385   H390    1.096   .     S
C385   H391    1.108   .     S
C386   H389    1.111   .     S
C386   H388    1.098   .     S
C386   H387    1.109   .     S
C392   H398    1.098   .     S
C392   C393    1.524   .     S
C392   H397    1.108   .     S
C393   H394    1.101   .     S
C393   H395    1.109   .     S
C393   H396    1.111   .     S
N399   H400    1.043   .     S
N399   H401    1.046   .     S
N402   H404    1.042   .     S
N402   H403    1.046   .     S
N405   H407    1.045   .     S
N405   H406    1.045   .     S
N408   H410    1.045   .     S
N408   H409    1.045   .     S
N411   H413    1.045   .     S
N411   H412    1.045   .     S
N414   H416    1.045   .     S
N414   H415    1.045   .     S
N417   H418    1.046   .     S
N417   H419    1.043   .     S
N420   H422    1.045   .     S
N420   H421    1.044   .     S
N423   H424    1.044   .     S
N423   H425    1.036   .     S
N426   H427    1.045   .     S
N426   H428    1.045   .     S
C429   C430    1.537   .     S
C429   H434    1.073   .     S
C429   H435    1.105   .     S
C430   H433    1.108   .     S
C430   H432    1.110   .     S
C430   H431    1.110   .     S
C436   H442    1.101   .     S
C436   C437    1.552   .     S
C436   H441    1.095   .     S
C437   H438    1.095   .     S
C437   H440    1.102   .     S
C437   H439    1.109   .     S
C443   H449    1.071   .     S
C443   C444    1.536   .     S
C443   H448    1.109   .     S
C444   H447    1.101   .     S
C444   H445    1.108   .     S
C444   H446    1.107   .     S
C450   C451    1.535   .     S
C450   H456    1.098   .     S
C450   H455    1.089   .     S
C451   H453    1.107   .     S
C451   H454    1.108   .     S
C451   H452    1.107   .     S
C457   O491    1.319   .     A
C457   O494    1.323   .     A
C457   C466    1.467   .     S
C458   O492    1.326   .     A
C458   O493    1.325   .     A
C458   C465    1.483   .     S
C459   C484    1.414   .     A
C459   N525    1.438   .     S
C459   C1511   1.406   1_554 S
C460   N528    1.438   .     S
C460   C483    1.417   .     A
C460   C1512   1.409   .     S
C461   N531    1.438   .     S
C461   C466    1.402   .     A
C462   C465    1.418   .     A
C462   N534    1.437   .     S
C462   C578    1.407   .     S
C463   N537    1.427   .     S
C463   C465    1.420   .     A
C463   C575    1.388   .     S
C464   N540    1.436   .     S
C464   C466    1.410   .     A
C467   C543    1.523   .     S
C467   N490    1.387   .     A
C468   C550    1.497   .     S
C468   N489    1.391   .     A
C468   C811    1.443   .     S
C469   C557    1.523   .     S
C469   N490    1.383   .     A
C470   C564    1.518   .     S
C470   N489    1.391   .     A
C470   C809    1.448   .     S
C471   C476    1.464   .     S
C471   O495    1.321   .     A
C471   O498    1.320   .     A
C472   O496    1.322   .     A
C472   C475    1.474   .     S
C472   O497    1.325   .     A
C473   C483    1.420   .     A
C473   C499    1.535   .     S
C473   C475    1.426   .     A
C474   C476    1.415   .     A
C474   C484    1.413   .     A
C474   C506    1.531   .     S
C475   C477    1.411   .     A
C476   C478    1.404   .     A
C477   N513    1.435   .     S
C477   C479    1.405   .     A
C478   N516    1.437   .     S
C478   C480    1.416   .     A
C479   C485    1.414   .     A
C479   C481    1.413   .     A
C480   C482    1.417   .     A
C480   C486    1.416   .     A
C481   C483    1.413   .     A
C481   C1508   1.410   .     S
C482   C484    1.415   .     A
C482   C1507   1.410   1_554 S
C485   N519    1.437   .     S
C485   C1485   1.406   .     S
C486   N522    1.435   .     S
C486   C1486   1.409   1_554 S
Cu487  N489    2.080   .     S
Cu487  O493    1.984   .     S
Cu487  Cu488   2.768   .     S
Cu487  O497    1.973   .     S
Cu487  O495    1.969   .     S
Cu487  O491    1.994   .     S
Cu488  O492    1.994   .     S
Cu488  O494    1.984   .     S
Cu488  N490    2.080   .     S
Cu488  O496    1.969   .     S
Cu488  O498    1.973   .     S
C499   C500    1.517   .     S
C499   H504    1.096   .     S
C499   H505    1.108   .     S
C500   H503    1.111   .     S
C500   H502    1.098   .     S
C500   H501    1.109   .     S
C506   H512    1.098   .     S
C506   C507    1.524   .     S
C506   H511    1.108   .     S
C507   H508    1.101   .     S
C507   H509    1.109   .     S
C507   H510    1.111   .     S
N513   H514    1.043   .     S
N513   H515    1.046   .     S
N516   H518    1.042   .     S
N516   H517    1.046   .     S
N519   H521    1.045   .     S
N519   H520    1.045   .     S
N522   H524    1.045   .     S
N522   H523    1.045   .     S
N525   H527    1.045   .     S
N525   H526    1.045   .     S
N528   H530    1.045   .     S
N528   H529    1.045   .     S
N531   H532    1.046   .     S
N531   H533    1.043   .     S
N534   H536    1.045   .     S
N534   H535    1.044   .     S
N537   H538    1.044   .     S
N537   H539    1.036   .     S
N540   H541    1.045   .     S
N540   H542    1.045   .     S
C543   C544    1.537   .     S
C543   H548    1.073   .     S
C543   H549    1.105   .     S
C544   H547    1.108   .     S
C544   H546    1.110   .     S
C544   H545    1.110   .     S
C550   H556    1.101   .     S
C550   C551    1.552   .     S
C550   H555    1.095   .     S
C551   H552    1.095   .     S
C551   H554    1.102   .     S
C551   H553    1.109   .     S
C557   H563    1.071   .     S
C557   C558    1.536   .     S
C557   H562    1.109   .     S
C558   H561    1.101   .     S
C558   H559    1.108   .     S
C558   H560    1.107   .     S
C564   C565    1.535   .     S
C564   H570    1.098   .     S
C564   H569    1.089   .     S
C565   H567    1.107   .     S
C565   H568    1.108   .     S
C565   H566    1.107   .     S
C571   O605    1.319   .     A
C571   O608    1.323   .     A
C571   C580    1.467   .     S
C572   O606    1.326   .     A
C572   O607    1.325   .     A
C572   C579    1.483   .     S
C573   C598    1.414   .     A
C573   N639    1.438   .     S
C573   C1625   1.406   1_554 S
C574   N642    1.438   .     S
C574   C597    1.417   .     A
C574   C1626   1.409   .     S
C575   N645    1.438   .     S
C575   C580    1.402   .     A
C576   C579    1.418   .     A
C576   N648    1.437   .     S
C576   C350    1.407   1_655 S
C577   N651    1.427   .     S
C577   C579    1.420   .     A
C577   C347    1.388   1_655 S
C578   N654    1.436   .     S
C578   C580    1.410   .     A
C581   C657    1.523   .     S
C581   N604    1.387   .     A
C582   C664    1.497   .     S
C582   N603    1.391   .     A
C582   C925    1.443   .     S
C583   C671    1.523   .     S
C583   N604    1.383   .     A
C584   C678    1.518   .     S
C584   N603    1.391   .     A
C584   C923    1.448   .     S
C585   C590    1.464   .     S
C585   O609    1.321   .     A
C585   O612    1.320   .     A
C586   O610    1.322   .     A
C586   C589    1.474   .     S
C586   O611    1.325   .     A
C587   C597    1.420   .     A
C587   C613    1.535   .     S
C587   C589    1.426   .     A
C588   C590    1.415   .     A
C588   C598    1.413   .     A
C588   C620    1.531   .     S
C589   C591    1.411   .     A
C590   C592    1.404   .     A
C591   N627    1.435   .     S
C591   C593    1.405   .     A
C592   N630    1.437   .     S
C592   C594    1.416   .     A
C593   C599    1.414   .     A
C593   C595    1.413   .     A
C594   C596    1.417   .     A
C594   C600    1.416   .     A
C595   C597    1.413   .     A
C595   C1622   1.410   .     S
C596   C598    1.415   .     A
C596   C1621   1.410   1_554 S
C599   N633    1.437   .     S
C599   C1599   1.406   .     S
C600   N636    1.435   .     S
C600   C1600   1.409   1_554 S
Cu601  N603    2.080   .     S
Cu601  O607    1.984   .     S
Cu601  Cu602   2.768   .     S
Cu601  O611    1.973   .     S
Cu601  O609    1.969   .     S
Cu601  O605    1.994   .     S
Cu602  O606    1.994   .     S
Cu602  O608    1.984   .     S
Cu602  N604    2.080   .     S
Cu602  O610    1.969   .     S
Cu602  O612    1.973   .     S
C613   C614    1.517   .     S
C613   H618    1.096   .     S
C613   H619    1.108   .     S
C614   H617    1.111   .     S
C614   H616    1.098   .     S
C614   H615    1.109   .     S
C620   H626    1.098   .     S
C620   C621    1.524   .     S
C620   H625    1.108   .     S
C621   H622    1.101   .     S
C621   H623    1.109   .     S
C621   H624    1.111   .     S
N627   H628    1.043   .     S
N627   H629    1.046   .     S
N630   H632    1.042   .     S
N630   H631    1.046   .     S
N633   H635    1.045   .     S
N633   H634    1.045   .     S
N636   H638    1.045   .     S
N636   H637    1.045   .     S
N639   H641    1.045   .     S
N639   H640    1.045   .     S
N642   H644    1.045   .     S
N642   H643    1.045   .     S
N645   H646    1.046   .     S
N645   H647    1.043   .     S
N648   H650    1.045   .     S
N648   H649    1.044   .     S
N651   H652    1.044   .     S
N651   H653    1.036   .     S
N654   H655    1.045   .     S
N654   H656    1.045   .     S
C657   C658    1.537   .     S
C657   H662    1.073   .     S
C657   H663    1.105   .     S
C658   H661    1.108   .     S
C658   H660    1.110   .     S
C658   H659    1.110   .     S
C664   H670    1.101   .     S
C664   C665    1.552   .     S
C664   H669    1.095   .     S
C665   H666    1.095   .     S
C665   H668    1.102   .     S
C665   H667    1.109   .     S
C671   H677    1.071   .     S
C671   C672    1.536   .     S
C671   H676    1.109   .     S
C672   H675    1.101   .     S
C672   H673    1.108   .     S
C672   H674    1.107   .     S
C678   C679    1.535   .     S
C678   H684    1.098   .     S
C678   H683    1.089   .     S
C679   H681    1.107   .     S
C679   H682    1.108   .     S
C679   H680    1.107   .     S
C685   O719    1.319   .     A
C685   O722    1.323   .     A
C685   C694    1.467   .     S
C686   O720    1.326   .     A
C686   O721    1.325   .     A
C686   C693    1.483   .     S
C687   C712    1.414   .     A
C687   N753    1.438   .     S
C687   C1739   1.406   1_554 S
C688   N756    1.438   .     S
C688   C711    1.417   .     A
C688   C1740   1.409   .     S
C689   N759    1.438   .     S
C689   C694    1.402   .     A
C689   C919    1.388   1_455 S
C690   C693    1.418   .     A
C690   N762    1.437   .     S
C690   C806    1.407   .     S
C691   N765    1.427   .     S
C691   C693    1.420   .     A
C691   C803    1.388   .     S
C692   N768    1.436   .     S
C692   C694    1.410   .     A
C692   C918    1.407   1_455 S
C695   C771    1.523   .     S
C695   N718    1.387   .     A
C696   C778    1.497   .     S
C696   N717    1.391   .     A
C696   C13     1.443   1_565 S
C697   C785    1.523   .     S
C697   N718    1.383   .     A
C698   C792    1.518   .     S
C698   N717    1.391   .     A
C698   C11     1.448   1_565 S
C699   C704    1.464   .     S
C699   O723    1.321   .     A
C699   O726    1.320   .     A
C700   O724    1.322   .     A
C700   C703    1.474   .     S
C700   O725    1.325   .     A
C701   C711    1.420   .     A
C701   C727    1.535   .     S
C701   C703    1.426   .     A
C702   C704    1.415   .     A
C702   C712    1.413   .     A
C702   C734    1.531   .     S
C703   C705    1.411   .     A
C704   C706    1.404   .     A
C705   N741    1.435   .     S
C705   C707    1.405   .     A
C706   N744    1.437   .     S
C706   C708    1.416   .     A
C707   C713    1.414   .     A
C707   C709    1.413   .     A
C708   C710    1.417   .     A
C708   C714    1.416   .     A
C709   C711    1.413   .     A
C709   C1736   1.410   .     S
C710   C712    1.415   .     A
C710   C1735   1.410   1_554 S
C713   N747    1.437   .     S
C713   C1713   1.406   .     S
C714   N750    1.435   .     S
C714   C1714   1.409   1_554 S
Cu715  N717    2.080   .     S
Cu715  O721    1.984   .     S
Cu715  Cu716   2.768   .     S
Cu715  O725    1.973   .     S
Cu715  O723    1.969   .     S
Cu715  O719    1.994   .     S
Cu716  O720    1.994   .     S
Cu716  O722    1.984   .     S
Cu716  N718    2.080   .     S
Cu716  O724    1.969   .     S
Cu716  O726    1.973   .     S
C727   C728    1.517   .     S
C727   H732    1.096   .     S
C727   H733    1.108   .     S
C728   H731    1.111   .     S
C728   H730    1.098   .     S
C728   H729    1.109   .     S
C734   H740    1.098   .     S
C734   C735    1.524   .     S
C734   H739    1.108   .     S
C735   H736    1.101   .     S
C735   H737    1.109   .     S
C735   H738    1.111   .     S
N741   H742    1.043   .     S
N741   H743    1.046   .     S
N744   H746    1.042   .     S
N744   H745    1.046   .     S
N747   H749    1.045   .     S
N747   H748    1.045   .     S
N750   H752    1.045   .     S
N750   H751    1.045   .     S
N753   H755    1.045   .     S
N753   H754    1.045   .     S
N756   H758    1.045   .     S
N756   H757    1.045   .     S
N759   H760    1.046   .     S
N759   H761    1.043   .     S
N762   H764    1.045   .     S
N762   H763    1.044   .     S
N765   H766    1.044   .     S
N765   H767    1.036   .     S
N768   H769    1.045   .     S
N768   H770    1.045   .     S
C771   C772    1.537   .     S
C771   H776    1.073   .     S
C771   H777    1.105   .     S
C772   H775    1.108   .     S
C772   H774    1.110   .     S
C772   H773    1.110   .     S
C778   H784    1.101   .     S
C778   C779    1.552   .     S
C778   H783    1.095   .     S
C779   H780    1.095   .     S
C779   H782    1.102   .     S
C779   H781    1.109   .     S
C785   H791    1.071   .     S
C785   C786    1.536   .     S
C785   H790    1.109   .     S
C786   H789    1.101   .     S
C786   H787    1.108   .     S
C786   H788    1.107   .     S
C792   C793    1.535   .     S
C792   H798    1.098   .     S
C792   H797    1.089   .     S
C793   H795    1.107   .     S
C793   H796    1.108   .     S
C793   H794    1.107   .     S
C799   O833    1.319   .     A
C799   O836    1.323   .     A
C799   C808    1.467   .     S
C800   O834    1.326   .     A
C800   O835    1.325   .     A
C800   C807    1.483   .     S
C801   C826    1.414   .     A
C801   N867    1.438   .     S
C801   C1853   1.406   1_554 S
C802   N870    1.438   .     S
C802   C825    1.417   .     A
C802   C1854   1.409   .     S
C803   N873    1.438   .     S
C803   C808    1.402   .     A
C804   C807    1.418   .     A
C804   N876    1.437   .     S
C804   C920    1.407   .     S
C805   N879    1.427   .     S
C805   C807    1.420   .     A
C805   C917    1.388   .     S
C806   N882    1.436   .     S
C806   C808    1.410   .     A
C809   C885    1.523   .     S
C809   N832    1.387   .     A
C810   C892    1.497   .     S
C810   N831    1.391   .     A
C810   C127    1.443   1_565 S
C811   C899    1.523   .     S
C811   N832    1.383   .     A
C812   C906    1.518   .     S
C812   N831    1.391   .     A
C812   C125    1.448   1_565 S
C813   C818    1.464   .     S
C813   O837    1.321   .     A
C813   O840    1.320   .     A
C814   O838    1.322   .     A
C814   C817    1.474   .     S
C814   O839    1.325   .     A
C815   C825    1.420   .     A
C815   C841    1.535   .     S
C815   C817    1.426   .     A
C816   C818    1.415   .     A
C816   C826    1.413   .     A
C816   C848    1.531   .     S
C817   C819    1.411   .     A
C818   C820    1.404   .     A
C819   N855    1.435   .     S
C819   C821    1.405   .     A
C820   N858    1.437   .     S
C820   C822    1.416   .     A
C821   C827    1.414   .     A
C821   C823    1.413   .     A
C822   C824    1.417   .     A
C822   C828    1.416   .     A
C823   C825    1.413   .     A
C823   C1850   1.410   .     S
C824   C826    1.415   .     A
C824   C1849   1.410   1_554 S
C827   N861    1.437   .     S
C827   C1827   1.406   .     S
C828   N864    1.435   .     S
C828   C1828   1.409   1_554 S
Cu829  N831    2.080   .     S
Cu829  O835    1.984   .     S
Cu829  Cu830   2.768   .     S
Cu829  O839    1.973   .     S
Cu829  O837    1.969   .     S
Cu829  O833    1.994   .     S
Cu830  O834    1.994   .     S
Cu830  O836    1.984   .     S
Cu830  N832    2.080   .     S
Cu830  O838    1.969   .     S
Cu830  O840    1.973   .     S
C841   C842    1.517   .     S
C841   H846    1.096   .     S
C841   H847    1.108   .     S
C842   H845    1.111   .     S
C842   H844    1.098   .     S
C842   H843    1.109   .     S
C848   H854    1.098   .     S
C848   C849    1.524   .     S
C848   H853    1.108   .     S
C849   H850    1.101   .     S
C849   H851    1.109   .     S
C849   H852    1.111   .     S
N855   H856    1.043   .     S
N855   H857    1.046   .     S
N858   H860    1.042   .     S
N858   H859    1.046   .     S
N861   H863    1.045   .     S
N861   H862    1.045   .     S
N864   H866    1.045   .     S
N864   H865    1.045   .     S
N867   H869    1.045   .     S
N867   H868    1.045   .     S
N870   H872    1.045   .     S
N870   H871    1.045   .     S
N873   H874    1.046   .     S
N873   H875    1.043   .     S
N876   H878    1.045   .     S
N876   H877    1.044   .     S
N879   H880    1.044   .     S
N879   H881    1.036   .     S
N882   H883    1.045   .     S
N882   H884    1.045   .     S
C885   C886    1.537   .     S
C885   H890    1.073   .     S
C885   H891    1.105   .     S
C886   H889    1.108   .     S
C886   H888    1.110   .     S
C886   H887    1.110   .     S
C892   H898    1.101   .     S
C892   C893    1.552   .     S
C892   H897    1.095   .     S
C893   H894    1.095   .     S
C893   H896    1.102   .     S
C893   H895    1.109   .     S
C899   H905    1.071   .     S
C899   C900    1.536   .     S
C899   H904    1.109   .     S
C900   H903    1.101   .     S
C900   H901    1.108   .     S
C900   H902    1.107   .     S
C906   C907    1.535   .     S
C906   H912    1.098   .     S
C906   H911    1.089   .     S
C907   H909    1.107   .     S
C907   H910    1.108   .     S
C907   H908    1.107   .     S
C913   O947    1.319   .     A
C913   O950    1.323   .     A
C913   C922    1.467   .     S
C914   O948    1.326   .     A
C914   O949    1.325   .     A
C914   C921    1.483   .     S
C915   C940    1.414   .     A
C915   N981    1.438   .     S
C915   C1967   1.406   1_554 S
C916   N984    1.438   .     S
C916   C939    1.417   .     A
C916   C1968   1.409   .     S
C917   N987    1.438   .     S
C917   C922    1.402   .     A
C918   C921    1.418   .     A
C918   N990    1.437   .     S
C918   C692    1.407   1_655 S
C919   N993    1.427   .     S
C919   C921    1.420   .     A
C919   C689    1.388   1_655 S
C920   N996    1.436   .     S
C920   C922    1.410   .     A
C923   C999    1.523   .     S
C923   N946    1.387   .     A
C924   C1006   1.497   .     S
C924   N945    1.391   .     A
C924   C241    1.443   1_565 S
C925   C1013   1.523   .     S
C925   N946    1.383   .     A
C926   C1020   1.518   .     S
C926   N945    1.391   .     A
C926   C239    1.448   1_565 S
C927   C932    1.464   .     S
C927   O951    1.321   .     A
C927   O954    1.320   .     A
C928   O952    1.322   .     A
C928   C931    1.474   .     S
C928   O953    1.325   .     A
C929   C939    1.420   .     A
C929   C955    1.535   .     S
C929   C931    1.426   .     A
C930   C932    1.415   .     A
C930   C940    1.413   .     A
C930   C962    1.531   .     S
C931   C933    1.411   .     A
C932   C934    1.404   .     A
C933   N969    1.435   .     S
C933   C935    1.405   .     A
C934   N972    1.437   .     S
C934   C936    1.416   .     A
C935   C941    1.414   .     A
C935   C937    1.413   .     A
C936   C938    1.417   .     A
C936   C942    1.416   .     A
C937   C939    1.413   .     A
C937   C1964   1.410   .     S
C938   C940    1.415   .     A
C938   C1963   1.410   1_554 S
C941   N975    1.437   .     S
C941   C1941   1.406   .     S
C942   N978    1.435   .     S
C942   C1942   1.409   1_554 S
Cu943  N945    2.080   .     S
Cu943  O949    1.984   .     S
Cu943  Cu944   2.768   .     S
Cu943  O953    1.973   .     S
Cu943  O951    1.969   .     S
Cu943  O947    1.994   .     S
Cu944  O948    1.994   .     S
Cu944  O950    1.984   .     S
Cu944  N946    2.080   .     S
Cu944  O952    1.969   .     S
Cu944  O954    1.973   .     S
C955   C956    1.517   .     S
C955   H960    1.096   .     S
C955   H961    1.108   .     S
C956   H959    1.111   .     S
C956   H958    1.098   .     S
C956   H957    1.109   .     S
C962   H968    1.098   .     S
C962   C963    1.524   .     S
C962   H967    1.108   .     S
C963   H964    1.101   .     S
C963   H965    1.109   .     S
C963   H966    1.111   .     S
N969   H970    1.043   .     S
N969   H971    1.046   .     S
N972   H974    1.042   .     S
N972   H973    1.046   .     S
N975   H977    1.045   .     S
N975   H976    1.045   .     S
N978   H980    1.045   .     S
N978   H979    1.045   .     S
N981   H983    1.045   .     S
N981   H982    1.045   .     S
N984   H986    1.045   .     S
N984   H985    1.045   .     S
N987   H988    1.046   .     S
N987   H989    1.043   .     S
N990   H992    1.045   .     S
N990   H991    1.044   .     S
N993   H994    1.044   .     S
N993   H995    1.036   .     S
N996   H997    1.045   .     S
N996   H998    1.045   .     S
C999   C1000   1.537   .     S
C999   H1004   1.073   .     S
C999   H1005   1.105   .     S
C1000  H1003   1.108   .     S
C1000  H1002   1.110   .     S
C1000  H1001   1.110   .     S
C1006  H1012   1.101   .     S
C1006  C1007   1.552   .     S
C1006  H1011   1.095   .     S
C1007  H1008   1.095   .     S
C1007  H1010   1.102   .     S
C1007  H1009   1.109   .     S
C1013  H1019   1.071   .     S
C1013  C1014   1.536   .     S
C1013  H1018   1.109   .     S
C1014  H1017   1.101   .     S
C1014  H1015   1.108   .     S
C1014  H1016   1.107   .     S
C1020  C1021   1.535   .     S
C1020  H1026   1.098   .     S
C1020  H1025   1.089   .     S
C1021  H1023   1.107   .     S
C1021  H1024   1.108   .     S
C1021  H1022   1.107   .     S
C1027  O1061   1.319   .     A
C1027  O1064   1.323   .     A
C1027  C1036   1.467   .     S
C1028  O1062   1.326   .     A
C1028  O1063   1.325   .     A
C1028  C1035   1.483   .     S
C1029  C1054   1.414   .     A
C1029  N1095   1.438   .     S
C1030  N1098   1.438   .     S
C1030  C1053   1.417   .     A
C1030  C30     1.409   1_556 S
C1031  N1101   1.438   .     S
C1031  C1036   1.402   .     A
C1031  C1261   1.388   1_455 S
C1032  C1035   1.418   .     A
C1032  N1104   1.437   .     S
C1032  C1148   1.407   .     S
C1033  N1107   1.427   .     S
C1033  C1035   1.420   .     A
C1033  C1145   1.388   .     S
C1034  N1110   1.436   .     S
C1034  C1036   1.410   .     A
C1034  C1260   1.407   1_455 S
C1037  C1113   1.523   .     S
C1037  N1060   1.387   .     A
C1037  C1724   1.448   1_545 S
C1038  C1120   1.497   .     S
C1038  N1059   1.391   .     A
C1038  C1381   1.443   .     S
C1039  C1127   1.523   .     S
C1039  N1060   1.383   .     A
C1039  C1722   1.443   1_545 S
C1040  C1134   1.518   .     S
C1040  N1059   1.391   .     A
C1040  C1379   1.448   .     S
C1041  C1046   1.464   .     S
C1041  O1065   1.321   .     A
C1041  O1068   1.320   .     A
C1042  O1066   1.322   .     A
C1042  C1045   1.474   .     S
C1042  O1067   1.325   .     A
C1043  C1053   1.420   .     A
C1043  C1069   1.535   .     S
C1043  C1045   1.426   .     A
C1044  C1046   1.415   .     A
C1044  C1054   1.413   .     A
C1044  C1076   1.531   .     S
C1045  C1047   1.411   .     A
C1046  C1048   1.404   .     A
C1047  N1083   1.435   .     S
C1047  C1049   1.405   .     A
C1048  N1086   1.437   .     S
C1048  C1050   1.416   .     A
C1049  C1055   1.414   .     A
C1049  C1051   1.413   .     A
C1050  C1052   1.417   .     A
C1050  C1056   1.416   .     A
C1051  C1053   1.413   .     A
C1051  C26     1.410   1_556 S
C1052  C1054   1.415   .     A
C1055  N1089   1.437   .     S
C1055  C3      1.406   1_556 S
C1056  N1092   1.435   .     S
Cu1057 N1059   2.080   .     S
Cu1057 O1063   1.984   .     S
Cu1057 Cu1058  2.768   .     S
Cu1057 O1067   1.973   .     S
Cu1057 O1065   1.969   .     S
Cu1057 O1061   1.994   .     S
Cu1058 O1062   1.994   .     S
Cu1058 O1064   1.984   .     S
Cu1058 N1060   2.080   .     S
Cu1058 O1066   1.969   .     S
Cu1058 O1068   1.973   .     S
C1069  C1070   1.517   .     S
C1069  H1074   1.096   .     S
C1069  H1075   1.108   .     S
C1070  H1073   1.111   .     S
C1070  H1072   1.098   .     S
C1070  H1071   1.109   .     S
C1076  H1082   1.098   .     S
C1076  C1077   1.524   .     S
C1076  H1081   1.108   .     S
C1077  H1078   1.101   .     S
C1077  H1079   1.109   .     S
C1077  H1080   1.111   .     S
N1083  H1084   1.043   .     S
N1083  H1085   1.046   .     S
N1086  H1088   1.042   .     S
N1086  H1087   1.046   .     S
N1089  H1091   1.045   .     S
N1089  H1090   1.045   .     S
N1092  H1094   1.045   .     S
N1092  H1093   1.045   .     S
N1095  H1097   1.045   .     S
N1095  H1096   1.045   .     S
N1098  H1100   1.045   .     S
N1098  H1099   1.045   .     S
N1101  H1102   1.046   .     S
N1101  H1103   1.043   .     S
N1104  H1106   1.045   .     S
N1104  H1105   1.044   .     S
N1107  H1108   1.044   .     S
N1107  H1109   1.036   .     S
N1110  H1111   1.045   .     S
N1110  H1112   1.045   .     S
C1113  C1114   1.537   .     S
C1113  H1118   1.073   .     S
C1113  H1119   1.105   .     S
C1114  H1117   1.108   .     S
C1114  H1116   1.110   .     S
C1114  H1115   1.110   .     S
C1120  H1126   1.101   .     S
C1120  C1121   1.552   .     S
C1120  H1125   1.095   .     S
C1121  H1122   1.095   .     S
C1121  H1124   1.102   .     S
C1121  H1123   1.109   .     S
C1127  H1133   1.071   .     S
C1127  C1128   1.536   .     S
C1127  H1132   1.109   .     S
C1128  H1131   1.101   .     S
C1128  H1129   1.108   .     S
C1128  H1130   1.107   .     S
C1134  C1135   1.535   .     S
C1134  H1140   1.098   .     S
C1134  H1139   1.089   .     S
C1135  H1137   1.107   .     S
C1135  H1138   1.108   .     S
C1135  H1136   1.107   .     S
C1141  O1175   1.319   .     A
C1141  O1178   1.323   .     A
C1141  C1150   1.467   .     S
C1142  O1176   1.326   .     A
C1142  O1177   1.325   .     A
C1142  C1149   1.483   .     S
C1143  C1168   1.414   .     A
C1143  N1209   1.438   .     S
C1144  N1212   1.438   .     S
C1144  C1167   1.417   .     A
C1144  C144    1.409   1_556 S
C1145  N1215   1.438   .     S
C1145  C1150   1.402   .     A
C1146  C1149   1.418   .     A
C1146  N1218   1.437   .     S
C1146  C1262   1.407   .     S
C1147  N1221   1.427   .     S
C1147  C1149   1.420   .     A
C1147  C1259   1.388   .     S
C1148  N1224   1.436   .     S
C1148  C1150   1.410   .     A
C1151  C1227   1.523   .     S
C1151  N1174   1.387   .     A
C1151  C1838   1.448   1_545 S
C1152  C1234   1.497   .     S
C1152  N1173   1.391   .     A
C1152  C1495   1.443   .     S
C1153  C1241   1.523   .     S
C1153  N1174   1.383   .     A
C1153  C1836   1.443   1_545 S
C1154  C1248   1.518   .     S
C1154  N1173   1.391   .     A
C1154  C1493   1.448   .     S
C1155  C1160   1.464   .     S
C1155  O1179   1.321   .     A
C1155  O1182   1.320   .     A
C1156  O1180   1.322   .     A
C1156  C1159   1.474   .     S
C1156  O1181   1.325   .     A
C1157  C1167   1.420   .     A
C1157  C1183   1.535   .     S
C1157  C1159   1.426   .     A
C1158  C1160   1.415   .     A
C1158  C1168   1.413   .     A
C1158  C1190   1.531   .     S
C1159  C1161   1.411   .     A
C1160  C1162   1.404   .     A
C1161  N1197   1.435   .     S
C1161  C1163   1.405   .     A
C1162  N1200   1.437   .     S
C1162  C1164   1.416   .     A
C1163  C1169   1.414   .     A
C1163  C1165   1.413   .     A
C1164  C1166   1.417   .     A
C1164  C1170   1.416   .     A
C1165  C1167   1.413   .     A
C1165  C140    1.410   1_556 S
C1166  C1168   1.415   .     A
C1169  N1203   1.437   .     S
C1169  C117    1.406   1_556 S
C1170  N1206   1.435   .     S
Cu1171 N1173   2.080   .     S
Cu1171 O1177   1.984   .     S
Cu1171 Cu1172  2.768   .     S
Cu1171 O1181   1.973   .     S
Cu1171 O1179   1.969   .     S
Cu1171 O1175   1.994   .     S
Cu1172 O1176   1.994   .     S
Cu1172 O1178   1.984   .     S
Cu1172 N1174   2.080   .     S
Cu1172 O1180   1.969   .     S
Cu1172 O1182   1.973   .     S
C1183  C1184   1.517   .     S
C1183  H1188   1.096   .     S
C1183  H1189   1.108   .     S
C1184  H1187   1.111   .     S
C1184  H1186   1.098   .     S
C1184  H1185   1.109   .     S
C1190  H1196   1.098   .     S
C1190  C1191   1.524   .     S
C1190  H1195   1.108   .     S
C1191  H1192   1.101   .     S
C1191  H1193   1.109   .     S
C1191  H1194   1.111   .     S
N1197  H1198   1.043   .     S
N1197  H1199   1.046   .     S
N1200  H1202   1.042   .     S
N1200  H1201   1.046   .     S
N1203  H1205   1.045   .     S
N1203  H1204   1.045   .     S
N1206  H1208   1.045   .     S
N1206  H1207   1.045   .     S
N1209  H1211   1.045   .     S
N1209  H1210   1.045   .     S
N1212  H1214   1.045   .     S
N1212  H1213   1.045   .     S
N1215  H1216   1.046   .     S
N1215  H1217   1.043   .     S
N1218  H1220   1.045   .     S
N1218  H1219   1.044   .     S
N1221  H1222   1.044   .     S
N1221  H1223   1.036   .     S
N1224  H1225   1.045   .     S
N1224  H1226   1.045   .     S
C1227  C1228   1.537   .     S
C1227  H1232   1.073   .     S
C1227  H1233   1.105   .     S
C1228  H1231   1.108   .     S
C1228  H1230   1.110   .     S
C1228  H1229   1.110   .     S
C1234  H1240   1.101   .     S
C1234  C1235   1.552   .     S
C1234  H1239   1.095   .     S
C1235  H1236   1.095   .     S
C1235  H1238   1.102   .     S
C1235  H1237   1.109   .     S
C1241  H1247   1.071   .     S
C1241  C1242   1.536   .     S
C1241  H1246   1.109   .     S
C1242  H1245   1.101   .     S
C1242  H1243   1.108   .     S
C1242  H1244   1.107   .     S
C1248  C1249   1.535   .     S
C1248  H1254   1.098   .     S
C1248  H1253   1.089   .     S
C1249  H1251   1.107   .     S
C1249  H1252   1.108   .     S
C1249  H1250   1.107   .     S
C1255  O1289   1.319   .     A
C1255  O1292   1.323   .     A
C1255  C1264   1.467   .     S
C1256  O1290   1.326   .     A
C1256  O1291   1.325   .     A
C1256  C1263   1.483   .     S
C1257  C1282   1.414   .     A
C1257  N1323   1.438   .     S
C1258  N1326   1.438   .     S
C1258  C1281   1.417   .     A
C1258  C258    1.409   1_556 S
C1259  N1329   1.438   .     S
C1259  C1264   1.402   .     A
C1260  C1263   1.418   .     A
C1260  N1332   1.437   .     S
C1260  C1034   1.407   1_655 S
C1261  N1335   1.427   .     S
C1261  C1263   1.420   .     A
C1261  C1031   1.388   1_655 S
C1262  N1338   1.436   .     S
C1262  C1264   1.410   .     A
C1265  C1341   1.523   .     S
C1265  N1288   1.387   .     A
C1265  C1952   1.448   1_545 S
C1266  C1348   1.497   .     S
C1266  N1287   1.391   .     A
C1266  C1609   1.443   .     S
C1267  C1355   1.523   .     S
C1267  N1288   1.383   .     A
C1267  C1950   1.443   1_545 S
C1268  C1362   1.518   .     S
C1268  N1287   1.391   .     A
C1268  C1607   1.448   .     S
C1269  C1274   1.464   .     S
C1269  O1293   1.321   .     A
C1269  O1296   1.320   .     A
C1270  O1294   1.322   .     A
C1270  C1273   1.474   .     S
C1270  O1295   1.325   .     A
C1271  C1281   1.420   .     A
C1271  C1297   1.535   .     S
C1271  C1273   1.426   .     A
C1272  C1274   1.415   .     A
C1272  C1282   1.413   .     A
C1272  C1304   1.531   .     S
C1273  C1275   1.411   .     A
C1274  C1276   1.404   .     A
C1275  N1311   1.435   .     S
C1275  C1277   1.405   .     A
C1276  N1314   1.437   .     S
C1276  C1278   1.416   .     A
C1277  C1283   1.414   .     A
C1277  C1279   1.413   .     A
C1278  C1280   1.417   .     A
C1278  C1284   1.416   .     A
C1279  C1281   1.413   .     A
C1279  C254    1.410   1_556 S
C1280  C1282   1.415   .     A
C1283  N1317   1.437   .     S
C1283  C231    1.406   1_556 S
C1284  N1320   1.435   .     S
Cu1285 N1287   2.080   .     S
Cu1285 O1291   1.984   .     S
Cu1285 Cu1286  2.768   .     S
Cu1285 O1295   1.973   .     S
Cu1285 O1293   1.969   .     S
Cu1285 O1289   1.994   .     S
Cu1286 O1290   1.994   .     S
Cu1286 O1292   1.984   .     S
Cu1286 N1288   2.080   .     S
Cu1286 O1294   1.969   .     S
Cu1286 O1296   1.973   .     S
C1297  C1298   1.517   .     S
C1297  H1302   1.096   .     S
C1297  H1303   1.108   .     S
C1298  H1301   1.111   .     S
C1298  H1300   1.098   .     S
C1298  H1299   1.109   .     S
C1304  H1310   1.098   .     S
C1304  C1305   1.524   .     S
C1304  H1309   1.108   .     S
C1305  H1306   1.101   .     S
C1305  H1307   1.109   .     S
C1305  H1308   1.111   .     S
N1311  H1312   1.043   .     S
N1311  H1313   1.046   .     S
N1314  H1316   1.042   .     S
N1314  H1315   1.046   .     S
N1317  H1319   1.045   .     S
N1317  H1318   1.045   .     S
N1320  H1322   1.045   .     S
N1320  H1321   1.045   .     S
N1323  H1325   1.045   .     S
N1323  H1324   1.045   .     S
N1326  H1328   1.045   .     S
N1326  H1327   1.045   .     S
N1329  H1330   1.046   .     S
N1329  H1331   1.043   .     S
N1332  H1334   1.045   .     S
N1332  H1333   1.044   .     S
N1335  H1336   1.044   .     S
N1335  H1337   1.036   .     S
N1338  H1339   1.045   .     S
N1338  H1340   1.045   .     S
C1341  C1342   1.537   .     S
C1341  H1346   1.073   .     S
C1341  H1347   1.105   .     S
C1342  H1345   1.108   .     S
C1342  H1344   1.110   .     S
C1342  H1343   1.110   .     S
C1348  H1354   1.101   .     S
C1348  C1349   1.552   .     S
C1348  H1353   1.095   .     S
C1349  H1350   1.095   .     S
C1349  H1352   1.102   .     S
C1349  H1351   1.109   .     S
C1355  H1361   1.071   .     S
C1355  C1356   1.536   .     S
C1355  H1360   1.109   .     S
C1356  H1359   1.101   .     S
C1356  H1357   1.108   .     S
C1356  H1358   1.107   .     S
C1362  C1363   1.535   .     S
C1362  H1368   1.098   .     S
C1362  H1367   1.089   .     S
C1363  H1365   1.107   .     S
C1363  H1366   1.108   .     S
C1363  H1364   1.107   .     S
C1369  O1403   1.319   .     A
C1369  O1406   1.323   .     A
C1369  C1378   1.467   .     S
C1370  O1404   1.326   .     A
C1370  O1405   1.325   .     A
C1370  C1377   1.483   .     S
C1371  C1396   1.414   .     A
C1371  N1437   1.438   .     S
C1372  N1440   1.438   .     S
C1372  C1395   1.417   .     A
C1372  C372    1.409   1_556 S
C1373  N1443   1.438   .     S
C1373  C1378   1.402   .     A
C1373  C1603   1.388   1_455 S
C1374  C1377   1.418   .     A
C1374  N1446   1.437   .     S
C1374  C1490   1.407   .     S
C1375  N1449   1.427   .     S
C1375  C1377   1.420   .     A
C1375  C1487   1.388   .     S
C1376  N1452   1.436   .     S
C1376  C1378   1.410   .     A
C1376  C1602   1.407   1_455 S
C1379  C1455   1.523   .     S
C1379  N1402   1.387   .     A
C1380  C1462   1.497   .     S
C1380  N1401   1.391   .     A
C1380  C1723   1.443   .     S
C1381  C1469   1.523   .     S
C1381  N1402   1.383   .     A
C1382  C1476   1.518   .     S
C1382  N1401   1.391   .     A
C1382  C1721   1.448   .     S
C1383  C1388   1.464   .     S
C1383  O1407   1.321   .     A
C1383  O1410   1.320   .     A
C1384  O1408   1.322   .     A
C1384  C1387   1.474   .     S
C1384  O1409   1.325   .     A
C1385  C1395   1.420   .     A
C1385  C1411   1.535   .     S
C1385  C1387   1.426   .     A
C1386  C1388   1.415   .     A
C1386  C1396   1.413   .     A
C1386  C1418   1.531   .     S
C1387  C1389   1.411   .     A
C1388  C1390   1.404   .     A
C1389  N1425   1.435   .     S
C1389  C1391   1.405   .     A
C1390  N1428   1.437   .     S
C1390  C1392   1.416   .     A
C1391  C1397   1.414   .     A
C1391  C1393   1.413   .     A
C1392  C1394   1.417   .     A
C1392  C1398   1.416   .     A
C1393  C1395   1.413   .     A
C1393  C368    1.410   1_556 S
C1394  C1396   1.415   .     A
C1397  N1431   1.437   .     S
C1397  C345    1.406   1_556 S
C1398  N1434   1.435   .     S
Cu1399 N1401   2.080   .     S
Cu1399 O1405   1.984   .     S
Cu1399 Cu1400  2.768   .     S
Cu1399 O1409   1.973   .     S
Cu1399 O1407   1.969   .     S
Cu1399 O1403   1.994   .     S
Cu1400 O1404   1.994   .     S
Cu1400 O1406   1.984   .     S
Cu1400 N1402   2.080   .     S
Cu1400 O1408   1.969   .     S
Cu1400 O1410   1.973   .     S
C1411  C1412   1.517   .     S
C1411  H1416   1.096   .     S
C1411  H1417   1.108   .     S
C1412  H1415   1.111   .     S
C1412  H1414   1.098   .     S
C1412  H1413   1.109   .     S
C1418  H1424   1.098   .     S
C1418  C1419   1.524   .     S
C1418  H1423   1.108   .     S
C1419  H1420   1.101   .     S
C1419  H1421   1.109   .     S
C1419  H1422   1.111   .     S
N1425  H1426   1.043   .     S
N1425  H1427   1.046   .     S
N1428  H1430   1.042   .     S
N1428  H1429   1.046   .     S
N1431  H1433   1.045   .     S
N1431  H1432   1.045   .     S
N1434  H1436   1.045   .     S
N1434  H1435   1.045   .     S
N1437  H1439   1.045   .     S
N1437  H1438   1.045   .     S
N1440  H1442   1.045   .     S
N1440  H1441   1.045   .     S
N1443  H1444   1.046   .     S
N1443  H1445   1.043   .     S
N1446  H1448   1.045   .     S
N1446  H1447   1.044   .     S
N1449  H1450   1.044   .     S
N1449  H1451   1.036   .     S
N1452  H1453   1.045   .     S
N1452  H1454   1.045   .     S
C1455  C1456   1.537   .     S
C1455  H1460   1.073   .     S
C1455  H1461   1.105   .     S
C1456  H1459   1.108   .     S
C1456  H1458   1.110   .     S
C1456  H1457   1.110   .     S
C1462  H1468   1.101   .     S
C1462  C1463   1.552   .     S
C1462  H1467   1.095   .     S
C1463  H1464   1.095   .     S
C1463  H1466   1.102   .     S
C1463  H1465   1.109   .     S
C1469  H1475   1.071   .     S
C1469  C1470   1.536   .     S
C1469  H1474   1.109   .     S
C1470  H1473   1.101   .     S
C1470  H1471   1.108   .     S
C1470  H1472   1.107   .     S
C1476  C1477   1.535   .     S
C1476  H1482   1.098   .     S
C1476  H1481   1.089   .     S
C1477  H1479   1.107   .     S
C1477  H1480   1.108   .     S
C1477  H1478   1.107   .     S
C1483  O1517   1.319   .     A
C1483  O1520   1.323   .     A
C1483  C1492   1.467   .     S
C1484  O1518   1.326   .     A
C1484  O1519   1.325   .     A
C1484  C1491   1.483   .     S
C1485  C1510   1.414   .     A
C1485  N1551   1.438   .     S
C1486  N1554   1.438   .     S
C1486  C1509   1.417   .     A
C1486  C486    1.409   1_556 S
C1487  N1557   1.438   .     S
C1487  C1492   1.402   .     A
C1488  C1491   1.418   .     A
C1488  N1560   1.437   .     S
C1488  C1604   1.407   .     S
C1489  N1563   1.427   .     S
C1489  C1491   1.420   .     A
C1489  C1601   1.388   .     S
C1490  N1566   1.436   .     S
C1490  C1492   1.410   .     A
C1493  C1569   1.523   .     S
C1493  N1516   1.387   .     A
C1494  C1576   1.497   .     S
C1494  N1515   1.391   .     A
C1494  C1837   1.443   .     S
C1495  C1583   1.523   .     S
C1495  N1516   1.383   .     A
C1496  C1590   1.518   .     S
C1496  N1515   1.391   .     A
C1496  C1835   1.448   .     S
C1497  C1502   1.464   .     S
C1497  O1521   1.321   .     A
C1497  O1524   1.320   .     A
C1498  O1522   1.322   .     A
C1498  C1501   1.474   .     S
C1498  O1523   1.325   .     A
C1499  C1509   1.420   .     A
C1499  C1525   1.535   .     S
C1499  C1501   1.426   .     A
C1500  C1502   1.415   .     A
C1500  C1510   1.413   .     A
C1500  C1532   1.531   .     S
C1501  C1503   1.411   .     A
C1502  C1504   1.404   .     A
C1503  N1539   1.435   .     S
C1503  C1505   1.405   .     A
C1504  N1542   1.437   .     S
C1504  C1506   1.416   .     A
C1505  C1511   1.414   .     A
C1505  C1507   1.413   .     A
C1506  C1508   1.417   .     A
C1506  C1512   1.416   .     A
C1507  C1509   1.413   .     A
C1507  C482    1.410   1_556 S
C1508  C1510   1.415   .     A
C1511  N1545   1.437   .     S
C1511  C459    1.406   1_556 S
C1512  N1548   1.435   .     S
Cu1513 N1515   2.080   .     S
Cu1513 O1519   1.984   .     S
Cu1513 Cu1514  2.768   .     S
Cu1513 O1523   1.973   .     S
Cu1513 O1521   1.969   .     S
Cu1513 O1517   1.994   .     S
Cu1514 O1518   1.994   .     S
Cu1514 O1520   1.984   .     S
Cu1514 N1516   2.080   .     S
Cu1514 O1522   1.969   .     S
Cu1514 O1524   1.973   .     S
C1525  C1526   1.517   .     S
C1525  H1530   1.096   .     S
C1525  H1531   1.108   .     S
C1526  H1529   1.111   .     S
C1526  H1528   1.098   .     S
C1526  H1527   1.109   .     S
C1532  H1538   1.098   .     S
C1532  C1533   1.524   .     S
C1532  H1537   1.108   .     S
C1533  H1534   1.101   .     S
C1533  H1535   1.109   .     S
C1533  H1536   1.111   .     S
N1539  H1540   1.043   .     S
N1539  H1541   1.046   .     S
N1542  H1544   1.042   .     S
N1542  H1543   1.046   .     S
N1545  H1547   1.045   .     S
N1545  H1546   1.045   .     S
N1548  H1550   1.045   .     S
N1548  H1549   1.045   .     S
N1551  H1553   1.045   .     S
N1551  H1552   1.045   .     S
N1554  H1556   1.045   .     S
N1554  H1555   1.045   .     S
N1557  H1558   1.046   .     S
N1557  H1559   1.043   .     S
N1560  H1562   1.045   .     S
N1560  H1561   1.044   .     S
N1563  H1564   1.044   .     S
N1563  H1565   1.036   .     S
N1566  H1567   1.045   .     S
N1566  H1568   1.045   .     S
C1569  C1570   1.537   .     S
C1569  H1574   1.073   .     S
C1569  H1575   1.105   .     S
C1570  H1573   1.108   .     S
C1570  H1572   1.110   .     S
C1570  H1571   1.110   .     S
C1576  H1582   1.101   .     S
C1576  C1577   1.552   .     S
C1576  H1581   1.095   .     S
C1577  H1578   1.095   .     S
C1577  H1580   1.102   .     S
C1577  H1579   1.109   .     S
C1583  H1589   1.071   .     S
C1583  C1584   1.536   .     S
C1583  H1588   1.109   .     S
C1584  H1587   1.101   .     S
C1584  H1585   1.108   .     S
C1584  H1586   1.107   .     S
C1590  C1591   1.535   .     S
C1590  H1596   1.098   .     S
C1590  H1595   1.089   .     S
C1591  H1593   1.107   .     S
C1591  H1594   1.108   .     S
C1591  H1592   1.107   .     S
C1597  O1631   1.319   .     A
C1597  O1634   1.323   .     A
C1597  C1606   1.467   .     S
C1598  O1632   1.326   .     A
C1598  O1633   1.325   .     A
C1598  C1605   1.483   .     S
C1599  C1624   1.414   .     A
C1599  N1665   1.438   .     S
C1600  N1668   1.438   .     S
C1600  C1623   1.417   .     A
C1600  C600    1.409   1_556 S
C1601  N1671   1.438   .     S
C1601  C1606   1.402   .     A
C1602  C1605   1.418   .     A
C1602  N1674   1.437   .     S
C1602  C1376   1.407   1_655 S
C1603  N1677   1.427   .     S
C1603  C1605   1.420   .     A
C1603  C1373   1.388   1_655 S
C1604  N1680   1.436   .     S
C1604  C1606   1.410   .     A
C1607  C1683   1.523   .     S
C1607  N1630   1.387   .     A
C1608  C1690   1.497   .     S
C1608  N1629   1.391   .     A
C1608  C1951   1.443   .     S
C1609  C1697   1.523   .     S
C1609  N1630   1.383   .     A
C1610  C1704   1.518   .     S
C1610  N1629   1.391   .     A
C1610  C1949   1.448   .     S
C1611  C1616   1.464   .     S
C1611  O1635   1.321   .     A
C1611  O1638   1.320   .     A
C1612  O1636   1.322   .     A
C1612  C1615   1.474   .     S
C1612  O1637   1.325   .     A
C1613  C1623   1.420   .     A
C1613  C1639   1.535   .     S
C1613  C1615   1.426   .     A
C1614  C1616   1.415   .     A
C1614  C1624   1.413   .     A
C1614  C1646   1.531   .     S
C1615  C1617   1.411   .     A
C1616  C1618   1.404   .     A
C1617  N1653   1.435   .     S
C1617  C1619   1.405   .     A
C1618  N1656   1.437   .     S
C1618  C1620   1.416   .     A
C1619  C1625   1.414   .     A
C1619  C1621   1.413   .     A
C1620  C1622   1.417   .     A
C1620  C1626   1.416   .     A
C1621  C1623   1.413   .     A
C1621  C596    1.410   1_556 S
C1622  C1624   1.415   .     A
C1625  N1659   1.437   .     S
C1625  C573    1.406   1_556 S
C1626  N1662   1.435   .     S
Cu1627 N1629   2.080   .     S
Cu1627 O1633   1.984   .     S
Cu1627 Cu1628  2.768   .     S
Cu1627 O1637   1.973   .     S
Cu1627 O1635   1.969   .     S
Cu1627 O1631   1.994   .     S
Cu1628 O1632   1.994   .     S
Cu1628 O1634   1.984   .     S
Cu1628 N1630   2.080   .     S
Cu1628 O1636   1.969   .     S
Cu1628 O1638   1.973   .     S
C1639  C1640   1.517   .     S
C1639  H1644   1.096   .     S
C1639  H1645   1.108   .     S
C1640  H1643   1.111   .     S
C1640  H1642   1.098   .     S
C1640  H1641   1.109   .     S
C1646  H1652   1.098   .     S
C1646  C1647   1.524   .     S
C1646  H1651   1.108   .     S
C1647  H1648   1.101   .     S
C1647  H1649   1.109   .     S
C1647  H1650   1.111   .     S
N1653  H1654   1.043   .     S
N1653  H1655   1.046   .     S
N1656  H1658   1.042   .     S
N1656  H1657   1.046   .     S
N1659  H1661   1.045   .     S
N1659  H1660   1.045   .     S
N1662  H1664   1.045   .     S
N1662  H1663   1.045   .     S
N1665  H1667   1.045   .     S
N1665  H1666   1.045   .     S
N1668  H1670   1.045   .     S
N1668  H1669   1.045   .     S
N1671  H1672   1.046   .     S
N1671  H1673   1.043   .     S
N1674  H1676   1.045   .     S
N1674  H1675   1.044   .     S
N1677  H1678   1.044   .     S
N1677  H1679   1.036   .     S
N1680  H1681   1.045   .     S
N1680  H1682   1.045   .     S
C1683  C1684   1.537   .     S
C1683  H1688   1.073   .     S
C1683  H1689   1.105   .     S
C1684  H1687   1.108   .     S
C1684  H1686   1.110   .     S
C1684  H1685   1.110   .     S
C1690  H1696   1.101   .     S
C1690  C1691   1.552   .     S
C1690  H1695   1.095   .     S
C1691  H1692   1.095   .     S
C1691  H1694   1.102   .     S
C1691  H1693   1.109   .     S
C1697  H1703   1.071   .     S
C1697  C1698   1.536   .     S
C1697  H1702   1.109   .     S
C1698  H1701   1.101   .     S
C1698  H1699   1.108   .     S
C1698  H1700   1.107   .     S
C1704  C1705   1.535   .     S
C1704  H1710   1.098   .     S
C1704  H1709   1.089   .     S
C1705  H1707   1.107   .     S
C1705  H1708   1.108   .     S
C1705  H1706   1.107   .     S
C1711  O1745   1.319   .     A
C1711  O1748   1.323   .     A
C1711  C1720   1.467   .     S
C1712  O1746   1.326   .     A
C1712  O1747   1.325   .     A
C1712  C1719   1.483   .     S
C1713  C1738   1.414   .     A
C1713  N1779   1.438   .     S
C1714  N1782   1.438   .     S
C1714  C1737   1.417   .     A
C1714  C714    1.409   1_556 S
C1715  N1785   1.438   .     S
C1715  C1720   1.402   .     A
C1715  C1945   1.388   1_455 S
C1716  C1719   1.418   .     A
C1716  N1788   1.437   .     S
C1716  C1832   1.407   .     S
C1717  N1791   1.427   .     S
C1717  C1719   1.420   .     A
C1717  C1829   1.388   .     S
C1718  N1794   1.436   .     S
C1718  C1720   1.410   .     A
C1718  C1944   1.407   1_455 S
C1721  C1797   1.523   .     S
C1721  N1744   1.387   .     A
C1722  C1804   1.497   .     S
C1722  N1743   1.391   .     A
C1722  C1039   1.443   1_565 S
C1723  C1811   1.523   .     S
C1723  N1744   1.383   .     A
C1724  C1818   1.518   .     S
C1724  N1743   1.391   .     A
C1724  C1037   1.448   1_565 S
C1725  C1730   1.464   .     S
C1725  O1749   1.321   .     A
C1725  O1752   1.320   .     A
C1726  O1750   1.322   .     A
C1726  C1729   1.474   .     S
C1726  O1751   1.325   .     A
C1727  C1737   1.420   .     A
C1727  C1753   1.535   .     S
C1727  C1729   1.426   .     A
C1728  C1730   1.415   .     A
C1728  C1738   1.413   .     A
C1728  C1760   1.531   .     S
C1729  C1731   1.411   .     A
C1730  C1732   1.404   .     A
C1731  N1767   1.435   .     S
C1731  C1733   1.405   .     A
C1732  N1770   1.437   .     S
C1732  C1734   1.416   .     A
C1733  C1739   1.414   .     A
C1733  C1735   1.413   .     A
C1734  C1736   1.417   .     A
C1734  C1740   1.416   .     A
C1735  C1737   1.413   .     A
C1735  C710    1.410   1_556 S
C1736  C1738   1.415   .     A
C1739  N1773   1.437   .     S
C1739  C687    1.406   1_556 S
C1740  N1776   1.435   .     S
Cu1741 N1743   2.080   .     S
Cu1741 O1747   1.984   .     S
Cu1741 Cu1742  2.768   .     S
Cu1741 O1751   1.973   .     S
Cu1741 O1749   1.969   .     S
Cu1741 O1745   1.994   .     S
Cu1742 O1746   1.994   .     S
Cu1742 O1748   1.984   .     S
Cu1742 N1744   2.080   .     S
Cu1742 O1750   1.969   .     S
Cu1742 O1752   1.973   .     S
C1753  C1754   1.517   .     S
C1753  H1758   1.096   .     S
C1753  H1759   1.108   .     S
C1754  H1757   1.111   .     S
C1754  H1756   1.098   .     S
C1754  H1755   1.109   .     S
C1760  H1766   1.098   .     S
C1760  C1761   1.524   .     S
C1760  H1765   1.108   .     S
C1761  H1762   1.101   .     S
C1761  H1763   1.109   .     S
C1761  H1764   1.111   .     S
N1767  H1768   1.043   .     S
N1767  H1769   1.046   .     S
N1770  H1772   1.042   .     S
N1770  H1771   1.046   .     S
N1773  H1775   1.045   .     S
N1773  H1774   1.045   .     S
N1776  H1778   1.045   .     S
N1776  H1777   1.045   .     S
N1779  H1781   1.045   .     S
N1779  H1780   1.045   .     S
N1782  H1784   1.045   .     S
N1782  H1783   1.045   .     S
N1785  H1786   1.046   .     S
N1785  H1787   1.043   .     S
N1788  H1790   1.045   .     S
N1788  H1789   1.044   .     S
N1791  H1792   1.044   .     S
N1791  H1793   1.036   .     S
N1794  H1795   1.045   .     S
N1794  H1796   1.045   .     S
C1797  C1798   1.537   .     S
C1797  H1802   1.073   .     S
C1797  H1803   1.105   .     S
C1798  H1801   1.108   .     S
C1798  H1800   1.110   .     S
C1798  H1799   1.110   .     S
C1804  H1810   1.101   .     S
C1804  C1805   1.552   .     S
C1804  H1809   1.095   .     S
C1805  H1806   1.095   .     S
C1805  H1808   1.102   .     S
C1805  H1807   1.109   .     S
C1811  H1817   1.071   .     S
C1811  C1812   1.536   .     S
C1811  H1816   1.109   .     S
C1812  H1815   1.101   .     S
C1812  H1813   1.108   .     S
C1812  H1814   1.107   .     S
C1818  C1819   1.535   .     S
C1818  H1824   1.098   .     S
C1818  H1823   1.089   .     S
C1819  H1821   1.107   .     S
C1819  H1822   1.108   .     S
C1819  H1820   1.107   .     S
C1825  O1859   1.319   .     A
C1825  O1862   1.323   .     A
C1825  C1834   1.467   .     S
C1826  O1860   1.326   .     A
C1826  O1861   1.325   .     A
C1826  C1833   1.483   .     S
C1827  C1852   1.414   .     A
C1827  N1893   1.438   .     S
C1828  N1896   1.438   .     S
C1828  C1851   1.417   .     A
C1828  C828    1.409   1_556 S
C1829  N1899   1.438   .     S
C1829  C1834   1.402   .     A
C1830  C1833   1.418   .     A
C1830  N1902   1.437   .     S
C1830  C1946   1.407   .     S
C1831  N1905   1.427   .     S
C1831  C1833   1.420   .     A
C1831  C1943   1.388   .     S
C1832  N1908   1.436   .     S
C1832  C1834   1.410   .     A
C1835  C1911   1.523   .     S
C1835  N1858   1.387   .     A
C1836  C1918   1.497   .     S
C1836  N1857   1.391   .     A
C1836  C1153   1.443   1_565 S
C1837  C1925   1.523   .     S
C1837  N1858   1.383   .     A
C1838  C1932   1.518   .     S
C1838  N1857   1.391   .     A
C1838  C1151   1.448   1_565 S
C1839  C1844   1.464   .     S
C1839  O1863   1.321   .     A
C1839  O1866   1.320   .     A
C1840  O1864   1.322   .     A
C1840  C1843   1.474   .     S
C1840  O1865   1.325   .     A
C1841  C1851   1.420   .     A
C1841  C1867   1.535   .     S
C1841  C1843   1.426   .     A
C1842  C1844   1.415   .     A
C1842  C1852   1.413   .     A
C1842  C1874   1.531   .     S
C1843  C1845   1.411   .     A
C1844  C1846   1.404   .     A
C1845  N1881   1.435   .     S
C1845  C1847   1.405   .     A
C1846  N1884   1.437   .     S
C1846  C1848   1.416   .     A
C1847  C1853   1.414   .     A
C1847  C1849   1.413   .     A
C1848  C1850   1.417   .     A
C1848  C1854   1.416   .     A
C1849  C1851   1.413   .     A
C1849  C824    1.410   1_556 S
C1850  C1852   1.415   .     A
C1853  N1887   1.437   .     S
C1853  C801    1.406   1_556 S
C1854  N1890   1.435   .     S
Cu1855 N1857   2.080   .     S
Cu1855 O1861   1.984   .     S
Cu1855 Cu1856  2.768   .     S
Cu1855 O1865   1.973   .     S
Cu1855 O1863   1.969   .     S
Cu1855 O1859   1.994   .     S
Cu1856 O1860   1.994   .     S
Cu1856 O1862   1.984   .     S
Cu1856 N1858   2.080   .     S
Cu1856 O1864   1.969   .     S
Cu1856 O1866   1.973   .     S
C1867  C1868   1.517   .     S
C1867  H1872   1.096   .     S
C1867  H1873   1.108   .     S
C1868  H1871   1.111   .     S
C1868  H1870   1.098   .     S
C1868  H1869   1.109   .     S
C1874  H1880   1.098   .     S
C1874  C1875   1.524   .     S
C1874  H1879   1.108   .     S
C1875  H1876   1.101   .     S
C1875  H1877   1.109   .     S
C1875  H1878   1.111   .     S
N1881  H1882   1.043   .     S
N1881  H1883   1.046   .     S
N1884  H1886   1.042   .     S
N1884  H1885   1.046   .     S
N1887  H1889   1.045   .     S
N1887  H1888   1.045   .     S
N1890  H1892   1.045   .     S
N1890  H1891   1.045   .     S
N1893  H1895   1.045   .     S
N1893  H1894   1.045   .     S
N1896  H1898   1.045   .     S
N1896  H1897   1.045   .     S
N1899  H1900   1.046   .     S
N1899  H1901   1.043   .     S
N1902  H1904   1.045   .     S
N1902  H1903   1.044   .     S
N1905  H1906   1.044   .     S
N1905  H1907   1.036   .     S
N1908  H1909   1.045   .     S
N1908  H1910   1.045   .     S
C1911  C1912   1.537   .     S
C1911  H1916   1.073   .     S
C1911  H1917   1.105   .     S
C1912  H1915   1.108   .     S
C1912  H1914   1.110   .     S
C1912  H1913   1.110   .     S
C1918  H1924   1.101   .     S
C1918  C1919   1.552   .     S
C1918  H1923   1.095   .     S
C1919  H1920   1.095   .     S
C1919  H1922   1.102   .     S
C1919  H1921   1.109   .     S
C1925  H1931   1.071   .     S
C1925  C1926   1.536   .     S
C1925  H1930   1.109   .     S
C1926  H1929   1.101   .     S
C1926  H1927   1.108   .     S
C1926  H1928   1.107   .     S
C1932  C1933   1.535   .     S
C1932  H1938   1.098   .     S
C1932  H1937   1.089   .     S
C1933  H1935   1.107   .     S
C1933  H1936   1.108   .     S
C1933  H1934   1.107   .     S
C1939  O1973   1.319   .     A
C1939  O1976   1.323   .     A
C1939  C1948   1.467   .     S
C1940  O1974   1.326   .     A
C1940  O1975   1.325   .     A
C1940  C1947   1.483   .     S
C1941  C1966   1.414   .     A
C1941  N2007   1.438   .     S
C1942  N2010   1.438   .     S
C1942  C1965   1.417   .     A
C1942  C942    1.409   1_556 S
C1943  N2013   1.438   .     S
C1943  C1948   1.402   .     A
C1944  C1947   1.418   .     A
C1944  N2016   1.437   .     S
C1944  C1718   1.407   1_655 S
C1945  N2019   1.427   .     S
C1945  C1947   1.420   .     A
C1945  C1715   1.388   1_655 S
C1946  N2022   1.436   .     S
C1946  C1948   1.410   .     A
C1949  C2025   1.523   .     S
C1949  N1972   1.387   .     A
C1950  C2032   1.497   .     S
C1950  N1971   1.391   .     A
C1950  C1267   1.443   1_565 S
C1951  C2039   1.523   .     S
C1951  N1972   1.383   .     A
C1952  C2046   1.518   .     S
C1952  N1971   1.391   .     A
C1952  C1265   1.448   1_565 S
C1953  C1958   1.464   .     S
C1953  O1977   1.321   .     A
C1953  O1980   1.320   .     A
C1954  O1978   1.322   .     A
C1954  C1957   1.474   .     S
C1954  O1979   1.325   .     A
C1955  C1965   1.420   .     A
C1955  C1981   1.535   .     S
C1955  C1957   1.426   .     A
C1956  C1958   1.415   .     A
C1956  C1966   1.413   .     A
C1956  C1988   1.531   .     S
C1957  C1959   1.411   .     A
C1958  C1960   1.404   .     A
C1959  N1995   1.435   .     S
C1959  C1961   1.405   .     A
C1960  N1998   1.437   .     S
C1960  C1962   1.416   .     A
C1961  C1967   1.414   .     A
C1961  C1963   1.413   .     A
C1962  C1964   1.417   .     A
C1962  C1968   1.416   .     A
C1963  C1965   1.413   .     A
C1963  C938    1.410   1_556 S
C1964  C1966   1.415   .     A
C1967  N2001   1.437   .     S
C1967  C915    1.406   1_556 S
C1968  N2004   1.435   .     S
Cu1969 N1971   2.080   .     S
Cu1969 O1975   1.984   .     S
Cu1969 Cu1970  2.768   .     S
Cu1969 O1979   1.973   .     S
Cu1969 O1977   1.969   .     S
Cu1969 O1973   1.994   .     S
Cu1970 O1974   1.994   .     S
Cu1970 O1976   1.984   .     S
Cu1970 N1972   2.080   .     S
Cu1970 O1978   1.969   .     S
Cu1970 O1980   1.973   .     S
C1981  C1982   1.517   .     S
C1981  H1986   1.096   .     S
C1981  H1987   1.108   .     S
C1982  H1985   1.111   .     S
C1982  H1984   1.098   .     S
C1982  H1983   1.109   .     S
C1988  H1994   1.098   .     S
C1988  C1989   1.524   .     S
C1988  H1993   1.108   .     S
C1989  H1990   1.101   .     S
C1989  H1991   1.109   .     S
C1989  H1992   1.111   .     S
N1995  H1996   1.043   .     S
N1995  H1997   1.046   .     S
N1998  H2000   1.042   .     S
N1998  H1999   1.046   .     S
N2001  H2003   1.045   .     S
N2001  H2002   1.045   .     S
N2004  H2006   1.045   .     S
N2004  H2005   1.045   .     S
N2007  H2009   1.045   .     S
N2007  H2008   1.045   .     S
N2010  H2012   1.045   .     S
N2010  H2011   1.045   .     S
N2013  H2014   1.046   .     S
N2013  H2015   1.043   .     S
N2016  H2018   1.045   .     S
N2016  H2017   1.044   .     S
N2019  H2020   1.044   .     S
N2019  H2021   1.036   .     S
N2022  H2023   1.045   .     S
N2022  H2024   1.045   .     S
C2025  C2026   1.537   .     S
C2025  H2030   1.073   .     S
C2025  H2031   1.105   .     S
C2026  H2029   1.108   .     S
C2026  H2028   1.110   .     S
C2026  H2027   1.110   .     S
C2032  H2038   1.101   .     S
C2032  C2033   1.552   .     S
C2032  H2037   1.095   .     S
C2033  H2034   1.095   .     S
C2033  H2036   1.102   .     S
C2033  H2035   1.109   .     S
C2039  H2045   1.071   .     S
C2039  C2040   1.536   .     S
C2039  H2044   1.109   .     S
C2040  H2043   1.101   .     S
C2040  H2041   1.108   .     S
C2040  H2042   1.107   .     S
C2046  C2047   1.535   .     S
C2046  H2052   1.098   .     S
C2046  H2051   1.089   .     S
C2047  H2049   1.107   .     S
C2047  H2050   1.108   .     S
C2047  H2048   1.107   .     S
