data_str_m2_o1_o17_pcu_sym.120
_audit_creation_date              2020-01-03
_audit_creation_method            'Materials Studio'
_symmetry_space_group_name_H-M    'P1'
_symmetry_Int_Tables_number       1
_symmetry_cell_setting            triclinic
loop_
_symmetry_equiv_pos_as_xyz
  x,y,z
_cell_length_a                    32.3854
_cell_length_b                    28.5487
_cell_length_c                    30.1593
_cell_angle_alpha                 90.0329
_cell_angle_beta                  90.4027
_cell_angle_gamma                 90.1643
loop_
_atom_site_label
_atom_site_type_symbol
_atom_site_fract_x
_atom_site_fract_y
_atom_site_fract_z
_atom_site_U_iso_or_equiv
_atom_site_adp_type
_atom_site_occupancy
C1     C     0.08751   0.16659   0.24965   0.00000  Uiso   1.00
C2     C     0.24578   0.16674   0.24958   0.00000  Uiso   1.00
C3     C     0.16722   0.08128   0.02306   0.00000  Uiso   1.00
C4     C     0.16821   0.25204   0.47696   0.00000  Uiso   1.00
C5     C     0.02182   0.14780   0.28651   0.00000  Uiso   1.00
C6     C     0.31135   0.18427   0.21200   0.00000  Uiso   1.00
C7     C     0.31169   0.14793   0.28620   0.00000  Uiso   1.00
C8     C     0.02138   0.18447   0.21222   0.00000  Uiso   1.00
C9     C     0.29045   0.16695   0.24946   0.00000  Uiso   1.00
C10    C     0.04279   0.16624   0.24940   0.00000  Uiso   1.00
C11    C     0.14165   0.02471   0.22161   0.00000  Uiso   1.00
C12    C     0.19168   0.30862   0.27839   0.00000  Uiso   1.00
C13    C     0.19167   0.02491   0.27840   0.00000  Uiso   1.00
C14    C     0.14165   0.30842   0.22161   0.00000  Uiso   1.00
C15    C     0.16714   0.16665   0.16428   0.00000  Uiso   1.00
C16    C     0.16689   0.16668   0.33573   0.00000  Uiso   1.00
C17    C     0.16763   0.20928   0.40739   0.00000  Uiso   1.00
C18    C     0.16739   0.12404   0.09263   0.00000  Uiso   1.00
C19    C     0.16720   0.16668   0.38417   0.00000  Uiso   1.00
C20    C     0.16755   0.16664   0.11584   0.00000  Uiso   1.00
C21    C     0.16712   0.12406   0.40733   0.00000  Uiso   1.00
C22    C     0.16795   0.20926   0.09269   0.00000  Uiso   1.00
C23    C     0.16733   0.12375   0.45352   0.00000  Uiso   1.00
C24    C     0.16804   0.20957   0.04650   0.00000  Uiso   1.00
C25    C     0.16767   0.16666   0.47677   0.00000  Uiso   1.00
C26    C     0.16776   0.16666   0.02325   0.00000  Uiso   1.00
C27    C     0.16786   0.20958   0.45358   0.00000  Uiso   1.00
C28    C     0.16748   0.12374   0.04643   0.00000  Uiso   1.00
C29    C     0.16714   0.08128   0.47683   0.00000  Uiso   1.00
C30    C     0.16830   0.25203   0.02318   0.00000  Uiso   1.00
Cu31   Cu    0.16667   0.21355   0.25000   0.00000  Uiso   1.00
Cu32   Cu    0.16667   0.11978   0.25000   0.00000  Uiso   1.00
H33    H     0.16777   0.24227   0.38958   0.00000  Uiso   1.00
H34    H     0.16709   0.09105   0.11043   0.00000  Uiso   1.00
H35    H     0.16684   0.09108   0.38948   0.00000  Uiso   1.00
H36    H     0.16811   0.24224   0.11053   0.00000  Uiso   1.00
H37    H     0.16690   0.04812   0.45932   0.00000  Uiso   1.00
H38    H     0.16852   0.28519   0.04069   0.00000  Uiso   1.00
H39    H     0.16701   0.04811   0.04052   0.00000  Uiso   1.00
H40    H     0.16837   0.28521   0.45950   0.00000  Uiso   1.00
H41    H     0.12161   0.04334   0.19888   0.00000  Uiso   1.00
H42    H     0.21172   0.28999   0.30112   0.00000  Uiso   1.00
H43    H     0.21169   0.04370   0.30115   0.00000  Uiso   1.00
H44    H     0.12160   0.28963   0.19889   0.00000  Uiso   1.00
N45    N     0.16667   0.28402   0.25000   0.00000  Uiso   1.00
N46    N     0.16667   0.04931   0.25000   0.00000  Uiso   1.00
O47    O     0.10655   0.20625   0.25000   0.00000  Uiso   1.00
O48    O     0.22679   0.12709   0.25001   0.00000  Uiso   1.00
O49    O     0.22679   0.20625   0.25001   0.00000  Uiso   1.00
O50    O     0.10655   0.12709   0.25000   0.00000  Uiso   1.00
O51    O     0.16666   0.20627   0.18513   0.00000  Uiso   1.00
O52    O     0.16668   0.12707   0.31487   0.00000  Uiso   1.00
O53    O     0.16668   0.20627   0.31487   0.00000  Uiso   1.00
O54    O     0.16666   0.12707   0.18513   0.00000  Uiso   1.00
C55    C     0.04613   0.13267   0.32641   0.00000  Uiso   1.00
H56    H     0.07604   0.14832   0.33335   0.00000  Uiso   1.00
O57    O     0.03391   0.10210   0.35134   0.00000  Uiso   1.00
C58    C     0.28737   0.19941   0.17194   0.00000  Uiso   1.00
H59    H     0.25771   0.21643   0.17530   0.00000  Uiso   1.00
O60    O     0.29978   0.19138   0.13456   0.00000  Uiso   1.00
C61    C     0.28758   0.13137   0.32491   0.00000  Uiso   1.00
H62    H     0.26762   0.15558   0.34231   0.00000  Uiso   1.00
O63    O     0.28766   0.09010   0.33547   0.00000  Uiso   1.00
C64    C     0.04400   0.20506   0.17401   0.00000  Uiso   1.00
H65    H     0.03259   0.23667   0.15822   0.00000  Uiso   1.00
O66    O     0.07450   0.18606   0.15886   0.00000  Uiso   1.00
C67    C     0.42084   0.16659   0.24965   0.00000  Uiso   1.00
C68    C     0.57912   0.16674   0.24958   0.00000  Uiso   1.00
C69    C     0.50055   0.08128   0.02306   0.00000  Uiso   1.00
C70    C     0.50154   0.25204   0.47696   0.00000  Uiso   1.00
C71    C     0.35516   0.14780   0.28651   0.00000  Uiso   1.00
C72    C     0.64468   0.18427   0.21200   0.00000  Uiso   1.00
C73    C     0.64503   0.14793   0.28620   0.00000  Uiso   1.00
C74    C     0.35472   0.18447   0.21222   0.00000  Uiso   1.00
C75    C     0.62379   0.16695   0.24946   0.00000  Uiso   1.00
C76    C     0.37612   0.16624   0.24940   0.00000  Uiso   1.00
C77    C     0.47498   0.02471   0.22161   0.00000  Uiso   1.00
C78    C     0.52501   0.30862   0.27839   0.00000  Uiso   1.00
C79    C     0.52500   0.02491   0.27840   0.00000  Uiso   1.00
C80    C     0.47498   0.30842   0.22161   0.00000  Uiso   1.00
C81    C     0.50048   0.16665   0.16428   0.00000  Uiso   1.00
C82    C     0.50022   0.16668   0.33573   0.00000  Uiso   1.00
C83    C     0.50097   0.20928   0.40739   0.00000  Uiso   1.00
C84    C     0.50072   0.12404   0.09263   0.00000  Uiso   1.00
C85    C     0.50054   0.16668   0.38417   0.00000  Uiso   1.00
C86    C     0.50088   0.16664   0.11584   0.00000  Uiso   1.00
C87    C     0.50045   0.12406   0.40733   0.00000  Uiso   1.00
C88    C     0.50129   0.20926   0.09269   0.00000  Uiso   1.00
C89    C     0.50066   0.12375   0.45352   0.00000  Uiso   1.00
C90    C     0.50137   0.20957   0.04650   0.00000  Uiso   1.00
C91    C     0.50100   0.16666   0.47677   0.00000  Uiso   1.00
C92    C     0.50109   0.16666   0.02325   0.00000  Uiso   1.00
C93    C     0.50119   0.20958   0.45358   0.00000  Uiso   1.00
C94    C     0.50082   0.12374   0.04643   0.00000  Uiso   1.00
C95    C     0.50048   0.08128   0.47683   0.00000  Uiso   1.00
C96    C     0.50163   0.25203   0.02318   0.00000  Uiso   1.00
Cu97   Cu    0.50000   0.21355   0.25000   0.00000  Uiso   1.00
Cu98   Cu    0.50000   0.11978   0.25000   0.00000  Uiso   1.00
H99    H     0.50110   0.24227   0.38958   0.00000  Uiso   1.00
H100   H     0.50043   0.09105   0.11043   0.00000  Uiso   1.00
H101   H     0.50017   0.09108   0.38948   0.00000  Uiso   1.00
H102   H     0.50144   0.24224   0.11053   0.00000  Uiso   1.00
H103   H     0.50023   0.04812   0.45932   0.00000  Uiso   1.00
H104   H     0.50186   0.28519   0.04069   0.00000  Uiso   1.00
H105   H     0.50035   0.04811   0.04052   0.00000  Uiso   1.00
H106   H     0.50171   0.28521   0.45950   0.00000  Uiso   1.00
H107   H     0.45494   0.04334   0.19888   0.00000  Uiso   1.00
H108   H     0.54505   0.28999   0.30112   0.00000  Uiso   1.00
H109   H     0.54502   0.04370   0.30115   0.00000  Uiso   1.00
H110   H     0.45493   0.28963   0.19889   0.00000  Uiso   1.00
N111   N     0.50000   0.28402   0.25000   0.00000  Uiso   1.00
N112   N     0.50000   0.04931   0.25000   0.00000  Uiso   1.00
O113   O     0.43988   0.20625   0.25000   0.00000  Uiso   1.00
O114   O     0.56012   0.12709   0.25001   0.00000  Uiso   1.00
O115   O     0.56012   0.20625   0.25001   0.00000  Uiso   1.00
O116   O     0.43988   0.12709   0.25000   0.00000  Uiso   1.00
O117   O     0.49999   0.20627   0.18513   0.00000  Uiso   1.00
O118   O     0.50001   0.12707   0.31487   0.00000  Uiso   1.00
O119   O     0.50001   0.20627   0.31487   0.00000  Uiso   1.00
O120   O     0.49999   0.12707   0.18513   0.00000  Uiso   1.00
C121   C     0.37946   0.13267   0.32641   0.00000  Uiso   1.00
H122   H     0.40938   0.14832   0.33335   0.00000  Uiso   1.00
O123   O     0.36724   0.10210   0.35134   0.00000  Uiso   1.00
C124   C     0.62070   0.19941   0.17194   0.00000  Uiso   1.00
H125   H     0.59104   0.21643   0.17530   0.00000  Uiso   1.00
O126   O     0.63311   0.19138   0.13456   0.00000  Uiso   1.00
C127   C     0.62092   0.13137   0.32491   0.00000  Uiso   1.00
H128   H     0.60095   0.15558   0.34231   0.00000  Uiso   1.00
O129   O     0.62100   0.09010   0.33547   0.00000  Uiso   1.00
C130   C     0.37733   0.20506   0.17401   0.00000  Uiso   1.00
H131   H     0.36593   0.23667   0.15822   0.00000  Uiso   1.00
O132   O     0.40783   0.18606   0.15886   0.00000  Uiso   1.00
C133   C     0.75417   0.16659   0.24965   0.00000  Uiso   1.00
C134   C     0.91245   0.16674   0.24958   0.00000  Uiso   1.00
C135   C     0.83388   0.08128   0.02306   0.00000  Uiso   1.00
C136   C     0.83488   0.25204   0.47696   0.00000  Uiso   1.00
C137   C     0.68849   0.14780   0.28651   0.00000  Uiso   1.00
C138   C     0.97802   0.18427   0.21200   0.00000  Uiso   1.00
C139   C     0.97836   0.14793   0.28620   0.00000  Uiso   1.00
C140   C     0.68805   0.18447   0.21222   0.00000  Uiso   1.00
C141   C     0.95712   0.16695   0.24946   0.00000  Uiso   1.00
C142   C     0.70945   0.16624   0.24940   0.00000  Uiso   1.00
C143   C     0.80832   0.02471   0.22161   0.00000  Uiso   1.00
C144   C     0.85834   0.30862   0.27839   0.00000  Uiso   1.00
C145   C     0.85834   0.02491   0.27840   0.00000  Uiso   1.00
C146   C     0.80831   0.30842   0.22161   0.00000  Uiso   1.00
C147   C     0.83381   0.16665   0.16428   0.00000  Uiso   1.00
C148   C     0.83356   0.16668   0.33573   0.00000  Uiso   1.00
C149   C     0.83430   0.20928   0.40739   0.00000  Uiso   1.00
C150   C     0.83406   0.12404   0.09263   0.00000  Uiso   1.00
C151   C     0.83387   0.16668   0.38417   0.00000  Uiso   1.00
C152   C     0.83422   0.16664   0.11584   0.00000  Uiso   1.00
C153   C     0.83378   0.12406   0.40733   0.00000  Uiso   1.00
C154   C     0.83462   0.20926   0.09269   0.00000  Uiso   1.00
C155   C     0.83400   0.12375   0.45352   0.00000  Uiso   1.00
C156   C     0.83470   0.20957   0.04650   0.00000  Uiso   1.00
C157   C     0.83434   0.16666   0.47677   0.00000  Uiso   1.00
C158   C     0.83442   0.16666   0.02325   0.00000  Uiso   1.00
C159   C     0.83453   0.20958   0.45358   0.00000  Uiso   1.00
C160   C     0.83415   0.12374   0.04643   0.00000  Uiso   1.00
C161   C     0.83381   0.08128   0.47683   0.00000  Uiso   1.00
C162   C     0.83497   0.25203   0.02318   0.00000  Uiso   1.00
Cu163  Cu    0.83333   0.21355   0.25000   0.00000  Uiso   1.00
Cu164  Cu    0.83333   0.11978   0.25000   0.00000  Uiso   1.00
H165   H     0.83444   0.24227   0.38958   0.00000  Uiso   1.00
H166   H     0.83376   0.09105   0.11043   0.00000  Uiso   1.00
H167   H     0.83350   0.09108   0.38948   0.00000  Uiso   1.00
H168   H     0.83477   0.24224   0.11053   0.00000  Uiso   1.00
H169   H     0.83356   0.04812   0.45932   0.00000  Uiso   1.00
H170   H     0.83519   0.28519   0.04069   0.00000  Uiso   1.00
H171   H     0.83368   0.04811   0.04052   0.00000  Uiso   1.00
H172   H     0.83504   0.28521   0.45950   0.00000  Uiso   1.00
H173   H     0.78828   0.04334   0.19888   0.00000  Uiso   1.00
H174   H     0.87838   0.28999   0.30112   0.00000  Uiso   1.00
H175   H     0.87835   0.04370   0.30115   0.00000  Uiso   1.00
H176   H     0.78827   0.28963   0.19889   0.00000  Uiso   1.00
N177   N     0.83333   0.28402   0.25000   0.00000  Uiso   1.00
N178   N     0.83333   0.04931   0.25000   0.00000  Uiso   1.00
O179   O     0.77321   0.20625   0.25000   0.00000  Uiso   1.00
O180   O     0.89345   0.12709   0.25001   0.00000  Uiso   1.00
O181   O     0.89345   0.20625   0.25001   0.00000  Uiso   1.00
O182   O     0.77321   0.12709   0.25000   0.00000  Uiso   1.00
O183   O     0.83332   0.20627   0.18513   0.00000  Uiso   1.00
O184   O     0.83334   0.12707   0.31487   0.00000  Uiso   1.00
O185   O     0.83334   0.20627   0.31487   0.00000  Uiso   1.00
O186   O     0.83332   0.12707   0.18513   0.00000  Uiso   1.00
C187   C     0.71280   0.13267   0.32641   0.00000  Uiso   1.00
H188   H     0.74271   0.14832   0.33335   0.00000  Uiso   1.00
O189   O     0.70057   0.10210   0.35134   0.00000  Uiso   1.00
C190   C     0.95404   0.19941   0.17194   0.00000  Uiso   1.00
H191   H     0.92437   0.21643   0.17530   0.00000  Uiso   1.00
O192   O     0.96645   0.19138   0.13456   0.00000  Uiso   1.00
C193   C     0.95425   0.13137   0.32491   0.00000  Uiso   1.00
H194   H     0.93428   0.15558   0.34231   0.00000  Uiso   1.00
O195   O     0.95433   0.09010   0.33547   0.00000  Uiso   1.00
C196   C     0.71067   0.20506   0.17401   0.00000  Uiso   1.00
H197   H     0.69926   0.23667   0.15822   0.00000  Uiso   1.00
O198   O     0.74117   0.18606   0.15886   0.00000  Uiso   1.00
C199   C     0.08751   0.49993   0.24965   0.00000  Uiso   1.00
C200   C     0.24578   0.50008   0.24958   0.00000  Uiso   1.00
C201   C     0.16722   0.41461   0.02306   0.00000  Uiso   1.00
C202   C     0.16821   0.58537   0.47696   0.00000  Uiso   1.00
C203   C     0.02182   0.48114   0.28651   0.00000  Uiso   1.00
C204   C     0.31135   0.51760   0.21200   0.00000  Uiso   1.00
C205   C     0.31169   0.48127   0.28620   0.00000  Uiso   1.00
C206   C     0.02138   0.51780   0.21222   0.00000  Uiso   1.00
C207   C     0.29045   0.50028   0.24946   0.00000  Uiso   1.00
C208   C     0.04279   0.49958   0.24940   0.00000  Uiso   1.00
C209   C     0.14165   0.35804   0.22161   0.00000  Uiso   1.00
C210   C     0.19168   0.64196   0.27839   0.00000  Uiso   1.00
C211   C     0.19167   0.35824   0.27840   0.00000  Uiso   1.00
C212   C     0.14165   0.64175   0.22161   0.00000  Uiso   1.00
C213   C     0.16714   0.49999   0.16428   0.00000  Uiso   1.00
C214   C     0.16689   0.50001   0.33573   0.00000  Uiso   1.00
C215   C     0.16763   0.54262   0.40739   0.00000  Uiso   1.00
C216   C     0.16739   0.45737   0.09263   0.00000  Uiso   1.00
C217   C     0.16720   0.50001   0.38417   0.00000  Uiso   1.00
C218   C     0.16755   0.49998   0.11584   0.00000  Uiso   1.00
C219   C     0.16712   0.45739   0.40733   0.00000  Uiso   1.00
C220   C     0.16795   0.54259   0.09269   0.00000  Uiso   1.00
C221   C     0.16733   0.45708   0.45352   0.00000  Uiso   1.00
C222   C     0.16804   0.54290   0.04650   0.00000  Uiso   1.00
C223   C     0.16767   0.50000   0.47677   0.00000  Uiso   1.00
C224   C     0.16776   0.49999   0.02325   0.00000  Uiso   1.00
C225   C     0.16786   0.54291   0.45358   0.00000  Uiso   1.00
C226   C     0.16748   0.45707   0.04643   0.00000  Uiso   1.00
C227   C     0.16714   0.41462   0.47683   0.00000  Uiso   1.00
C228   C     0.16830   0.58537   0.02318   0.00000  Uiso   1.00
Cu229  Cu    0.16667   0.54689   0.25000   0.00000  Uiso   1.00
Cu230  Cu    0.16667   0.45311   0.25000   0.00000  Uiso   1.00
H231   H     0.16777   0.57561   0.38958   0.00000  Uiso   1.00
H232   H     0.16709   0.42438   0.11043   0.00000  Uiso   1.00
H233   H     0.16684   0.42441   0.38948   0.00000  Uiso   1.00
H234   H     0.16811   0.57558   0.11053   0.00000  Uiso   1.00
H235   H     0.16690   0.38146   0.45932   0.00000  Uiso   1.00
H236   H     0.16852   0.61853   0.04069   0.00000  Uiso   1.00
H237   H     0.16701   0.38144   0.04052   0.00000  Uiso   1.00
H238   H     0.16837   0.61854   0.45950   0.00000  Uiso   1.00
H239   H     0.12161   0.37667   0.19888   0.00000  Uiso   1.00
H240   H     0.21172   0.62333   0.30112   0.00000  Uiso   1.00
H241   H     0.21169   0.37703   0.30115   0.00000  Uiso   1.00
H242   H     0.12160   0.62296   0.19889   0.00000  Uiso   1.00
N243   N     0.16667   0.61736   0.25000   0.00000  Uiso   1.00
N244   N     0.16667   0.38264   0.25000   0.00000  Uiso   1.00
O245   O     0.10655   0.53958   0.25000   0.00000  Uiso   1.00
O246   O     0.22679   0.46042   0.25001   0.00000  Uiso   1.00
O247   O     0.22679   0.53958   0.25001   0.00000  Uiso   1.00
O248   O     0.10655   0.46042   0.25000   0.00000  Uiso   1.00
O249   O     0.16666   0.53960   0.18513   0.00000  Uiso   1.00
O250   O     0.16668   0.46040   0.31487   0.00000  Uiso   1.00
O251   O     0.16668   0.53960   0.31487   0.00000  Uiso   1.00
O252   O     0.16666   0.46040   0.18513   0.00000  Uiso   1.00
C253   C     0.04613   0.46601   0.32641   0.00000  Uiso   1.00
H254   H     0.07604   0.48165   0.33335   0.00000  Uiso   1.00
O255   O     0.03391   0.43543   0.35134   0.00000  Uiso   1.00
C256   C     0.28737   0.53274   0.17194   0.00000  Uiso   1.00
H257   H     0.25771   0.54976   0.17530   0.00000  Uiso   1.00
O258   O     0.29978   0.52472   0.13456   0.00000  Uiso   1.00
C259   C     0.28758   0.46470   0.32491   0.00000  Uiso   1.00
H260   H     0.26762   0.48891   0.34231   0.00000  Uiso   1.00
O261   O     0.28766   0.42344   0.33547   0.00000  Uiso   1.00
C262   C     0.04400   0.53839   0.17401   0.00000  Uiso   1.00
H263   H     0.03259   0.57000   0.15822   0.00000  Uiso   1.00
O264   O     0.07450   0.51939   0.15886   0.00000  Uiso   1.00
C265   C     0.42084   0.49993   0.24965   0.00000  Uiso   1.00
C266   C     0.57912   0.50008   0.24958   0.00000  Uiso   1.00
C267   C     0.50055   0.41461   0.02306   0.00000  Uiso   1.00
C268   C     0.50154   0.58537   0.47696   0.00000  Uiso   1.00
C269   C     0.35516   0.48114   0.28651   0.00000  Uiso   1.00
C270   C     0.64468   0.51760   0.21200   0.00000  Uiso   1.00
C271   C     0.64503   0.48127   0.28620   0.00000  Uiso   1.00
C272   C     0.35472   0.51780   0.21222   0.00000  Uiso   1.00
C273   C     0.62379   0.50028   0.24946   0.00000  Uiso   1.00
C274   C     0.37612   0.49958   0.24940   0.00000  Uiso   1.00
C275   C     0.47498   0.35804   0.22161   0.00000  Uiso   1.00
C276   C     0.52501   0.64196   0.27839   0.00000  Uiso   1.00
C277   C     0.52500   0.35824   0.27840   0.00000  Uiso   1.00
C278   C     0.47498   0.64175   0.22161   0.00000  Uiso   1.00
C279   C     0.50048   0.49999   0.16428   0.00000  Uiso   1.00
C280   C     0.50022   0.50001   0.33573   0.00000  Uiso   1.00
C281   C     0.50097   0.54262   0.40739   0.00000  Uiso   1.00
C282   C     0.50072   0.45737   0.09263   0.00000  Uiso   1.00
C283   C     0.50054   0.50001   0.38417   0.00000  Uiso   1.00
C284   C     0.50088   0.49998   0.11584   0.00000  Uiso   1.00
C285   C     0.50045   0.45739   0.40733   0.00000  Uiso   1.00
C286   C     0.50129   0.54259   0.09269   0.00000  Uiso   1.00
C287   C     0.50066   0.45708   0.45352   0.00000  Uiso   1.00
C288   C     0.50137   0.54290   0.04650   0.00000  Uiso   1.00
C289   C     0.50100   0.50000   0.47677   0.00000  Uiso   1.00
C290   C     0.50109   0.49999   0.02325   0.00000  Uiso   1.00
C291   C     0.50119   0.54291   0.45358   0.00000  Uiso   1.00
C292   C     0.50082   0.45707   0.04643   0.00000  Uiso   1.00
C293   C     0.50048   0.41462   0.47683   0.00000  Uiso   1.00
C294   C     0.50163   0.58537   0.02318   0.00000  Uiso   1.00
Cu295  Cu    0.50000   0.54689   0.25000   0.00000  Uiso   1.00
Cu296  Cu    0.50000   0.45311   0.25000   0.00000  Uiso   1.00
H297   H     0.50110   0.57561   0.38958   0.00000  Uiso   1.00
H298   H     0.50043   0.42438   0.11043   0.00000  Uiso   1.00
H299   H     0.50017   0.42441   0.38948   0.00000  Uiso   1.00
H300   H     0.50144   0.57558   0.11053   0.00000  Uiso   1.00
H301   H     0.50023   0.38146   0.45932   0.00000  Uiso   1.00
H302   H     0.50186   0.61853   0.04069   0.00000  Uiso   1.00
H303   H     0.50035   0.38144   0.04052   0.00000  Uiso   1.00
H304   H     0.50171   0.61854   0.45950   0.00000  Uiso   1.00
H305   H     0.45494   0.37667   0.19888   0.00000  Uiso   1.00
H306   H     0.54505   0.62333   0.30112   0.00000  Uiso   1.00
H307   H     0.54502   0.37703   0.30115   0.00000  Uiso   1.00
H308   H     0.45493   0.62296   0.19889   0.00000  Uiso   1.00
N309   N     0.50000   0.61736   0.25000   0.00000  Uiso   1.00
N310   N     0.50000   0.38264   0.25000   0.00000  Uiso   1.00
O311   O     0.43988   0.53958   0.25000   0.00000  Uiso   1.00
O312   O     0.56012   0.46042   0.25001   0.00000  Uiso   1.00
O313   O     0.56012   0.53958   0.25001   0.00000  Uiso   1.00
O314   O     0.43988   0.46042   0.25000   0.00000  Uiso   1.00
O315   O     0.49999   0.53960   0.18513   0.00000  Uiso   1.00
O316   O     0.50001   0.46040   0.31487   0.00000  Uiso   1.00
O317   O     0.50001   0.53960   0.31487   0.00000  Uiso   1.00
O318   O     0.49999   0.46040   0.18513   0.00000  Uiso   1.00
C319   C     0.37946   0.46601   0.32641   0.00000  Uiso   1.00
H320   H     0.40938   0.48165   0.33335   0.00000  Uiso   1.00
O321   O     0.36724   0.43543   0.35134   0.00000  Uiso   1.00
C322   C     0.62070   0.53274   0.17194   0.00000  Uiso   1.00
H323   H     0.59104   0.54976   0.17530   0.00000  Uiso   1.00
O324   O     0.63311   0.52472   0.13456   0.00000  Uiso   1.00
C325   C     0.62092   0.46470   0.32491   0.00000  Uiso   1.00
H326   H     0.60095   0.48891   0.34231   0.00000  Uiso   1.00
O327   O     0.62100   0.42344   0.33547   0.00000  Uiso   1.00
C328   C     0.37733   0.53839   0.17401   0.00000  Uiso   1.00
H329   H     0.36593   0.57000   0.15822   0.00000  Uiso   1.00
O330   O     0.40783   0.51939   0.15886   0.00000  Uiso   1.00
C331   C     0.75417   0.49993   0.24965   0.00000  Uiso   1.00
C332   C     0.91245   0.50008   0.24958   0.00000  Uiso   1.00
C333   C     0.83388   0.41461   0.02306   0.00000  Uiso   1.00
C334   C     0.83488   0.58537   0.47696   0.00000  Uiso   1.00
C335   C     0.68849   0.48114   0.28651   0.00000  Uiso   1.00
C336   C     0.97802   0.51760   0.21200   0.00000  Uiso   1.00
C337   C     0.97836   0.48127   0.28620   0.00000  Uiso   1.00
C338   C     0.68805   0.51780   0.21222   0.00000  Uiso   1.00
C339   C     0.95712   0.50028   0.24946   0.00000  Uiso   1.00
C340   C     0.70945   0.49958   0.24940   0.00000  Uiso   1.00
C341   C     0.80832   0.35804   0.22161   0.00000  Uiso   1.00
C342   C     0.85834   0.64196   0.27839   0.00000  Uiso   1.00
C343   C     0.85834   0.35824   0.27840   0.00000  Uiso   1.00
C344   C     0.80831   0.64175   0.22161   0.00000  Uiso   1.00
C345   C     0.83381   0.49999   0.16428   0.00000  Uiso   1.00
C346   C     0.83356   0.50001   0.33573   0.00000  Uiso   1.00
C347   C     0.83430   0.54262   0.40739   0.00000  Uiso   1.00
C348   C     0.83406   0.45737   0.09263   0.00000  Uiso   1.00
C349   C     0.83387   0.50001   0.38417   0.00000  Uiso   1.00
C350   C     0.83422   0.49998   0.11584   0.00000  Uiso   1.00
C351   C     0.83378   0.45739   0.40733   0.00000  Uiso   1.00
C352   C     0.83462   0.54259   0.09269   0.00000  Uiso   1.00
C353   C     0.83400   0.45708   0.45352   0.00000  Uiso   1.00
C354   C     0.83470   0.54290   0.04650   0.00000  Uiso   1.00
C355   C     0.83434   0.50000   0.47677   0.00000  Uiso   1.00
C356   C     0.83442   0.49999   0.02325   0.00000  Uiso   1.00
C357   C     0.83453   0.54291   0.45358   0.00000  Uiso   1.00
C358   C     0.83415   0.45707   0.04643   0.00000  Uiso   1.00
C359   C     0.83381   0.41462   0.47683   0.00000  Uiso   1.00
C360   C     0.83497   0.58537   0.02318   0.00000  Uiso   1.00
Cu361  Cu    0.83333   0.54689   0.25000   0.00000  Uiso   1.00
Cu362  Cu    0.83333   0.45311   0.25000   0.00000  Uiso   1.00
H363   H     0.83444   0.57561   0.38958   0.00000  Uiso   1.00
H364   H     0.83376   0.42438   0.11043   0.00000  Uiso   1.00
H365   H     0.83350   0.42441   0.38948   0.00000  Uiso   1.00
H366   H     0.83477   0.57558   0.11053   0.00000  Uiso   1.00
H367   H     0.83356   0.38146   0.45932   0.00000  Uiso   1.00
H368   H     0.83519   0.61853   0.04069   0.00000  Uiso   1.00
H369   H     0.83368   0.38144   0.04052   0.00000  Uiso   1.00
H370   H     0.83504   0.61854   0.45950   0.00000  Uiso   1.00
H371   H     0.78828   0.37667   0.19888   0.00000  Uiso   1.00
H372   H     0.87838   0.62333   0.30112   0.00000  Uiso   1.00
H373   H     0.87835   0.37703   0.30115   0.00000  Uiso   1.00
H374   H     0.78827   0.62296   0.19889   0.00000  Uiso   1.00
N375   N     0.83333   0.61736   0.25000   0.00000  Uiso   1.00
N376   N     0.83333   0.38264   0.25000   0.00000  Uiso   1.00
O377   O     0.77321   0.53958   0.25000   0.00000  Uiso   1.00
O378   O     0.89345   0.46042   0.25001   0.00000  Uiso   1.00
O379   O     0.89345   0.53958   0.25001   0.00000  Uiso   1.00
O380   O     0.77321   0.46042   0.25000   0.00000  Uiso   1.00
O381   O     0.83332   0.53960   0.18513   0.00000  Uiso   1.00
O382   O     0.83334   0.46040   0.31487   0.00000  Uiso   1.00
O383   O     0.83334   0.53960   0.31487   0.00000  Uiso   1.00
O384   O     0.83332   0.46040   0.18513   0.00000  Uiso   1.00
C385   C     0.71280   0.46601   0.32641   0.00000  Uiso   1.00
H386   H     0.74271   0.48165   0.33335   0.00000  Uiso   1.00
O387   O     0.70057   0.43543   0.35134   0.00000  Uiso   1.00
C388   C     0.95404   0.53274   0.17194   0.00000  Uiso   1.00
H389   H     0.92437   0.54976   0.17530   0.00000  Uiso   1.00
O390   O     0.96645   0.52472   0.13456   0.00000  Uiso   1.00
C391   C     0.95425   0.46470   0.32491   0.00000  Uiso   1.00
H392   H     0.93428   0.48891   0.34231   0.00000  Uiso   1.00
O393   O     0.95433   0.42344   0.33547   0.00000  Uiso   1.00
C394   C     0.71067   0.53839   0.17401   0.00000  Uiso   1.00
H395   H     0.69926   0.57000   0.15822   0.00000  Uiso   1.00
O396   O     0.74117   0.51939   0.15886   0.00000  Uiso   1.00
C397   C     0.08751   0.83326   0.24965   0.00000  Uiso   1.00
C398   C     0.24578   0.83341   0.24958   0.00000  Uiso   1.00
C399   C     0.16722   0.74794   0.02306   0.00000  Uiso   1.00
C400   C     0.16821   0.91871   0.47696   0.00000  Uiso   1.00
C401   C     0.02182   0.81447   0.28651   0.00000  Uiso   1.00
C402   C     0.31135   0.85093   0.21200   0.00000  Uiso   1.00
C403   C     0.31169   0.81460   0.28620   0.00000  Uiso   1.00
C404   C     0.02138   0.85114   0.21222   0.00000  Uiso   1.00
C405   C     0.29045   0.83361   0.24946   0.00000  Uiso   1.00
C406   C     0.04279   0.83291   0.24940   0.00000  Uiso   1.00
C407   C     0.14165   0.69138   0.22161   0.00000  Uiso   1.00
C408   C     0.19168   0.97529   0.27839   0.00000  Uiso   1.00
C409   C     0.19167   0.69158   0.27840   0.00000  Uiso   1.00
C410   C     0.14165   0.97509   0.22161   0.00000  Uiso   1.00
C411   C     0.16714   0.83332   0.16428   0.00000  Uiso   1.00
C412   C     0.16689   0.83334   0.33573   0.00000  Uiso   1.00
C413   C     0.16763   0.87595   0.40739   0.00000  Uiso   1.00
C414   C     0.16739   0.79070   0.09263   0.00000  Uiso   1.00
C415   C     0.16720   0.83334   0.38417   0.00000  Uiso   1.00
C416   C     0.16755   0.83331   0.11584   0.00000  Uiso   1.00
C417   C     0.16712   0.79073   0.40733   0.00000  Uiso   1.00
C418   C     0.16795   0.87592   0.09269   0.00000  Uiso   1.00
C419   C     0.16733   0.79042   0.45352   0.00000  Uiso   1.00
C420   C     0.16804   0.87623   0.04650   0.00000  Uiso   1.00
C421   C     0.16767   0.83333   0.47677   0.00000  Uiso   1.00
C422   C     0.16776   0.83332   0.02325   0.00000  Uiso   1.00
C423   C     0.16786   0.87625   0.45358   0.00000  Uiso   1.00
C424   C     0.16748   0.79040   0.04643   0.00000  Uiso   1.00
C425   C     0.16714   0.74795   0.47683   0.00000  Uiso   1.00
C426   C     0.16830   0.91870   0.02318   0.00000  Uiso   1.00
Cu427  Cu    0.16667   0.88022   0.25000   0.00000  Uiso   1.00
Cu428  Cu    0.16667   0.78645   0.25000   0.00000  Uiso   1.00
H429   H     0.16777   0.90894   0.38958   0.00000  Uiso   1.00
H430   H     0.16709   0.75771   0.11043   0.00000  Uiso   1.00
H431   H     0.16684   0.75774   0.38948   0.00000  Uiso   1.00
H432   H     0.16811   0.90891   0.11053   0.00000  Uiso   1.00
H433   H     0.16690   0.71479   0.45932   0.00000  Uiso   1.00
H434   H     0.16852   0.95186   0.04069   0.00000  Uiso   1.00
H435   H     0.16701   0.71478   0.04052   0.00000  Uiso   1.00
H436   H     0.16837   0.95187   0.45950   0.00000  Uiso   1.00
H437   H     0.12161   0.71001   0.19888   0.00000  Uiso   1.00
H438   H     0.21172   0.95666   0.30112   0.00000  Uiso   1.00
H439   H     0.21169   0.71036   0.30115   0.00000  Uiso   1.00
H440   H     0.12160   0.95629   0.19889   0.00000  Uiso   1.00
N441   N     0.16667   0.95069   0.25000   0.00000  Uiso   1.00
N442   N     0.16667   0.71598   0.25000   0.00000  Uiso   1.00
O443   O     0.10655   0.87291   0.25000   0.00000  Uiso   1.00
O444   O     0.22679   0.79375   0.25001   0.00000  Uiso   1.00
O445   O     0.22679   0.87291   0.25001   0.00000  Uiso   1.00
O446   O     0.10655   0.79375   0.25000   0.00000  Uiso   1.00
O447   O     0.16666   0.87293   0.18513   0.00000  Uiso   1.00
O448   O     0.16668   0.79373   0.31487   0.00000  Uiso   1.00
O449   O     0.16668   0.87293   0.31487   0.00000  Uiso   1.00
O450   O     0.16666   0.79373   0.18513   0.00000  Uiso   1.00
C451   C     0.04613   0.79934   0.32641   0.00000  Uiso   1.00
H452   H     0.07604   0.81498   0.33335   0.00000  Uiso   1.00
O453   O     0.03391   0.76876   0.35134   0.00000  Uiso   1.00
C454   C     0.28737   0.86607   0.17194   0.00000  Uiso   1.00
H455   H     0.25771   0.88309   0.17530   0.00000  Uiso   1.00
O456   O     0.29978   0.85805   0.13456   0.00000  Uiso   1.00
C457   C     0.28758   0.79804   0.32491   0.00000  Uiso   1.00
H458   H     0.26762   0.82225   0.34231   0.00000  Uiso   1.00
O459   O     0.28766   0.75677   0.33547   0.00000  Uiso   1.00
C460   C     0.04400   0.87172   0.17401   0.00000  Uiso   1.00
H461   H     0.03259   0.90334   0.15822   0.00000  Uiso   1.00
O462   O     0.07450   0.85272   0.15886   0.00000  Uiso   1.00
C463   C     0.42084   0.83326   0.24965   0.00000  Uiso   1.00
C464   C     0.57912   0.83341   0.24958   0.00000  Uiso   1.00
C465   C     0.50055   0.74794   0.02306   0.00000  Uiso   1.00
C466   C     0.50154   0.91871   0.47696   0.00000  Uiso   1.00
C467   C     0.35516   0.81447   0.28651   0.00000  Uiso   1.00
C468   C     0.64468   0.85093   0.21200   0.00000  Uiso   1.00
C469   C     0.64503   0.81460   0.28620   0.00000  Uiso   1.00
C470   C     0.35472   0.85114   0.21222   0.00000  Uiso   1.00
C471   C     0.62379   0.83361   0.24946   0.00000  Uiso   1.00
C472   C     0.37612   0.83291   0.24940   0.00000  Uiso   1.00
C473   C     0.47498   0.69138   0.22161   0.00000  Uiso   1.00
C474   C     0.52501   0.97529   0.27839   0.00000  Uiso   1.00
C475   C     0.52500   0.69158   0.27840   0.00000  Uiso   1.00
C476   C     0.47498   0.97509   0.22161   0.00000  Uiso   1.00
C477   C     0.50048   0.83332   0.16428   0.00000  Uiso   1.00
C478   C     0.50022   0.83334   0.33573   0.00000  Uiso   1.00
C479   C     0.50097   0.87595   0.40739   0.00000  Uiso   1.00
C480   C     0.50072   0.79070   0.09263   0.00000  Uiso   1.00
C481   C     0.50054   0.83334   0.38417   0.00000  Uiso   1.00
C482   C     0.50088   0.83331   0.11584   0.00000  Uiso   1.00
C483   C     0.50045   0.79073   0.40733   0.00000  Uiso   1.00
C484   C     0.50129   0.87592   0.09269   0.00000  Uiso   1.00
C485   C     0.50066   0.79042   0.45352   0.00000  Uiso   1.00
C486   C     0.50137   0.87623   0.04650   0.00000  Uiso   1.00
C487   C     0.50100   0.83333   0.47677   0.00000  Uiso   1.00
C488   C     0.50109   0.83332   0.02325   0.00000  Uiso   1.00
C489   C     0.50119   0.87625   0.45358   0.00000  Uiso   1.00
C490   C     0.50082   0.79040   0.04643   0.00000  Uiso   1.00
C491   C     0.50048   0.74795   0.47683   0.00000  Uiso   1.00
C492   C     0.50163   0.91870   0.02318   0.00000  Uiso   1.00
Cu493  Cu    0.50000   0.88022   0.25000   0.00000  Uiso   1.00
Cu494  Cu    0.50000   0.78645   0.25000   0.00000  Uiso   1.00
H495   H     0.50110   0.90894   0.38958   0.00000  Uiso   1.00
H496   H     0.50043   0.75771   0.11043   0.00000  Uiso   1.00
H497   H     0.50017   0.75774   0.38948   0.00000  Uiso   1.00
H498   H     0.50144   0.90891   0.11053   0.00000  Uiso   1.00
H499   H     0.50023   0.71479   0.45932   0.00000  Uiso   1.00
H500   H     0.50186   0.95186   0.04069   0.00000  Uiso   1.00
H501   H     0.50035   0.71478   0.04052   0.00000  Uiso   1.00
H502   H     0.50171   0.95187   0.45950   0.00000  Uiso   1.00
H503   H     0.45494   0.71001   0.19888   0.00000  Uiso   1.00
H504   H     0.54505   0.95666   0.30112   0.00000  Uiso   1.00
H505   H     0.54502   0.71036   0.30115   0.00000  Uiso   1.00
H506   H     0.45493   0.95629   0.19889   0.00000  Uiso   1.00
N507   N     0.50000   0.95069   0.25000   0.00000  Uiso   1.00
N508   N     0.50000   0.71598   0.25000   0.00000  Uiso   1.00
O509   O     0.43988   0.87291   0.25000   0.00000  Uiso   1.00
O510   O     0.56012   0.79375   0.25001   0.00000  Uiso   1.00
O511   O     0.56012   0.87291   0.25001   0.00000  Uiso   1.00
O512   O     0.43988   0.79375   0.25000   0.00000  Uiso   1.00
O513   O     0.49999   0.87293   0.18513   0.00000  Uiso   1.00
O514   O     0.50001   0.79373   0.31487   0.00000  Uiso   1.00
O515   O     0.50001   0.87293   0.31487   0.00000  Uiso   1.00
O516   O     0.49999   0.79373   0.18513   0.00000  Uiso   1.00
C517   C     0.37946   0.79934   0.32641   0.00000  Uiso   1.00
H518   H     0.40938   0.81498   0.33335   0.00000  Uiso   1.00
O519   O     0.36724   0.76876   0.35134   0.00000  Uiso   1.00
C520   C     0.62070   0.86607   0.17194   0.00000  Uiso   1.00
H521   H     0.59104   0.88309   0.17530   0.00000  Uiso   1.00
O522   O     0.63311   0.85805   0.13456   0.00000  Uiso   1.00
C523   C     0.62092   0.79804   0.32491   0.00000  Uiso   1.00
H524   H     0.60095   0.82225   0.34231   0.00000  Uiso   1.00
O525   O     0.62100   0.75677   0.33547   0.00000  Uiso   1.00
C526   C     0.37733   0.87172   0.17401   0.00000  Uiso   1.00
H527   H     0.36593   0.90334   0.15822   0.00000  Uiso   1.00
O528   O     0.40783   0.85272   0.15886   0.00000  Uiso   1.00
C529   C     0.75417   0.83326   0.24965   0.00000  Uiso   1.00
C530   C     0.91245   0.83341   0.24958   0.00000  Uiso   1.00
C531   C     0.83388   0.74794   0.02306   0.00000  Uiso   1.00
C532   C     0.83488   0.91871   0.47696   0.00000  Uiso   1.00
C533   C     0.68849   0.81447   0.28651   0.00000  Uiso   1.00
C534   C     0.97802   0.85093   0.21200   0.00000  Uiso   1.00
C535   C     0.97836   0.81460   0.28620   0.00000  Uiso   1.00
C536   C     0.68805   0.85114   0.21222   0.00000  Uiso   1.00
C537   C     0.95712   0.83361   0.24946   0.00000  Uiso   1.00
C538   C     0.70945   0.83291   0.24940   0.00000  Uiso   1.00
C539   C     0.80832   0.69138   0.22161   0.00000  Uiso   1.00
C540   C     0.85834   0.97529   0.27839   0.00000  Uiso   1.00
C541   C     0.85834   0.69158   0.27840   0.00000  Uiso   1.00
C542   C     0.80831   0.97509   0.22161   0.00000  Uiso   1.00
C543   C     0.83381   0.83332   0.16428   0.00000  Uiso   1.00
C544   C     0.83356   0.83334   0.33573   0.00000  Uiso   1.00
C545   C     0.83430   0.87595   0.40739   0.00000  Uiso   1.00
C546   C     0.83406   0.79070   0.09263   0.00000  Uiso   1.00
C547   C     0.83387   0.83334   0.38417   0.00000  Uiso   1.00
C548   C     0.83422   0.83331   0.11584   0.00000  Uiso   1.00
C549   C     0.83378   0.79073   0.40733   0.00000  Uiso   1.00
C550   C     0.83462   0.87592   0.09269   0.00000  Uiso   1.00
C551   C     0.83400   0.79042   0.45352   0.00000  Uiso   1.00
C552   C     0.83470   0.87623   0.04650   0.00000  Uiso   1.00
C553   C     0.83434   0.83333   0.47677   0.00000  Uiso   1.00
C554   C     0.83442   0.83332   0.02325   0.00000  Uiso   1.00
C555   C     0.83453   0.87625   0.45358   0.00000  Uiso   1.00
C556   C     0.83415   0.79040   0.04643   0.00000  Uiso   1.00
C557   C     0.83381   0.74795   0.47683   0.00000  Uiso   1.00
C558   C     0.83497   0.91870   0.02318   0.00000  Uiso   1.00
Cu559  Cu    0.83333   0.88022   0.25000   0.00000  Uiso   1.00
Cu560  Cu    0.83333   0.78645   0.25000   0.00000  Uiso   1.00
H561   H     0.83444   0.90894   0.38958   0.00000  Uiso   1.00
H562   H     0.83376   0.75771   0.11043   0.00000  Uiso   1.00
H563   H     0.83350   0.75774   0.38948   0.00000  Uiso   1.00
H564   H     0.83477   0.90891   0.11053   0.00000  Uiso   1.00
H565   H     0.83356   0.71479   0.45932   0.00000  Uiso   1.00
H566   H     0.83519   0.95186   0.04069   0.00000  Uiso   1.00
H567   H     0.83368   0.71478   0.04052   0.00000  Uiso   1.00
H568   H     0.83504   0.95187   0.45950   0.00000  Uiso   1.00
H569   H     0.78828   0.71001   0.19888   0.00000  Uiso   1.00
H570   H     0.87838   0.95666   0.30112   0.00000  Uiso   1.00
H571   H     0.87835   0.71036   0.30115   0.00000  Uiso   1.00
H572   H     0.78827   0.95629   0.19889   0.00000  Uiso   1.00
N573   N     0.83333   0.95069   0.25000   0.00000  Uiso   1.00
N574   N     0.83333   0.71598   0.25000   0.00000  Uiso   1.00
O575   O     0.77321   0.87291   0.25000   0.00000  Uiso   1.00
O576   O     0.89345   0.79375   0.25001   0.00000  Uiso   1.00
O577   O     0.89345   0.87291   0.25001   0.00000  Uiso   1.00
O578   O     0.77321   0.79375   0.25000   0.00000  Uiso   1.00
O579   O     0.83332   0.87293   0.18513   0.00000  Uiso   1.00
O580   O     0.83334   0.79373   0.31487   0.00000  Uiso   1.00
O581   O     0.83334   0.87293   0.31487   0.00000  Uiso   1.00
O582   O     0.83332   0.79373   0.18513   0.00000  Uiso   1.00
C583   C     0.71280   0.79934   0.32641   0.00000  Uiso   1.00
H584   H     0.74271   0.81498   0.33335   0.00000  Uiso   1.00
O585   O     0.70057   0.76876   0.35134   0.00000  Uiso   1.00
C586   C     0.95404   0.86607   0.17194   0.00000  Uiso   1.00
H587   H     0.92437   0.88309   0.17530   0.00000  Uiso   1.00
O588   O     0.96645   0.85805   0.13456   0.00000  Uiso   1.00
C589   C     0.95425   0.79804   0.32491   0.00000  Uiso   1.00
H590   H     0.93428   0.82225   0.34231   0.00000  Uiso   1.00
O591   O     0.95433   0.75677   0.33547   0.00000  Uiso   1.00
C592   C     0.71067   0.87172   0.17401   0.00000  Uiso   1.00
H593   H     0.69926   0.90334   0.15822   0.00000  Uiso   1.00
O594   O     0.74117   0.85272   0.15886   0.00000  Uiso   1.00
C595   C     0.08751   0.16659   0.74965   0.00000  Uiso   1.00
C596   C     0.24578   0.16674   0.74958   0.00000  Uiso   1.00
C597   C     0.16722   0.08128   0.52306   0.00000  Uiso   1.00
C598   C     0.16821   0.25204   0.97696   0.00000  Uiso   1.00
C599   C     0.02182   0.14780   0.78651   0.00000  Uiso   1.00
C600   C     0.31135   0.18427   0.71200   0.00000  Uiso   1.00
C601   C     0.31169   0.14793   0.78620   0.00000  Uiso   1.00
C602   C     0.02138   0.18447   0.71222   0.00000  Uiso   1.00
C603   C     0.29045   0.16695   0.74946   0.00000  Uiso   1.00
C604   C     0.04279   0.16624   0.74940   0.00000  Uiso   1.00
C605   C     0.14165   0.02471   0.72161   0.00000  Uiso   1.00
C606   C     0.19168   0.30862   0.77839   0.00000  Uiso   1.00
C607   C     0.19167   0.02491   0.77840   0.00000  Uiso   1.00
C608   C     0.14165   0.30842   0.72161   0.00000  Uiso   1.00
C609   C     0.16714   0.16665   0.66428   0.00000  Uiso   1.00
C610   C     0.16689   0.16668   0.83573   0.00000  Uiso   1.00
C611   C     0.16763   0.20928   0.90739   0.00000  Uiso   1.00
C612   C     0.16739   0.12404   0.59263   0.00000  Uiso   1.00
C613   C     0.16720   0.16668   0.88417   0.00000  Uiso   1.00
C614   C     0.16755   0.16664   0.61584   0.00000  Uiso   1.00
C615   C     0.16712   0.12406   0.90733   0.00000  Uiso   1.00
C616   C     0.16795   0.20926   0.59269   0.00000  Uiso   1.00
C617   C     0.16733   0.12375   0.95352   0.00000  Uiso   1.00
C618   C     0.16804   0.20957   0.54650   0.00000  Uiso   1.00
C619   C     0.16767   0.16666   0.97677   0.00000  Uiso   1.00
C620   C     0.16776   0.16666   0.52325   0.00000  Uiso   1.00
C621   C     0.16786   0.20958   0.95358   0.00000  Uiso   1.00
C622   C     0.16748   0.12374   0.54643   0.00000  Uiso   1.00
C623   C     0.16714   0.08128   0.97683   0.00000  Uiso   1.00
C624   C     0.16830   0.25203   0.52318   0.00000  Uiso   1.00
Cu625  Cu    0.16667   0.21355   0.75000   0.00000  Uiso   1.00
Cu626  Cu    0.16667   0.11978   0.75000   0.00000  Uiso   1.00
H627   H     0.16777   0.24227   0.88958   0.00000  Uiso   1.00
H628   H     0.16709   0.09105   0.61043   0.00000  Uiso   1.00
H629   H     0.16684   0.09108   0.88948   0.00000  Uiso   1.00
H630   H     0.16811   0.24224   0.61053   0.00000  Uiso   1.00
H631   H     0.16690   0.04812   0.95932   0.00000  Uiso   1.00
H632   H     0.16852   0.28519   0.54069   0.00000  Uiso   1.00
H633   H     0.16701   0.04811   0.54052   0.00000  Uiso   1.00
H634   H     0.16837   0.28521   0.95950   0.00000  Uiso   1.00
H635   H     0.12161   0.04334   0.69888   0.00000  Uiso   1.00
H636   H     0.21172   0.28999   0.80112   0.00000  Uiso   1.00
H637   H     0.21169   0.04370   0.80115   0.00000  Uiso   1.00
H638   H     0.12160   0.28963   0.69889   0.00000  Uiso   1.00
N639   N     0.16667   0.28402   0.75000   0.00000  Uiso   1.00
N640   N     0.16667   0.04931   0.75000   0.00000  Uiso   1.00
O641   O     0.10655   0.20625   0.75000   0.00000  Uiso   1.00
O642   O     0.22679   0.12709   0.75001   0.00000  Uiso   1.00
O643   O     0.22679   0.20625   0.75001   0.00000  Uiso   1.00
O644   O     0.10655   0.12709   0.75000   0.00000  Uiso   1.00
O645   O     0.16666   0.20627   0.68513   0.00000  Uiso   1.00
O646   O     0.16668   0.12707   0.81487   0.00000  Uiso   1.00
O647   O     0.16668   0.20627   0.81487   0.00000  Uiso   1.00
O648   O     0.16666   0.12707   0.68513   0.00000  Uiso   1.00
C649   C     0.04613   0.13267   0.82641   0.00000  Uiso   1.00
H650   H     0.07604   0.14832   0.83335   0.00000  Uiso   1.00
O651   O     0.03391   0.10210   0.85134   0.00000  Uiso   1.00
C652   C     0.28737   0.19941   0.67194   0.00000  Uiso   1.00
H653   H     0.25771   0.21643   0.67530   0.00000  Uiso   1.00
O654   O     0.29978   0.19138   0.63456   0.00000  Uiso   1.00
C655   C     0.28758   0.13137   0.82491   0.00000  Uiso   1.00
H656   H     0.26762   0.15558   0.84231   0.00000  Uiso   1.00
O657   O     0.28766   0.09010   0.83547   0.00000  Uiso   1.00
C658   C     0.04400   0.20506   0.67401   0.00000  Uiso   1.00
H659   H     0.03259   0.23667   0.65822   0.00000  Uiso   1.00
O660   O     0.07450   0.18606   0.65886   0.00000  Uiso   1.00
C661   C     0.42084   0.16659   0.74965   0.00000  Uiso   1.00
C662   C     0.57912   0.16674   0.74958   0.00000  Uiso   1.00
C663   C     0.50055   0.08128   0.52306   0.00000  Uiso   1.00
C664   C     0.50154   0.25204   0.97696   0.00000  Uiso   1.00
C665   C     0.35516   0.14780   0.78651   0.00000  Uiso   1.00
C666   C     0.64468   0.18427   0.71200   0.00000  Uiso   1.00
C667   C     0.64503   0.14793   0.78620   0.00000  Uiso   1.00
C668   C     0.35472   0.18447   0.71222   0.00000  Uiso   1.00
C669   C     0.62379   0.16695   0.74946   0.00000  Uiso   1.00
C670   C     0.37612   0.16624   0.74940   0.00000  Uiso   1.00
C671   C     0.47498   0.02471   0.72161   0.00000  Uiso   1.00
C672   C     0.52501   0.30862   0.77839   0.00000  Uiso   1.00
C673   C     0.52500   0.02491   0.77840   0.00000  Uiso   1.00
C674   C     0.47498   0.30842   0.72161   0.00000  Uiso   1.00
C675   C     0.50048   0.16665   0.66428   0.00000  Uiso   1.00
C676   C     0.50022   0.16668   0.83573   0.00000  Uiso   1.00
C677   C     0.50097   0.20928   0.90739   0.00000  Uiso   1.00
C678   C     0.50072   0.12404   0.59263   0.00000  Uiso   1.00
C679   C     0.50054   0.16668   0.88417   0.00000  Uiso   1.00
C680   C     0.50088   0.16664   0.61584   0.00000  Uiso   1.00
C681   C     0.50045   0.12406   0.90733   0.00000  Uiso   1.00
C682   C     0.50129   0.20926   0.59269   0.00000  Uiso   1.00
C683   C     0.50066   0.12375   0.95352   0.00000  Uiso   1.00
C684   C     0.50137   0.20957   0.54650   0.00000  Uiso   1.00
C685   C     0.50100   0.16666   0.97677   0.00000  Uiso   1.00
C686   C     0.50109   0.16666   0.52325   0.00000  Uiso   1.00
C687   C     0.50119   0.20958   0.95358   0.00000  Uiso   1.00
C688   C     0.50082   0.12374   0.54643   0.00000  Uiso   1.00
C689   C     0.50048   0.08128   0.97683   0.00000  Uiso   1.00
C690   C     0.50163   0.25203   0.52318   0.00000  Uiso   1.00
Cu691  Cu    0.50000   0.21355   0.75000   0.00000  Uiso   1.00
Cu692  Cu    0.50000   0.11978   0.75000   0.00000  Uiso   1.00
H693   H     0.50110   0.24227   0.88958   0.00000  Uiso   1.00
H694   H     0.50043   0.09105   0.61043   0.00000  Uiso   1.00
H695   H     0.50017   0.09108   0.88948   0.00000  Uiso   1.00
H696   H     0.50144   0.24224   0.61053   0.00000  Uiso   1.00
H697   H     0.50023   0.04812   0.95932   0.00000  Uiso   1.00
H698   H     0.50186   0.28519   0.54069   0.00000  Uiso   1.00
H699   H     0.50035   0.04811   0.54052   0.00000  Uiso   1.00
H700   H     0.50171   0.28521   0.95950   0.00000  Uiso   1.00
H701   H     0.45494   0.04334   0.69888   0.00000  Uiso   1.00
H702   H     0.54505   0.28999   0.80112   0.00000  Uiso   1.00
H703   H     0.54502   0.04370   0.80115   0.00000  Uiso   1.00
H704   H     0.45493   0.28963   0.69889   0.00000  Uiso   1.00
N705   N     0.50000   0.28402   0.75000   0.00000  Uiso   1.00
N706   N     0.50000   0.04931   0.75000   0.00000  Uiso   1.00
O707   O     0.43988   0.20625   0.75000   0.00000  Uiso   1.00
O708   O     0.56012   0.12709   0.75001   0.00000  Uiso   1.00
O709   O     0.56012   0.20625   0.75001   0.00000  Uiso   1.00
O710   O     0.43988   0.12709   0.75000   0.00000  Uiso   1.00
O711   O     0.49999   0.20627   0.68513   0.00000  Uiso   1.00
O712   O     0.50001   0.12707   0.81487   0.00000  Uiso   1.00
O713   O     0.50001   0.20627   0.81487   0.00000  Uiso   1.00
O714   O     0.49999   0.12707   0.68513   0.00000  Uiso   1.00
C715   C     0.37946   0.13267   0.82641   0.00000  Uiso   1.00
H716   H     0.40938   0.14832   0.83335   0.00000  Uiso   1.00
O717   O     0.36724   0.10210   0.85134   0.00000  Uiso   1.00
C718   C     0.62070   0.19941   0.67194   0.00000  Uiso   1.00
H719   H     0.59104   0.21643   0.67530   0.00000  Uiso   1.00
O720   O     0.63311   0.19138   0.63456   0.00000  Uiso   1.00
C721   C     0.62092   0.13137   0.82491   0.00000  Uiso   1.00
H722   H     0.60095   0.15558   0.84231   0.00000  Uiso   1.00
O723   O     0.62100   0.09010   0.83547   0.00000  Uiso   1.00
C724   C     0.37733   0.20506   0.67401   0.00000  Uiso   1.00
H725   H     0.36593   0.23667   0.65822   0.00000  Uiso   1.00
O726   O     0.40783   0.18606   0.65886   0.00000  Uiso   1.00
C727   C     0.75417   0.16659   0.74965   0.00000  Uiso   1.00
C728   C     0.91245   0.16674   0.74958   0.00000  Uiso   1.00
C729   C     0.83388   0.08128   0.52306   0.00000  Uiso   1.00
C730   C     0.83488   0.25204   0.97696   0.00000  Uiso   1.00
C731   C     0.68849   0.14780   0.78651   0.00000  Uiso   1.00
C732   C     0.97802   0.18427   0.71200   0.00000  Uiso   1.00
C733   C     0.97836   0.14793   0.78620   0.00000  Uiso   1.00
C734   C     0.68805   0.18447   0.71222   0.00000  Uiso   1.00
C735   C     0.95712   0.16695   0.74946   0.00000  Uiso   1.00
C736   C     0.70945   0.16624   0.74940   0.00000  Uiso   1.00
C737   C     0.80832   0.02471   0.72161   0.00000  Uiso   1.00
C738   C     0.85834   0.30862   0.77839   0.00000  Uiso   1.00
C739   C     0.85834   0.02491   0.77840   0.00000  Uiso   1.00
C740   C     0.80831   0.30842   0.72161   0.00000  Uiso   1.00
C741   C     0.83381   0.16665   0.66428   0.00000  Uiso   1.00
C742   C     0.83356   0.16668   0.83573   0.00000  Uiso   1.00
C743   C     0.83430   0.20928   0.90739   0.00000  Uiso   1.00
C744   C     0.83406   0.12404   0.59263   0.00000  Uiso   1.00
C745   C     0.83387   0.16668   0.88417   0.00000  Uiso   1.00
C746   C     0.83422   0.16664   0.61584   0.00000  Uiso   1.00
C747   C     0.83378   0.12406   0.90733   0.00000  Uiso   1.00
C748   C     0.83462   0.20926   0.59269   0.00000  Uiso   1.00
C749   C     0.83400   0.12375   0.95352   0.00000  Uiso   1.00
C750   C     0.83470   0.20957   0.54650   0.00000  Uiso   1.00
C751   C     0.83434   0.16666   0.97677   0.00000  Uiso   1.00
C752   C     0.83442   0.16666   0.52325   0.00000  Uiso   1.00
C753   C     0.83453   0.20958   0.95358   0.00000  Uiso   1.00
C754   C     0.83415   0.12374   0.54643   0.00000  Uiso   1.00
C755   C     0.83381   0.08128   0.97683   0.00000  Uiso   1.00
C756   C     0.83497   0.25203   0.52318   0.00000  Uiso   1.00
Cu757  Cu    0.83333   0.21355   0.75000   0.00000  Uiso   1.00
Cu758  Cu    0.83333   0.11978   0.75000   0.00000  Uiso   1.00
H759   H     0.83444   0.24227   0.88958   0.00000  Uiso   1.00
H760   H     0.83376   0.09105   0.61043   0.00000  Uiso   1.00
H761   H     0.83350   0.09108   0.88948   0.00000  Uiso   1.00
H762   H     0.83477   0.24224   0.61053   0.00000  Uiso   1.00
H763   H     0.83356   0.04812   0.95932   0.00000  Uiso   1.00
H764   H     0.83519   0.28519   0.54069   0.00000  Uiso   1.00
H765   H     0.83368   0.04811   0.54052   0.00000  Uiso   1.00
H766   H     0.83504   0.28521   0.95950   0.00000  Uiso   1.00
H767   H     0.78828   0.04334   0.69888   0.00000  Uiso   1.00
H768   H     0.87838   0.28999   0.80112   0.00000  Uiso   1.00
H769   H     0.87835   0.04370   0.80115   0.00000  Uiso   1.00
H770   H     0.78827   0.28963   0.69889   0.00000  Uiso   1.00
N771   N     0.83333   0.28402   0.75000   0.00000  Uiso   1.00
N772   N     0.83333   0.04931   0.75000   0.00000  Uiso   1.00
O773   O     0.77321   0.20625   0.75000   0.00000  Uiso   1.00
O774   O     0.89345   0.12709   0.75001   0.00000  Uiso   1.00
O775   O     0.89345   0.20625   0.75001   0.00000  Uiso   1.00
O776   O     0.77321   0.12709   0.75000   0.00000  Uiso   1.00
O777   O     0.83332   0.20627   0.68513   0.00000  Uiso   1.00
O778   O     0.83334   0.12707   0.81487   0.00000  Uiso   1.00
O779   O     0.83334   0.20627   0.81487   0.00000  Uiso   1.00
O780   O     0.83332   0.12707   0.68513   0.00000  Uiso   1.00
C781   C     0.71280   0.13267   0.82641   0.00000  Uiso   1.00
H782   H     0.74271   0.14832   0.83335   0.00000  Uiso   1.00
O783   O     0.70057   0.10210   0.85134   0.00000  Uiso   1.00
C784   C     0.95404   0.19941   0.67194   0.00000  Uiso   1.00
H785   H     0.92437   0.21643   0.67530   0.00000  Uiso   1.00
O786   O     0.96645   0.19138   0.63456   0.00000  Uiso   1.00
C787   C     0.95425   0.13137   0.82491   0.00000  Uiso   1.00
H788   H     0.93428   0.15558   0.84231   0.00000  Uiso   1.00
O789   O     0.95433   0.09010   0.83547   0.00000  Uiso   1.00
C790   C     0.71067   0.20506   0.67401   0.00000  Uiso   1.00
H791   H     0.69926   0.23667   0.65822   0.00000  Uiso   1.00
O792   O     0.74117   0.18606   0.65886   0.00000  Uiso   1.00
C793   C     0.08751   0.49993   0.74965   0.00000  Uiso   1.00
C794   C     0.24578   0.50008   0.74958   0.00000  Uiso   1.00
C795   C     0.16722   0.41461   0.52306   0.00000  Uiso   1.00
C796   C     0.16821   0.58537   0.97696   0.00000  Uiso   1.00
C797   C     0.02182   0.48114   0.78651   0.00000  Uiso   1.00
C798   C     0.31135   0.51760   0.71200   0.00000  Uiso   1.00
C799   C     0.31169   0.48127   0.78620   0.00000  Uiso   1.00
C800   C     0.02138   0.51780   0.71222   0.00000  Uiso   1.00
C801   C     0.29045   0.50028   0.74946   0.00000  Uiso   1.00
C802   C     0.04279   0.49958   0.74940   0.00000  Uiso   1.00
C803   C     0.14165   0.35804   0.72161   0.00000  Uiso   1.00
C804   C     0.19168   0.64196   0.77839   0.00000  Uiso   1.00
C805   C     0.19167   0.35824   0.77840   0.00000  Uiso   1.00
C806   C     0.14165   0.64175   0.72161   0.00000  Uiso   1.00
C807   C     0.16714   0.49999   0.66428   0.00000  Uiso   1.00
C808   C     0.16689   0.50001   0.83573   0.00000  Uiso   1.00
C809   C     0.16763   0.54262   0.90739   0.00000  Uiso   1.00
C810   C     0.16739   0.45737   0.59263   0.00000  Uiso   1.00
C811   C     0.16720   0.50001   0.88417   0.00000  Uiso   1.00
C812   C     0.16755   0.49998   0.61584   0.00000  Uiso   1.00
C813   C     0.16712   0.45739   0.90733   0.00000  Uiso   1.00
C814   C     0.16795   0.54259   0.59269   0.00000  Uiso   1.00
C815   C     0.16733   0.45708   0.95352   0.00000  Uiso   1.00
C816   C     0.16804   0.54290   0.54650   0.00000  Uiso   1.00
C817   C     0.16767   0.50000   0.97677   0.00000  Uiso   1.00
C818   C     0.16776   0.49999   0.52325   0.00000  Uiso   1.00
C819   C     0.16786   0.54291   0.95358   0.00000  Uiso   1.00
C820   C     0.16748   0.45707   0.54643   0.00000  Uiso   1.00
C821   C     0.16714   0.41462   0.97683   0.00000  Uiso   1.00
C822   C     0.16830   0.58537   0.52318   0.00000  Uiso   1.00
Cu823  Cu    0.16667   0.54689   0.75000   0.00000  Uiso   1.00
Cu824  Cu    0.16667   0.45311   0.75000   0.00000  Uiso   1.00
H825   H     0.16777   0.57561   0.88958   0.00000  Uiso   1.00
H826   H     0.16709   0.42438   0.61043   0.00000  Uiso   1.00
H827   H     0.16684   0.42441   0.88948   0.00000  Uiso   1.00
H828   H     0.16811   0.57558   0.61053   0.00000  Uiso   1.00
H829   H     0.16690   0.38146   0.95932   0.00000  Uiso   1.00
H830   H     0.16852   0.61853   0.54069   0.00000  Uiso   1.00
H831   H     0.16701   0.38144   0.54052   0.00000  Uiso   1.00
H832   H     0.16837   0.61854   0.95950   0.00000  Uiso   1.00
H833   H     0.12161   0.37667   0.69888   0.00000  Uiso   1.00
H834   H     0.21172   0.62333   0.80112   0.00000  Uiso   1.00
H835   H     0.21169   0.37703   0.80115   0.00000  Uiso   1.00
H836   H     0.12160   0.62296   0.69889   0.00000  Uiso   1.00
N837   N     0.16667   0.61736   0.75000   0.00000  Uiso   1.00
N838   N     0.16667   0.38264   0.75000   0.00000  Uiso   1.00
O839   O     0.10655   0.53958   0.75000   0.00000  Uiso   1.00
O840   O     0.22679   0.46042   0.75001   0.00000  Uiso   1.00
O841   O     0.22679   0.53958   0.75001   0.00000  Uiso   1.00
O842   O     0.10655   0.46042   0.75000   0.00000  Uiso   1.00
O843   O     0.16666   0.53960   0.68513   0.00000  Uiso   1.00
O844   O     0.16668   0.46040   0.81487   0.00000  Uiso   1.00
O845   O     0.16668   0.53960   0.81487   0.00000  Uiso   1.00
O846   O     0.16666   0.46040   0.68513   0.00000  Uiso   1.00
C847   C     0.04613   0.46601   0.82641   0.00000  Uiso   1.00
H848   H     0.07604   0.48165   0.83335   0.00000  Uiso   1.00
O849   O     0.03391   0.43543   0.85134   0.00000  Uiso   1.00
C850   C     0.28737   0.53274   0.67194   0.00000  Uiso   1.00
H851   H     0.25771   0.54976   0.67530   0.00000  Uiso   1.00
O852   O     0.29978   0.52472   0.63456   0.00000  Uiso   1.00
C853   C     0.28758   0.46470   0.82491   0.00000  Uiso   1.00
H854   H     0.26762   0.48891   0.84231   0.00000  Uiso   1.00
O855   O     0.28766   0.42344   0.83547   0.00000  Uiso   1.00
C856   C     0.04400   0.53839   0.67401   0.00000  Uiso   1.00
H857   H     0.03259   0.57000   0.65822   0.00000  Uiso   1.00
O858   O     0.07450   0.51939   0.65886   0.00000  Uiso   1.00
C859   C     0.42084   0.49993   0.74965   0.00000  Uiso   1.00
C860   C     0.57912   0.50008   0.74958   0.00000  Uiso   1.00
C861   C     0.50055   0.41461   0.52306   0.00000  Uiso   1.00
C862   C     0.50154   0.58537   0.97696   0.00000  Uiso   1.00
C863   C     0.35516   0.48114   0.78651   0.00000  Uiso   1.00
C864   C     0.64468   0.51760   0.71200   0.00000  Uiso   1.00
C865   C     0.64503   0.48127   0.78620   0.00000  Uiso   1.00
C866   C     0.35472   0.51780   0.71222   0.00000  Uiso   1.00
C867   C     0.62379   0.50028   0.74946   0.00000  Uiso   1.00
C868   C     0.37612   0.49958   0.74940   0.00000  Uiso   1.00
C869   C     0.47498   0.35804   0.72161   0.00000  Uiso   1.00
C870   C     0.52501   0.64196   0.77839   0.00000  Uiso   1.00
C871   C     0.52500   0.35824   0.77840   0.00000  Uiso   1.00
C872   C     0.47498   0.64175   0.72161   0.00000  Uiso   1.00
C873   C     0.50048   0.49999   0.66428   0.00000  Uiso   1.00
C874   C     0.50022   0.50001   0.83573   0.00000  Uiso   1.00
C875   C     0.50097   0.54262   0.90739   0.00000  Uiso   1.00
C876   C     0.50072   0.45737   0.59263   0.00000  Uiso   1.00
C877   C     0.50054   0.50001   0.88417   0.00000  Uiso   1.00
C878   C     0.50088   0.49998   0.61584   0.00000  Uiso   1.00
C879   C     0.50045   0.45739   0.90733   0.00000  Uiso   1.00
C880   C     0.50129   0.54259   0.59269   0.00000  Uiso   1.00
C881   C     0.50066   0.45708   0.95352   0.00000  Uiso   1.00
C882   C     0.50137   0.54290   0.54650   0.00000  Uiso   1.00
C883   C     0.50100   0.50000   0.97677   0.00000  Uiso   1.00
C884   C     0.50109   0.49999   0.52325   0.00000  Uiso   1.00
C885   C     0.50119   0.54291   0.95358   0.00000  Uiso   1.00
C886   C     0.50082   0.45707   0.54643   0.00000  Uiso   1.00
C887   C     0.50048   0.41462   0.97683   0.00000  Uiso   1.00
C888   C     0.50163   0.58537   0.52318   0.00000  Uiso   1.00
Cu889  Cu    0.50000   0.54689   0.75000   0.00000  Uiso   1.00
Cu890  Cu    0.50000   0.45311   0.75000   0.00000  Uiso   1.00
H891   H     0.50110   0.57561   0.88958   0.00000  Uiso   1.00
H892   H     0.50043   0.42438   0.61043   0.00000  Uiso   1.00
H893   H     0.50017   0.42441   0.88948   0.00000  Uiso   1.00
H894   H     0.50144   0.57558   0.61053   0.00000  Uiso   1.00
H895   H     0.50023   0.38146   0.95932   0.00000  Uiso   1.00
H896   H     0.50186   0.61853   0.54069   0.00000  Uiso   1.00
H897   H     0.50035   0.38144   0.54052   0.00000  Uiso   1.00
H898   H     0.50171   0.61854   0.95950   0.00000  Uiso   1.00
H899   H     0.45494   0.37667   0.69888   0.00000  Uiso   1.00
H900   H     0.54505   0.62333   0.80112   0.00000  Uiso   1.00
H901   H     0.54502   0.37703   0.80115   0.00000  Uiso   1.00
H902   H     0.45493   0.62296   0.69889   0.00000  Uiso   1.00
N903   N     0.50000   0.61736   0.75000   0.00000  Uiso   1.00
N904   N     0.50000   0.38264   0.75000   0.00000  Uiso   1.00
O905   O     0.43988   0.53958   0.75000   0.00000  Uiso   1.00
O906   O     0.56012   0.46042   0.75001   0.00000  Uiso   1.00
O907   O     0.56012   0.53958   0.75001   0.00000  Uiso   1.00
O908   O     0.43988   0.46042   0.75000   0.00000  Uiso   1.00
O909   O     0.49999   0.53960   0.68513   0.00000  Uiso   1.00
O910   O     0.50001   0.46040   0.81487   0.00000  Uiso   1.00
O911   O     0.50001   0.53960   0.81487   0.00000  Uiso   1.00
O912   O     0.49999   0.46040   0.68513   0.00000  Uiso   1.00
C913   C     0.37946   0.46601   0.82641   0.00000  Uiso   1.00
H914   H     0.40938   0.48165   0.83335   0.00000  Uiso   1.00
O915   O     0.36724   0.43543   0.85134   0.00000  Uiso   1.00
C916   C     0.62070   0.53274   0.67194   0.00000  Uiso   1.00
H917   H     0.59104   0.54976   0.67530   0.00000  Uiso   1.00
O918   O     0.63311   0.52472   0.63456   0.00000  Uiso   1.00
C919   C     0.62092   0.46470   0.82491   0.00000  Uiso   1.00
H920   H     0.60095   0.48891   0.84231   0.00000  Uiso   1.00
O921   O     0.62100   0.42344   0.83547   0.00000  Uiso   1.00
C922   C     0.37733   0.53839   0.67401   0.00000  Uiso   1.00
H923   H     0.36593   0.57000   0.65822   0.00000  Uiso   1.00
O924   O     0.40783   0.51939   0.65886   0.00000  Uiso   1.00
C925   C     0.75417   0.49993   0.74965   0.00000  Uiso   1.00
C926   C     0.91245   0.50008   0.74958   0.00000  Uiso   1.00
C927   C     0.83388   0.41461   0.52306   0.00000  Uiso   1.00
C928   C     0.83488   0.58537   0.97696   0.00000  Uiso   1.00
C929   C     0.68849   0.48114   0.78651   0.00000  Uiso   1.00
C930   C     0.97802   0.51760   0.71200   0.00000  Uiso   1.00
C931   C     0.97836   0.48127   0.78620   0.00000  Uiso   1.00
C932   C     0.68805   0.51780   0.71222   0.00000  Uiso   1.00
C933   C     0.95712   0.50028   0.74946   0.00000  Uiso   1.00
C934   C     0.70945   0.49958   0.74940   0.00000  Uiso   1.00
C935   C     0.80832   0.35804   0.72161   0.00000  Uiso   1.00
C936   C     0.85834   0.64196   0.77839   0.00000  Uiso   1.00
C937   C     0.85834   0.35824   0.77840   0.00000  Uiso   1.00
C938   C     0.80831   0.64175   0.72161   0.00000  Uiso   1.00
C939   C     0.83381   0.49999   0.66428   0.00000  Uiso   1.00
C940   C     0.83356   0.50001   0.83573   0.00000  Uiso   1.00
C941   C     0.83430   0.54262   0.90739   0.00000  Uiso   1.00
C942   C     0.83406   0.45737   0.59263   0.00000  Uiso   1.00
C943   C     0.83387   0.50001   0.88417   0.00000  Uiso   1.00
C944   C     0.83422   0.49998   0.61584   0.00000  Uiso   1.00
C945   C     0.83378   0.45739   0.90733   0.00000  Uiso   1.00
C946   C     0.83462   0.54259   0.59269   0.00000  Uiso   1.00
C947   C     0.83400   0.45708   0.95352   0.00000  Uiso   1.00
C948   C     0.83470   0.54290   0.54650   0.00000  Uiso   1.00
C949   C     0.83434   0.50000   0.97677   0.00000  Uiso   1.00
C950   C     0.83442   0.49999   0.52325   0.00000  Uiso   1.00
C951   C     0.83453   0.54291   0.95358   0.00000  Uiso   1.00
C952   C     0.83415   0.45707   0.54643   0.00000  Uiso   1.00
C953   C     0.83381   0.41462   0.97683   0.00000  Uiso   1.00
C954   C     0.83497   0.58537   0.52318   0.00000  Uiso   1.00
Cu955  Cu    0.83333   0.54689   0.75000   0.00000  Uiso   1.00
Cu956  Cu    0.83333   0.45311   0.75000   0.00000  Uiso   1.00
H957   H     0.83444   0.57561   0.88958   0.00000  Uiso   1.00
H958   H     0.83376   0.42438   0.61043   0.00000  Uiso   1.00
H959   H     0.83350   0.42441   0.88948   0.00000  Uiso   1.00
H960   H     0.83477   0.57558   0.61053   0.00000  Uiso   1.00
H961   H     0.83356   0.38146   0.95932   0.00000  Uiso   1.00
H962   H     0.83519   0.61853   0.54069   0.00000  Uiso   1.00
H963   H     0.83368   0.38144   0.54052   0.00000  Uiso   1.00
H964   H     0.83504   0.61854   0.95950   0.00000  Uiso   1.00
H965   H     0.78828   0.37667   0.69888   0.00000  Uiso   1.00
H966   H     0.87838   0.62333   0.80112   0.00000  Uiso   1.00
H967   H     0.87835   0.37703   0.80115   0.00000  Uiso   1.00
H968   H     0.78827   0.62296   0.69889   0.00000  Uiso   1.00
N969   N     0.83333   0.61736   0.75000   0.00000  Uiso   1.00
N970   N     0.83333   0.38264   0.75000   0.00000  Uiso   1.00
O971   O     0.77321   0.53958   0.75000   0.00000  Uiso   1.00
O972   O     0.89345   0.46042   0.75001   0.00000  Uiso   1.00
O973   O     0.89345   0.53958   0.75001   0.00000  Uiso   1.00
O974   O     0.77321   0.46042   0.75000   0.00000  Uiso   1.00
O975   O     0.83332   0.53960   0.68513   0.00000  Uiso   1.00
O976   O     0.83334   0.46040   0.81487   0.00000  Uiso   1.00
O977   O     0.83334   0.53960   0.81487   0.00000  Uiso   1.00
O978   O     0.83332   0.46040   0.68513   0.00000  Uiso   1.00
C979   C     0.71280   0.46601   0.82641   0.00000  Uiso   1.00
H980   H     0.74271   0.48165   0.83335   0.00000  Uiso   1.00
O981   O     0.70057   0.43543   0.85134   0.00000  Uiso   1.00
C982   C     0.95404   0.53274   0.67194   0.00000  Uiso   1.00
H983   H     0.92437   0.54976   0.67530   0.00000  Uiso   1.00
O984   O     0.96645   0.52472   0.63456   0.00000  Uiso   1.00
C985   C     0.95425   0.46470   0.82491   0.00000  Uiso   1.00
H986   H     0.93428   0.48891   0.84231   0.00000  Uiso   1.00
O987   O     0.95433   0.42344   0.83547   0.00000  Uiso   1.00
C988   C     0.71067   0.53839   0.67401   0.00000  Uiso   1.00
H989   H     0.69926   0.57000   0.65822   0.00000  Uiso   1.00
O990   O     0.74117   0.51939   0.65886   0.00000  Uiso   1.00
C991   C     0.08751   0.83326   0.74965   0.00000  Uiso   1.00
C992   C     0.24578   0.83341   0.74958   0.00000  Uiso   1.00
C993   C     0.16722   0.74794   0.52306   0.00000  Uiso   1.00
C994   C     0.16821   0.91871   0.97696   0.00000  Uiso   1.00
C995   C     0.02182   0.81447   0.78651   0.00000  Uiso   1.00
C996   C     0.31135   0.85093   0.71200   0.00000  Uiso   1.00
C997   C     0.31169   0.81460   0.78620   0.00000  Uiso   1.00
C998   C     0.02138   0.85114   0.71222   0.00000  Uiso   1.00
C999   C     0.29045   0.83361   0.74946   0.00000  Uiso   1.00
C1000  C     0.04279   0.83291   0.74940   0.00000  Uiso   1.00
C1001  C     0.14165   0.69138   0.72161   0.00000  Uiso   1.00
C1002  C     0.19168   0.97529   0.77839   0.00000  Uiso   1.00
C1003  C     0.19167   0.69158   0.77840   0.00000  Uiso   1.00
C1004  C     0.14165   0.97509   0.72161   0.00000  Uiso   1.00
C1005  C     0.16714   0.83332   0.66428   0.00000  Uiso   1.00
C1006  C     0.16689   0.83334   0.83573   0.00000  Uiso   1.00
C1007  C     0.16763   0.87595   0.90739   0.00000  Uiso   1.00
C1008  C     0.16739   0.79070   0.59263   0.00000  Uiso   1.00
C1009  C     0.16720   0.83334   0.88417   0.00000  Uiso   1.00
C1010  C     0.16755   0.83331   0.61584   0.00000  Uiso   1.00
C1011  C     0.16712   0.79073   0.90733   0.00000  Uiso   1.00
C1012  C     0.16795   0.87592   0.59269   0.00000  Uiso   1.00
C1013  C     0.16733   0.79042   0.95352   0.00000  Uiso   1.00
C1014  C     0.16804   0.87623   0.54650   0.00000  Uiso   1.00
C1015  C     0.16767   0.83333   0.97677   0.00000  Uiso   1.00
C1016  C     0.16776   0.83332   0.52325   0.00000  Uiso   1.00
C1017  C     0.16786   0.87625   0.95358   0.00000  Uiso   1.00
C1018  C     0.16748   0.79040   0.54643   0.00000  Uiso   1.00
C1019  C     0.16714   0.74795   0.97683   0.00000  Uiso   1.00
C1020  C     0.16830   0.91870   0.52318   0.00000  Uiso   1.00
Cu1021 Cu    0.16667   0.88022   0.75000   0.00000  Uiso   1.00
Cu1022 Cu    0.16667   0.78645   0.75000   0.00000  Uiso   1.00
H1023  H     0.16777   0.90894   0.88958   0.00000  Uiso   1.00
H1024  H     0.16709   0.75771   0.61043   0.00000  Uiso   1.00
H1025  H     0.16684   0.75774   0.88948   0.00000  Uiso   1.00
H1026  H     0.16811   0.90891   0.61053   0.00000  Uiso   1.00
H1027  H     0.16690   0.71479   0.95932   0.00000  Uiso   1.00
H1028  H     0.16852   0.95186   0.54069   0.00000  Uiso   1.00
H1029  H     0.16701   0.71478   0.54052   0.00000  Uiso   1.00
H1030  H     0.16837   0.95187   0.95950   0.00000  Uiso   1.00
H1031  H     0.12161   0.71001   0.69888   0.00000  Uiso   1.00
H1032  H     0.21172   0.95666   0.80112   0.00000  Uiso   1.00
H1033  H     0.21169   0.71036   0.80115   0.00000  Uiso   1.00
H1034  H     0.12160   0.95629   0.69889   0.00000  Uiso   1.00
N1035  N     0.16667   0.95069   0.75000   0.00000  Uiso   1.00
N1036  N     0.16667   0.71598   0.75000   0.00000  Uiso   1.00
O1037  O     0.10655   0.87291   0.75000   0.00000  Uiso   1.00
O1038  O     0.22679   0.79375   0.75001   0.00000  Uiso   1.00
O1039  O     0.22679   0.87291   0.75001   0.00000  Uiso   1.00
O1040  O     0.10655   0.79375   0.75000   0.00000  Uiso   1.00
O1041  O     0.16666   0.87293   0.68513   0.00000  Uiso   1.00
O1042  O     0.16668   0.79373   0.81487   0.00000  Uiso   1.00
O1043  O     0.16668   0.87293   0.81487   0.00000  Uiso   1.00
O1044  O     0.16666   0.79373   0.68513   0.00000  Uiso   1.00
C1045  C     0.04613   0.79934   0.82641   0.00000  Uiso   1.00
H1046  H     0.07604   0.81498   0.83335   0.00000  Uiso   1.00
O1047  O     0.03391   0.76876   0.85134   0.00000  Uiso   1.00
C1048  C     0.28737   0.86607   0.67194   0.00000  Uiso   1.00
H1049  H     0.25771   0.88309   0.67530   0.00000  Uiso   1.00
O1050  O     0.29978   0.85805   0.63456   0.00000  Uiso   1.00
C1051  C     0.28758   0.79804   0.82491   0.00000  Uiso   1.00
H1052  H     0.26762   0.82225   0.84231   0.00000  Uiso   1.00
O1053  O     0.28766   0.75677   0.83547   0.00000  Uiso   1.00
C1054  C     0.04400   0.87172   0.67401   0.00000  Uiso   1.00
H1055  H     0.03259   0.90334   0.65822   0.00000  Uiso   1.00
O1056  O     0.07450   0.85272   0.65886   0.00000  Uiso   1.00
C1057  C     0.42084   0.83326   0.74965   0.00000  Uiso   1.00
C1058  C     0.57912   0.83341   0.74958   0.00000  Uiso   1.00
C1059  C     0.50055   0.74794   0.52306   0.00000  Uiso   1.00
C1060  C     0.50154   0.91871   0.97696   0.00000  Uiso   1.00
C1061  C     0.35516   0.81447   0.78651   0.00000  Uiso   1.00
C1062  C     0.64468   0.85093   0.71200   0.00000  Uiso   1.00
C1063  C     0.64503   0.81460   0.78620   0.00000  Uiso   1.00
C1064  C     0.35472   0.85114   0.71222   0.00000  Uiso   1.00
C1065  C     0.62379   0.83361   0.74946   0.00000  Uiso   1.00
C1066  C     0.37612   0.83291   0.74940   0.00000  Uiso   1.00
C1067  C     0.47498   0.69138   0.72161   0.00000  Uiso   1.00
C1068  C     0.52501   0.97529   0.77839   0.00000  Uiso   1.00
C1069  C     0.52500   0.69158   0.77840   0.00000  Uiso   1.00
C1070  C     0.47498   0.97509   0.72161   0.00000  Uiso   1.00
C1071  C     0.50048   0.83332   0.66428   0.00000  Uiso   1.00
C1072  C     0.50022   0.83334   0.83573   0.00000  Uiso   1.00
C1073  C     0.50097   0.87595   0.90739   0.00000  Uiso   1.00
C1074  C     0.50072   0.79070   0.59263   0.00000  Uiso   1.00
C1075  C     0.50054   0.83334   0.88417   0.00000  Uiso   1.00
C1076  C     0.50088   0.83331   0.61584   0.00000  Uiso   1.00
C1077  C     0.50045   0.79073   0.90733   0.00000  Uiso   1.00
C1078  C     0.50129   0.87592   0.59269   0.00000  Uiso   1.00
C1079  C     0.50066   0.79042   0.95352   0.00000  Uiso   1.00
C1080  C     0.50137   0.87623   0.54650   0.00000  Uiso   1.00
C1081  C     0.50100   0.83333   0.97677   0.00000  Uiso   1.00
C1082  C     0.50109   0.83332   0.52325   0.00000  Uiso   1.00
C1083  C     0.50119   0.87625   0.95358   0.00000  Uiso   1.00
C1084  C     0.50082   0.79040   0.54643   0.00000  Uiso   1.00
C1085  C     0.50048   0.74795   0.97683   0.00000  Uiso   1.00
C1086  C     0.50163   0.91870   0.52318   0.00000  Uiso   1.00
Cu1087 Cu    0.50000   0.88022   0.75000   0.00000  Uiso   1.00
Cu1088 Cu    0.50000   0.78645   0.75000   0.00000  Uiso   1.00
H1089  H     0.50110   0.90894   0.88958   0.00000  Uiso   1.00
H1090  H     0.50043   0.75771   0.61043   0.00000  Uiso   1.00
H1091  H     0.50017   0.75774   0.88948   0.00000  Uiso   1.00
H1092  H     0.50144   0.90891   0.61053   0.00000  Uiso   1.00
H1093  H     0.50023   0.71479   0.95932   0.00000  Uiso   1.00
H1094  H     0.50186   0.95186   0.54069   0.00000  Uiso   1.00
H1095  H     0.50035   0.71478   0.54052   0.00000  Uiso   1.00
H1096  H     0.50171   0.95187   0.95950   0.00000  Uiso   1.00
H1097  H     0.45494   0.71001   0.69888   0.00000  Uiso   1.00
H1098  H     0.54505   0.95666   0.80112   0.00000  Uiso   1.00
H1099  H     0.54502   0.71036   0.80115   0.00000  Uiso   1.00
H1100  H     0.45493   0.95629   0.69889   0.00000  Uiso   1.00
N1101  N     0.50000   0.95069   0.75000   0.00000  Uiso   1.00
N1102  N     0.50000   0.71598   0.75000   0.00000  Uiso   1.00
O1103  O     0.43988   0.87291   0.75000   0.00000  Uiso   1.00
O1104  O     0.56012   0.79375   0.75001   0.00000  Uiso   1.00
O1105  O     0.56012   0.87291   0.75001   0.00000  Uiso   1.00
O1106  O     0.43988   0.79375   0.75000   0.00000  Uiso   1.00
O1107  O     0.49999   0.87293   0.68513   0.00000  Uiso   1.00
O1108  O     0.50001   0.79373   0.81487   0.00000  Uiso   1.00
O1109  O     0.50001   0.87293   0.81487   0.00000  Uiso   1.00
O1110  O     0.49999   0.79373   0.68513   0.00000  Uiso   1.00
C1111  C     0.37946   0.79934   0.82641   0.00000  Uiso   1.00
H1112  H     0.40938   0.81498   0.83335   0.00000  Uiso   1.00
O1113  O     0.36724   0.76876   0.85134   0.00000  Uiso   1.00
C1114  C     0.62070   0.86607   0.67194   0.00000  Uiso   1.00
H1115  H     0.59104   0.88309   0.67530   0.00000  Uiso   1.00
O1116  O     0.63311   0.85805   0.63456   0.00000  Uiso   1.00
C1117  C     0.62092   0.79804   0.82491   0.00000  Uiso   1.00
H1118  H     0.60095   0.82225   0.84231   0.00000  Uiso   1.00
O1119  O     0.62100   0.75677   0.83547   0.00000  Uiso   1.00
C1120  C     0.37733   0.87172   0.67401   0.00000  Uiso   1.00
H1121  H     0.36593   0.90334   0.65822   0.00000  Uiso   1.00
O1122  O     0.40783   0.85272   0.65886   0.00000  Uiso   1.00
C1123  C     0.75417   0.83326   0.74965   0.00000  Uiso   1.00
C1124  C     0.91245   0.83341   0.74958   0.00000  Uiso   1.00
C1125  C     0.83388   0.74794   0.52306   0.00000  Uiso   1.00
C1126  C     0.83488   0.91871   0.97696   0.00000  Uiso   1.00
C1127  C     0.68849   0.81447   0.78651   0.00000  Uiso   1.00
C1128  C     0.97802   0.85093   0.71200   0.00000  Uiso   1.00
C1129  C     0.97836   0.81460   0.78620   0.00000  Uiso   1.00
C1130  C     0.68805   0.85114   0.71222   0.00000  Uiso   1.00
C1131  C     0.95712   0.83361   0.74946   0.00000  Uiso   1.00
C1132  C     0.70945   0.83291   0.74940   0.00000  Uiso   1.00
C1133  C     0.80832   0.69138   0.72161   0.00000  Uiso   1.00
C1134  C     0.85834   0.97529   0.77839   0.00000  Uiso   1.00
C1135  C     0.85834   0.69158   0.77840   0.00000  Uiso   1.00
C1136  C     0.80831   0.97509   0.72161   0.00000  Uiso   1.00
C1137  C     0.83381   0.83332   0.66428   0.00000  Uiso   1.00
C1138  C     0.83356   0.83334   0.83573   0.00000  Uiso   1.00
C1139  C     0.83430   0.87595   0.90739   0.00000  Uiso   1.00
C1140  C     0.83406   0.79070   0.59263   0.00000  Uiso   1.00
C1141  C     0.83387   0.83334   0.88417   0.00000  Uiso   1.00
C1142  C     0.83422   0.83331   0.61584   0.00000  Uiso   1.00
C1143  C     0.83378   0.79073   0.90733   0.00000  Uiso   1.00
C1144  C     0.83462   0.87592   0.59269   0.00000  Uiso   1.00
C1145  C     0.83400   0.79042   0.95352   0.00000  Uiso   1.00
C1146  C     0.83470   0.87623   0.54650   0.00000  Uiso   1.00
C1147  C     0.83434   0.83333   0.97677   0.00000  Uiso   1.00
C1148  C     0.83442   0.83332   0.52325   0.00000  Uiso   1.00
C1149  C     0.83453   0.87625   0.95358   0.00000  Uiso   1.00
C1150  C     0.83415   0.79040   0.54643   0.00000  Uiso   1.00
C1151  C     0.83381   0.74795   0.97683   0.00000  Uiso   1.00
C1152  C     0.83497   0.91870   0.52318   0.00000  Uiso   1.00
Cu1153 Cu    0.83333   0.88022   0.75000   0.00000  Uiso   1.00
Cu1154 Cu    0.83333   0.78645   0.75000   0.00000  Uiso   1.00
H1155  H     0.83444   0.90894   0.88958   0.00000  Uiso   1.00
H1156  H     0.83376   0.75771   0.61043   0.00000  Uiso   1.00
H1157  H     0.83350   0.75774   0.88948   0.00000  Uiso   1.00
H1158  H     0.83477   0.90891   0.61053   0.00000  Uiso   1.00
H1159  H     0.83356   0.71479   0.95932   0.00000  Uiso   1.00
H1160  H     0.83519   0.95186   0.54069   0.00000  Uiso   1.00
H1161  H     0.83368   0.71478   0.54052   0.00000  Uiso   1.00
H1162  H     0.83504   0.95187   0.95950   0.00000  Uiso   1.00
H1163  H     0.78828   0.71001   0.69888   0.00000  Uiso   1.00
H1164  H     0.87838   0.95666   0.80112   0.00000  Uiso   1.00
H1165  H     0.87835   0.71036   0.80115   0.00000  Uiso   1.00
H1166  H     0.78827   0.95629   0.69889   0.00000  Uiso   1.00
N1167  N     0.83333   0.95069   0.75000   0.00000  Uiso   1.00
N1168  N     0.83333   0.71598   0.75000   0.00000  Uiso   1.00
O1169  O     0.77321   0.87291   0.75000   0.00000  Uiso   1.00
O1170  O     0.89345   0.79375   0.75001   0.00000  Uiso   1.00
O1171  O     0.89345   0.87291   0.75001   0.00000  Uiso   1.00
O1172  O     0.77321   0.79375   0.75000   0.00000  Uiso   1.00
O1173  O     0.83332   0.87293   0.68513   0.00000  Uiso   1.00
O1174  O     0.83334   0.79373   0.81487   0.00000  Uiso   1.00
O1175  O     0.83334   0.87293   0.81487   0.00000  Uiso   1.00
O1176  O     0.83332   0.79373   0.68513   0.00000  Uiso   1.00
C1177  C     0.71280   0.79934   0.82641   0.00000  Uiso   1.00
H1178  H     0.74271   0.81498   0.83335   0.00000  Uiso   1.00
O1179  O     0.70057   0.76876   0.85134   0.00000  Uiso   1.00
C1180  C     0.95404   0.86607   0.67194   0.00000  Uiso   1.00
H1181  H     0.92437   0.88309   0.67530   0.00000  Uiso   1.00
O1182  O     0.96645   0.85805   0.63456   0.00000  Uiso   1.00
C1183  C     0.95425   0.79804   0.82491   0.00000  Uiso   1.00
H1184  H     0.93428   0.82225   0.84231   0.00000  Uiso   1.00
O1185  O     0.95433   0.75677   0.83547   0.00000  Uiso   1.00
C1186  C     0.71067   0.87172   0.67401   0.00000  Uiso   1.00
H1187  H     0.69926   0.90334   0.65822   0.00000  Uiso   1.00
O1188  O     0.74117   0.85272   0.65886   0.00000  Uiso   1.00
loop_
_geom_bond_atom_site_label_1
_geom_bond_atom_site_label_2
_geom_bond_distance
_geom_bond_site_symmetry_2
_ccdc_geom_bond_type
C1     O50     1.287   .     A
C1     O47     1.288   .     A
C1     C10     1.448   .     S
C2     O49     1.286   .     A
C2     O48     1.287   .     A
C2     C9      1.447   .     S
C3     H39     1.084   .     S
C3     C28     1.402   .     A
C3     C623    1.394   1_554 S
C4     H40     1.084   .     S
C4     C27     1.402   .     A
C4     C624    1.394   .     S
C5     C10     1.414   .     A
C5     C55     1.498   .     S
C5     C139    1.408   1_455 S
C6     C58     1.496   .     S
C6     C9      1.410   .     A
C6     C74     1.404   .     S
C7     C9      1.410   .     A
C7     C61     1.486   .     S
C7     C71     1.408   .     S
C8     C64     1.490   .     S
C8     C10     1.414   .     A
C8     C138    1.404   1_455 S
C11    H41     1.082   .     S
C11    N46     1.367   .     A
C11    C410    1.417   1_545 S
C12    H42     1.082   .     S
C12    N45     1.367   .     A
C12    C211    1.417   .     S
C13    H43     1.082   .     S
C13    N46     1.367   .     A
C13    C408    1.417   1_545 S
C14    H44     1.082   .     S
C14    N45     1.367   .     A
C14    C209    1.417   .     S
C15    O51     1.294   .     A
C15    C20     1.461   .     S
C15    O54     1.294   .     A
C16    C19     1.461   .     S
C16    O52     1.294   .     A
C16    O53     1.294   .     A
C17    H33     1.084   .     S
C17    C19     1.403   .     A
C17    C27     1.393   .     A
C18    H34     1.084   .     S
C18    C20     1.403   .     A
C18    C28     1.393   .     A
C19    C21     1.403   .     A
C20    C22     1.403   .     A
C21    H35     1.084   .     S
C21    C23     1.393   .     A
C22    H36     1.084   .     S
C22    C24     1.393   .     A
C23    C29     1.402   .     A
C23    C25     1.411   .     A
C24    C30     1.402   .     A
C24    C26     1.411   .     A
C25    C27     1.411   .     A
C25    C620    1.402   .     S
C26    C28     1.411   .     A
C26    C619    1.402   1_554 S
C29    H37     1.084   .     S
C29    C597    1.394   .     S
C30    H38     1.084   .     S
C30    C598    1.394   1_554 S
Cu31   Cu32    2.677   .     S
Cu31   O47     1.958   .     S
Cu31   O53     1.968   .     S
Cu31   O49     1.959   .     S
Cu31   N45     2.012   .     S
Cu31   O51     1.967   .     S
Cu32   O52     1.967   .     S
Cu32   O48     1.958   .     S
Cu32   O50     1.959   .     S
Cu32   O54     1.968   .     S
Cu32   N46     2.012   .     S
C55    H56     1.085   .     S
C55    O57     1.219   .     D
C58    O60     1.221   .     D
C58    H59     1.083   .     S
C61    O63     1.221   .     D
C61    H62     1.085   .     S
C64    H65     1.085   .     S
C64    O66     1.220   .     D
C67    O116    1.287   .     A
C67    O113    1.288   .     A
C67    C76     1.448   .     S
C68    O115    1.286   .     A
C68    O114    1.287   .     A
C68    C75     1.447   .     S
C69    H105    1.084   .     S
C69    C94     1.402   .     A
C69    C689    1.394   1_554 S
C70    H106    1.084   .     S
C70    C93     1.402   .     A
C70    C690    1.394   .     S
C71    C76     1.414   .     A
C71    C121    1.498   .     S
C72    C124    1.496   .     S
C72    C75     1.410   .     A
C72    C140    1.404   .     S
C73    C75     1.410   .     A
C73    C127    1.486   .     S
C73    C137    1.408   .     S
C74    C130    1.490   .     S
C74    C76     1.414   .     A
C77    H107    1.082   .     S
C77    N112    1.367   .     A
C77    C476    1.417   1_545 S
C78    H108    1.082   .     S
C78    N111    1.367   .     A
C78    C277    1.417   .     S
C79    H109    1.082   .     S
C79    N112    1.367   .     A
C79    C474    1.417   1_545 S
C80    H110    1.082   .     S
C80    N111    1.367   .     A
C80    C275    1.417   .     S
C81    O117    1.294   .     A
C81    C86     1.461   .     S
C81    O120    1.294   .     A
C82    C85     1.461   .     S
C82    O118    1.294   .     A
C82    O119    1.294   .     A
C83    H99     1.084   .     S
C83    C85     1.403   .     A
C83    C93     1.393   .     A
C84    H100    1.084   .     S
C84    C86     1.403   .     A
C84    C94     1.393   .     A
C85    C87     1.403   .     A
C86    C88     1.403   .     A
C87    H101    1.084   .     S
C87    C89     1.393   .     A
C88    H102    1.084   .     S
C88    C90     1.393   .     A
C89    C95     1.402   .     A
C89    C91     1.411   .     A
C90    C96     1.402   .     A
C90    C92     1.411   .     A
C91    C93     1.411   .     A
C91    C686    1.402   .     S
C92    C94     1.411   .     A
C92    C685    1.402   1_554 S
C95    H103    1.084   .     S
C95    C663    1.394   .     S
C96    H104    1.084   .     S
C96    C664    1.394   1_554 S
Cu97   Cu98    2.677   .     S
Cu97   O113    1.958   .     S
Cu97   O119    1.968   .     S
Cu97   O115    1.959   .     S
Cu97   N111    2.012   .     S
Cu97   O117    1.967   .     S
Cu98   O118    1.967   .     S
Cu98   O114    1.958   .     S
Cu98   O116    1.959   .     S
Cu98   O120    1.968   .     S
Cu98   N112    2.012   .     S
C121   H122    1.085   .     S
C121   O123    1.219   .     D
C124   O126    1.221   .     D
C124   H125    1.083   .     S
C127   O129    1.221   .     D
C127   H128    1.085   .     S
C130   H131    1.085   .     S
C130   O132    1.220   .     D
C133   O182    1.287   .     A
C133   O179    1.288   .     A
C133   C142    1.448   .     S
C134   O181    1.286   .     A
C134   O180    1.287   .     A
C134   C141    1.447   .     S
C135   H171    1.084   .     S
C135   C160    1.402   .     A
C135   C755    1.394   1_554 S
C136   H172    1.084   .     S
C136   C159    1.402   .     A
C136   C756    1.394   .     S
C137   C142    1.414   .     A
C137   C187    1.498   .     S
C138   C190    1.496   .     S
C138   C141    1.410   .     A
C138   C8      1.404   1_655 S
C139   C141    1.410   .     A
C139   C193    1.486   .     S
C139   C5      1.408   1_655 S
C140   C196    1.490   .     S
C140   C142    1.414   .     A
C143   H173    1.082   .     S
C143   N178    1.367   .     A
C143   C542    1.417   1_545 S
C144   H174    1.082   .     S
C144   N177    1.367   .     A
C144   C343    1.417   .     S
C145   H175    1.082   .     S
C145   N178    1.367   .     A
C145   C540    1.417   1_545 S
C146   H176    1.082   .     S
C146   N177    1.367   .     A
C146   C341    1.417   .     S
C147   O183    1.294   .     A
C147   C152    1.461   .     S
C147   O186    1.294   .     A
C148   C151    1.461   .     S
C148   O184    1.294   .     A
C148   O185    1.294   .     A
C149   H165    1.084   .     S
C149   C151    1.403   .     A
C149   C159    1.393   .     A
C150   H166    1.084   .     S
C150   C152    1.403   .     A
C150   C160    1.393   .     A
C151   C153    1.403   .     A
C152   C154    1.403   .     A
C153   H167    1.084   .     S
C153   C155    1.393   .     A
C154   H168    1.084   .     S
C154   C156    1.393   .     A
C155   C161    1.402   .     A
C155   C157    1.411   .     A
C156   C162    1.402   .     A
C156   C158    1.411   .     A
C157   C159    1.411   .     A
C157   C752    1.402   .     S
C158   C160    1.411   .     A
C158   C751    1.402   1_554 S
C161   H169    1.084   .     S
C161   C729    1.394   .     S
C162   H170    1.084   .     S
C162   C730    1.394   1_554 S
Cu163  Cu164   2.677   .     S
Cu163  O179    1.958   .     S
Cu163  O185    1.968   .     S
Cu163  O181    1.959   .     S
Cu163  N177    2.012   .     S
Cu163  O183    1.967   .     S
Cu164  O184    1.967   .     S
Cu164  O180    1.958   .     S
Cu164  O182    1.959   .     S
Cu164  O186    1.968   .     S
Cu164  N178    2.012   .     S
C187   H188    1.085   .     S
C187   O189    1.219   .     D
C190   O192    1.221   .     D
C190   H191    1.083   .     S
C193   O195    1.221   .     D
C193   H194    1.085   .     S
C196   H197    1.085   .     S
C196   O198    1.220   .     D
C199   O248    1.287   .     A
C199   O245    1.288   .     A
C199   C208    1.448   .     S
C200   O247    1.286   .     A
C200   O246    1.287   .     A
C200   C207    1.447   .     S
C201   H237    1.084   .     S
C201   C226    1.402   .     A
C201   C821    1.394   1_554 S
C202   H238    1.084   .     S
C202   C225    1.402   .     A
C202   C822    1.394   .     S
C203   C208    1.414   .     A
C203   C253    1.498   .     S
C203   C337    1.408   1_455 S
C204   C256    1.496   .     S
C204   C207    1.410   .     A
C204   C272    1.404   .     S
C205   C207    1.410   .     A
C205   C259    1.486   .     S
C205   C269    1.408   .     S
C206   C262    1.490   .     S
C206   C208    1.414   .     A
C206   C336    1.404   1_455 S
C209   H239    1.082   .     S
C209   N244    1.367   .     A
C210   H240    1.082   .     S
C210   N243    1.367   .     A
C210   C409    1.417   .     S
C211   H241    1.082   .     S
C211   N244    1.367   .     A
C212   H242    1.082   .     S
C212   N243    1.367   .     A
C212   C407    1.417   .     S
C213   O249    1.294   .     A
C213   C218    1.461   .     S
C213   O252    1.294   .     A
C214   C217    1.461   .     S
C214   O250    1.294   .     A
C214   O251    1.294   .     A
C215   H231    1.084   .     S
C215   C217    1.403   .     A
C215   C225    1.393   .     A
C216   H232    1.084   .     S
C216   C218    1.403   .     A
C216   C226    1.393   .     A
C217   C219    1.403   .     A
C218   C220    1.403   .     A
C219   H233    1.084   .     S
C219   C221    1.393   .     A
C220   H234    1.084   .     S
C220   C222    1.393   .     A
C221   C227    1.402   .     A
C221   C223    1.411   .     A
C222   C228    1.402   .     A
C222   C224    1.411   .     A
C223   C225    1.411   .     A
C223   C818    1.402   .     S
C224   C226    1.411   .     A
C224   C817    1.402   1_554 S
C227   H235    1.084   .     S
C227   C795    1.394   .     S
C228   H236    1.084   .     S
C228   C796    1.394   1_554 S
Cu229  Cu230   2.677   .     S
Cu229  O245    1.958   .     S
Cu229  O251    1.968   .     S
Cu229  O247    1.959   .     S
Cu229  N243    2.012   .     S
Cu229  O249    1.967   .     S
Cu230  O250    1.967   .     S
Cu230  O246    1.958   .     S
Cu230  O248    1.959   .     S
Cu230  O252    1.968   .     S
Cu230  N244    2.012   .     S
C253   H254    1.085   .     S
C253   O255    1.219   .     D
C256   O258    1.221   .     D
C256   H257    1.083   .     S
C259   O261    1.221   .     D
C259   H260    1.085   .     S
C262   H263    1.085   .     S
C262   O264    1.220   .     D
C265   O314    1.287   .     A
C265   O311    1.288   .     A
C265   C274    1.448   .     S
C266   O313    1.286   .     A
C266   O312    1.287   .     A
C266   C273    1.447   .     S
C267   H303    1.084   .     S
C267   C292    1.402   .     A
C267   C887    1.394   1_554 S
C268   H304    1.084   .     S
C268   C291    1.402   .     A
C268   C888    1.394   .     S
C269   C274    1.414   .     A
C269   C319    1.498   .     S
C270   C322    1.496   .     S
C270   C273    1.410   .     A
C270   C338    1.404   .     S
C271   C273    1.410   .     A
C271   C325    1.486   .     S
C271   C335    1.408   .     S
C272   C328    1.490   .     S
C272   C274    1.414   .     A
C275   H305    1.082   .     S
C275   N310    1.367   .     A
C276   H306    1.082   .     S
C276   N309    1.367   .     A
C276   C475    1.417   .     S
C277   H307    1.082   .     S
C277   N310    1.367   .     A
C278   H308    1.082   .     S
C278   N309    1.367   .     A
C278   C473    1.417   .     S
C279   O315    1.294   .     A
C279   C284    1.461   .     S
C279   O318    1.294   .     A
C280   C283    1.461   .     S
C280   O316    1.294   .     A
C280   O317    1.294   .     A
C281   H297    1.084   .     S
C281   C283    1.403   .     A
C281   C291    1.393   .     A
C282   H298    1.084   .     S
C282   C284    1.403   .     A
C282   C292    1.393   .     A
C283   C285    1.403   .     A
C284   C286    1.403   .     A
C285   H299    1.084   .     S
C285   C287    1.393   .     A
C286   H300    1.084   .     S
C286   C288    1.393   .     A
C287   C293    1.402   .     A
C287   C289    1.411   .     A
C288   C294    1.402   .     A
C288   C290    1.411   .     A
C289   C291    1.411   .     A
C289   C884    1.402   .     S
C290   C292    1.411   .     A
C290   C883    1.402   1_554 S
C293   H301    1.084   .     S
C293   C861    1.394   .     S
C294   H302    1.084   .     S
C294   C862    1.394   1_554 S
Cu295  Cu296   2.677   .     S
Cu295  O311    1.958   .     S
Cu295  O317    1.968   .     S
Cu295  O313    1.959   .     S
Cu295  N309    2.012   .     S
Cu295  O315    1.967   .     S
Cu296  O316    1.967   .     S
Cu296  O312    1.958   .     S
Cu296  O314    1.959   .     S
Cu296  O318    1.968   .     S
Cu296  N310    2.012   .     S
C319   H320    1.085   .     S
C319   O321    1.219   .     D
C322   O324    1.221   .     D
C322   H323    1.083   .     S
C325   O327    1.221   .     D
C325   H326    1.085   .     S
C328   H329    1.085   .     S
C328   O330    1.220   .     D
C331   O380    1.287   .     A
C331   O377    1.288   .     A
C331   C340    1.448   .     S
C332   O379    1.286   .     A
C332   O378    1.287   .     A
C332   C339    1.447   .     S
C333   H369    1.084   .     S
C333   C358    1.402   .     A
C333   C953    1.394   1_554 S
C334   H370    1.084   .     S
C334   C357    1.402   .     A
C334   C954    1.394   .     S
C335   C340    1.414   .     A
C335   C385    1.498   .     S
C336   C388    1.496   .     S
C336   C339    1.410   .     A
C336   C206    1.404   1_655 S
C337   C339    1.410   .     A
C337   C391    1.486   .     S
C337   C203    1.408   1_655 S
C338   C394    1.490   .     S
C338   C340    1.414   .     A
C341   H371    1.082   .     S
C341   N376    1.367   .     A
C342   H372    1.082   .     S
C342   N375    1.367   .     A
C342   C541    1.417   .     S
C343   H373    1.082   .     S
C343   N376    1.367   .     A
C344   H374    1.082   .     S
C344   N375    1.367   .     A
C344   C539    1.417   .     S
C345   O381    1.294   .     A
C345   C350    1.461   .     S
C345   O384    1.294   .     A
C346   C349    1.461   .     S
C346   O382    1.294   .     A
C346   O383    1.294   .     A
C347   H363    1.084   .     S
C347   C349    1.403   .     A
C347   C357    1.393   .     A
C348   H364    1.084   .     S
C348   C350    1.403   .     A
C348   C358    1.393   .     A
C349   C351    1.403   .     A
C350   C352    1.403   .     A
C351   H365    1.084   .     S
C351   C353    1.393   .     A
C352   H366    1.084   .     S
C352   C354    1.393   .     A
C353   C359    1.402   .     A
C353   C355    1.411   .     A
C354   C360    1.402   .     A
C354   C356    1.411   .     A
C355   C357    1.411   .     A
C355   C950    1.402   .     S
C356   C358    1.411   .     A
C356   C949    1.402   1_554 S
C359   H367    1.084   .     S
C359   C927    1.394   .     S
C360   H368    1.084   .     S
C360   C928    1.394   1_554 S
Cu361  Cu362   2.677   .     S
Cu361  O377    1.958   .     S
Cu361  O383    1.968   .     S
Cu361  O379    1.959   .     S
Cu361  N375    2.012   .     S
Cu361  O381    1.967   .     S
Cu362  O382    1.967   .     S
Cu362  O378    1.958   .     S
Cu362  O380    1.959   .     S
Cu362  O384    1.968   .     S
Cu362  N376    2.012   .     S
C385   H386    1.085   .     S
C385   O387    1.219   .     D
C388   O390    1.221   .     D
C388   H389    1.083   .     S
C391   O393    1.221   .     D
C391   H392    1.085   .     S
C394   H395    1.085   .     S
C394   O396    1.220   .     D
C397   O446    1.287   .     A
C397   O443    1.288   .     A
C397   C406    1.448   .     S
C398   O445    1.286   .     A
C398   O444    1.287   .     A
C398   C405    1.447   .     S
C399   H435    1.084   .     S
C399   C424    1.402   .     A
C399   C1019   1.394   1_554 S
C400   H436    1.084   .     S
C400   C423    1.402   .     A
C400   C1020   1.394   .     S
C401   C406    1.414   .     A
C401   C451    1.498   .     S
C401   C535    1.408   1_455 S
C402   C454    1.496   .     S
C402   C405    1.410   .     A
C402   C470    1.404   .     S
C403   C405    1.410   .     A
C403   C457    1.486   .     S
C403   C467    1.408   .     S
C404   C460    1.490   .     S
C404   C406    1.414   .     A
C404   C534    1.404   1_455 S
C407   H437    1.082   .     S
C407   N442    1.367   .     A
C408   H438    1.082   .     S
C408   N441    1.367   .     A
C408   C13     1.417   1_565 S
C409   H439    1.082   .     S
C409   N442    1.367   .     A
C410   H440    1.082   .     S
C410   N441    1.367   .     A
C410   C11     1.417   1_565 S
C411   O447    1.294   .     A
C411   C416    1.461   .     S
C411   O450    1.294   .     A
C412   C415    1.461   .     S
C412   O448    1.294   .     A
C412   O449    1.294   .     A
C413   H429    1.084   .     S
C413   C415    1.403   .     A
C413   C423    1.393   .     A
C414   H430    1.084   .     S
C414   C416    1.403   .     A
C414   C424    1.393   .     A
C415   C417    1.403   .     A
C416   C418    1.403   .     A
C417   H431    1.084   .     S
C417   C419    1.393   .     A
C418   H432    1.084   .     S
C418   C420    1.393   .     A
C419   C425    1.402   .     A
C419   C421    1.411   .     A
C420   C426    1.402   .     A
C420   C422    1.411   .     A
C421   C423    1.411   .     A
C421   C1016   1.402   .     S
C422   C424    1.411   .     A
C422   C1015   1.402   1_554 S
C425   H433    1.084   .     S
C425   C993    1.394   .     S
C426   H434    1.084   .     S
C426   C994    1.394   1_554 S
Cu427  Cu428   2.677   .     S
Cu427  O443    1.958   .     S
Cu427  O449    1.968   .     S
Cu427  O445    1.959   .     S
Cu427  N441    2.012   .     S
Cu427  O447    1.967   .     S
Cu428  O448    1.967   .     S
Cu428  O444    1.958   .     S
Cu428  O446    1.959   .     S
Cu428  O450    1.968   .     S
Cu428  N442    2.012   .     S
C451   H452    1.085   .     S
C451   O453    1.219   .     D
C454   O456    1.221   .     D
C454   H455    1.083   .     S
C457   O459    1.221   .     D
C457   H458    1.085   .     S
C460   H461    1.085   .     S
C460   O462    1.220   .     D
C463   O512    1.287   .     A
C463   O509    1.288   .     A
C463   C472    1.448   .     S
C464   O511    1.286   .     A
C464   O510    1.287   .     A
C464   C471    1.447   .     S
C465   H501    1.084   .     S
C465   C490    1.402   .     A
C465   C1085   1.394   1_554 S
C466   H502    1.084   .     S
C466   C489    1.402   .     A
C466   C1086   1.394   .     S
C467   C472    1.414   .     A
C467   C517    1.498   .     S
C468   C520    1.496   .     S
C468   C471    1.410   .     A
C468   C536    1.404   .     S
C469   C471    1.410   .     A
C469   C523    1.486   .     S
C469   C533    1.408   .     S
C470   C526    1.490   .     S
C470   C472    1.414   .     A
C473   H503    1.082   .     S
C473   N508    1.367   .     A
C474   H504    1.082   .     S
C474   N507    1.367   .     A
C474   C79     1.417   1_565 S
C475   H505    1.082   .     S
C475   N508    1.367   .     A
C476   H506    1.082   .     S
C476   N507    1.367   .     A
C476   C77     1.417   1_565 S
C477   O513    1.294   .     A
C477   C482    1.461   .     S
C477   O516    1.294   .     A
C478   C481    1.461   .     S
C478   O514    1.294   .     A
C478   O515    1.294   .     A
C479   H495    1.084   .     S
C479   C481    1.403   .     A
C479   C489    1.393   .     A
C480   H496    1.084   .     S
C480   C482    1.403   .     A
C480   C490    1.393   .     A
C481   C483    1.403   .     A
C482   C484    1.403   .     A
C483   H497    1.084   .     S
C483   C485    1.393   .     A
C484   H498    1.084   .     S
C484   C486    1.393   .     A
C485   C491    1.402   .     A
C485   C487    1.411   .     A
C486   C492    1.402   .     A
C486   C488    1.411   .     A
C487   C489    1.411   .     A
C487   C1082   1.402   .     S
C488   C490    1.411   .     A
C488   C1081   1.402   1_554 S
C491   H499    1.084   .     S
C491   C1059   1.394   .     S
C492   H500    1.084   .     S
C492   C1060   1.394   1_554 S
Cu493  Cu494   2.677   .     S
Cu493  O509    1.958   .     S
Cu493  O515    1.968   .     S
Cu493  O511    1.959   .     S
Cu493  N507    2.012   .     S
Cu493  O513    1.967   .     S
Cu494  O514    1.967   .     S
Cu494  O510    1.958   .     S
Cu494  O512    1.959   .     S
Cu494  O516    1.968   .     S
Cu494  N508    2.012   .     S
C517   H518    1.085   .     S
C517   O519    1.219   .     D
C520   O522    1.221   .     D
C520   H521    1.083   .     S
C523   O525    1.221   .     D
C523   H524    1.085   .     S
C526   H527    1.085   .     S
C526   O528    1.220   .     D
C529   O578    1.287   .     A
C529   O575    1.288   .     A
C529   C538    1.448   .     S
C530   O577    1.286   .     A
C530   O576    1.287   .     A
C530   C537    1.447   .     S
C531   H567    1.084   .     S
C531   C556    1.402   .     A
C531   C1151   1.394   1_554 S
C532   H568    1.084   .     S
C532   C555    1.402   .     A
C532   C1152   1.394   .     S
C533   C538    1.414   .     A
C533   C583    1.498   .     S
C534   C586    1.496   .     S
C534   C537    1.410   .     A
C534   C404    1.404   1_655 S
C535   C537    1.410   .     A
C535   C589    1.486   .     S
C535   C401    1.408   1_655 S
C536   C592    1.490   .     S
C536   C538    1.414   .     A
C539   H569    1.082   .     S
C539   N574    1.367   .     A
C540   H570    1.082   .     S
C540   N573    1.367   .     A
C540   C145    1.417   1_565 S
C541   H571    1.082   .     S
C541   N574    1.367   .     A
C542   H572    1.082   .     S
C542   N573    1.367   .     A
C542   C143    1.417   1_565 S
C543   O579    1.294   .     A
C543   C548    1.461   .     S
C543   O582    1.294   .     A
C544   C547    1.461   .     S
C544   O580    1.294   .     A
C544   O581    1.294   .     A
C545   H561    1.084   .     S
C545   C547    1.403   .     A
C545   C555    1.393   .     A
C546   H562    1.084   .     S
C546   C548    1.403   .     A
C546   C556    1.393   .     A
C547   C549    1.403   .     A
C548   C550    1.403   .     A
C549   H563    1.084   .     S
C549   C551    1.393   .     A
C550   H564    1.084   .     S
C550   C552    1.393   .     A
C551   C557    1.402   .     A
C551   C553    1.411   .     A
C552   C558    1.402   .     A
C552   C554    1.411   .     A
C553   C555    1.411   .     A
C553   C1148   1.402   .     S
C554   C556    1.411   .     A
C554   C1147   1.402   1_554 S
C557   H565    1.084   .     S
C557   C1125   1.394   .     S
C558   H566    1.084   .     S
C558   C1126   1.394   1_554 S
Cu559  Cu560   2.677   .     S
Cu559  O575    1.958   .     S
Cu559  O581    1.968   .     S
Cu559  O577    1.959   .     S
Cu559  N573    2.012   .     S
Cu559  O579    1.967   .     S
Cu560  O580    1.967   .     S
Cu560  O576    1.958   .     S
Cu560  O578    1.959   .     S
Cu560  O582    1.968   .     S
Cu560  N574    2.012   .     S
C583   H584    1.085   .     S
C583   O585    1.219   .     D
C586   O588    1.221   .     D
C586   H587    1.083   .     S
C589   O591    1.221   .     D
C589   H590    1.085   .     S
C592   H593    1.085   .     S
C592   O594    1.220   .     D
C595   O644    1.287   .     A
C595   O641    1.288   .     A
C595   C604    1.448   .     S
C596   O643    1.286   .     A
C596   O642    1.287   .     A
C596   C603    1.447   .     S
C597   H633    1.084   .     S
C597   C622    1.402   .     A
C598   H634    1.084   .     S
C598   C621    1.402   .     A
C598   C30     1.394   1_556 S
C599   C604    1.414   .     A
C599   C649    1.498   .     S
C599   C733    1.408   1_455 S
C600   C652    1.496   .     S
C600   C603    1.410   .     A
C600   C668    1.404   .     S
C601   C603    1.410   .     A
C601   C655    1.486   .     S
C601   C665    1.408   .     S
C602   C658    1.490   .     S
C602   C604    1.414   .     A
C602   C732    1.404   1_455 S
C605   H635    1.082   .     S
C605   N640    1.367   .     A
C605   C1004   1.417   1_545 S
C606   H636    1.082   .     S
C606   N639    1.367   .     A
C606   C805    1.417   .     S
C607   H637    1.082   .     S
C607   N640    1.367   .     A
C607   C1002   1.417   1_545 S
C608   H638    1.082   .     S
C608   N639    1.367   .     A
C608   C803    1.417   .     S
C609   O645    1.294   .     A
C609   C614    1.461   .     S
C609   O648    1.294   .     A
C610   C613    1.461   .     S
C610   O646    1.294   .     A
C610   O647    1.294   .     A
C611   H627    1.084   .     S
C611   C613    1.403   .     A
C611   C621    1.393   .     A
C612   H628    1.084   .     S
C612   C614    1.403   .     A
C612   C622    1.393   .     A
C613   C615    1.403   .     A
C614   C616    1.403   .     A
C615   H629    1.084   .     S
C615   C617    1.393   .     A
C616   H630    1.084   .     S
C616   C618    1.393   .     A
C617   C623    1.402   .     A
C617   C619    1.411   .     A
C618   C624    1.402   .     A
C618   C620    1.411   .     A
C619   C621    1.411   .     A
C619   C26     1.402   1_556 S
C620   C622    1.411   .     A
C623   H631    1.084   .     S
C623   C3      1.394   1_556 S
C624   H632    1.084   .     S
Cu625  Cu626   2.677   .     S
Cu625  O641    1.958   .     S
Cu625  O647    1.968   .     S
Cu625  O643    1.959   .     S
Cu625  N639    2.012   .     S
Cu625  O645    1.967   .     S
Cu626  O646    1.967   .     S
Cu626  O642    1.958   .     S
Cu626  O644    1.959   .     S
Cu626  O648    1.968   .     S
Cu626  N640    2.012   .     S
C649   H650    1.085   .     S
C649   O651    1.219   .     D
C652   O654    1.221   .     D
C652   H653    1.083   .     S
C655   O657    1.221   .     D
C655   H656    1.085   .     S
C658   H659    1.085   .     S
C658   O660    1.220   .     D
C661   O710    1.287   .     A
C661   O707    1.288   .     A
C661   C670    1.448   .     S
C662   O709    1.286   .     A
C662   O708    1.287   .     A
C662   C669    1.447   .     S
C663   H699    1.084   .     S
C663   C688    1.402   .     A
C664   H700    1.084   .     S
C664   C687    1.402   .     A
C664   C96     1.394   1_556 S
C665   C670    1.414   .     A
C665   C715    1.498   .     S
C666   C718    1.496   .     S
C666   C669    1.410   .     A
C666   C734    1.404   .     S
C667   C669    1.410   .     A
C667   C721    1.486   .     S
C667   C731    1.408   .     S
C668   C724    1.490   .     S
C668   C670    1.414   .     A
C671   H701    1.082   .     S
C671   N706    1.367   .     A
C671   C1070   1.417   1_545 S
C672   H702    1.082   .     S
C672   N705    1.367   .     A
C672   C871    1.417   .     S
C673   H703    1.082   .     S
C673   N706    1.367   .     A
C673   C1068   1.417   1_545 S
C674   H704    1.082   .     S
C674   N705    1.367   .     A
C674   C869    1.417   .     S
C675   O711    1.294   .     A
C675   C680    1.461   .     S
C675   O714    1.294   .     A
C676   C679    1.461   .     S
C676   O712    1.294   .     A
C676   O713    1.294   .     A
C677   H693    1.084   .     S
C677   C679    1.403   .     A
C677   C687    1.393   .     A
C678   H694    1.084   .     S
C678   C680    1.403   .     A
C678   C688    1.393   .     A
C679   C681    1.403   .     A
C680   C682    1.403   .     A
C681   H695    1.084   .     S
C681   C683    1.393   .     A
C682   H696    1.084   .     S
C682   C684    1.393   .     A
C683   C689    1.402   .     A
C683   C685    1.411   .     A
C684   C690    1.402   .     A
C684   C686    1.411   .     A
C685   C687    1.411   .     A
C685   C92     1.402   1_556 S
C686   C688    1.411   .     A
C689   H697    1.084   .     S
C689   C69     1.394   1_556 S
C690   H698    1.084   .     S
Cu691  Cu692   2.677   .     S
Cu691  O707    1.958   .     S
Cu691  O713    1.968   .     S
Cu691  O709    1.959   .     S
Cu691  N705    2.012   .     S
Cu691  O711    1.967   .     S
Cu692  O712    1.967   .     S
Cu692  O708    1.958   .     S
Cu692  O710    1.959   .     S
Cu692  O714    1.968   .     S
Cu692  N706    2.012   .     S
C715   H716    1.085   .     S
C715   O717    1.219   .     D
C718   O720    1.221   .     D
C718   H719    1.083   .     S
C721   O723    1.221   .     D
C721   H722    1.085   .     S
C724   H725    1.085   .     S
C724   O726    1.220   .     D
C727   O776    1.287   .     A
C727   O773    1.288   .     A
C727   C736    1.448   .     S
C728   O775    1.286   .     A
C728   O774    1.287   .     A
C728   C735    1.447   .     S
C729   H765    1.084   .     S
C729   C754    1.402   .     A
C730   H766    1.084   .     S
C730   C753    1.402   .     A
C730   C162    1.394   1_556 S
C731   C736    1.414   .     A
C731   C781    1.498   .     S
C732   C784    1.496   .     S
C732   C735    1.410   .     A
C732   C602    1.404   1_655 S
C733   C735    1.410   .     A
C733   C787    1.486   .     S
C733   C599    1.408   1_655 S
C734   C790    1.490   .     S
C734   C736    1.414   .     A
C737   H767    1.082   .     S
C737   N772    1.367   .     A
C737   C1136   1.417   1_545 S
C738   H768    1.082   .     S
C738   N771    1.367   .     A
C738   C937    1.417   .     S
C739   H769    1.082   .     S
C739   N772    1.367   .     A
C739   C1134   1.417   1_545 S
C740   H770    1.082   .     S
C740   N771    1.367   .     A
C740   C935    1.417   .     S
C741   O777    1.294   .     A
C741   C746    1.461   .     S
C741   O780    1.294   .     A
C742   C745    1.461   .     S
C742   O778    1.294   .     A
C742   O779    1.294   .     A
C743   H759    1.084   .     S
C743   C745    1.403   .     A
C743   C753    1.393   .     A
C744   H760    1.084   .     S
C744   C746    1.403   .     A
C744   C754    1.393   .     A
C745   C747    1.403   .     A
C746   C748    1.403   .     A
C747   H761    1.084   .     S
C747   C749    1.393   .     A
C748   H762    1.084   .     S
C748   C750    1.393   .     A
C749   C755    1.402   .     A
C749   C751    1.411   .     A
C750   C756    1.402   .     A
C750   C752    1.411   .     A
C751   C753    1.411   .     A
C751   C158    1.402   1_556 S
C752   C754    1.411   .     A
C755   H763    1.084   .     S
C755   C135    1.394   1_556 S
C756   H764    1.084   .     S
Cu757  Cu758   2.677   .     S
Cu757  O773    1.958   .     S
Cu757  O779    1.968   .     S
Cu757  O775    1.959   .     S
Cu757  N771    2.012   .     S
Cu757  O777    1.967   .     S
Cu758  O778    1.967   .     S
Cu758  O774    1.958   .     S
Cu758  O776    1.959   .     S
Cu758  O780    1.968   .     S
Cu758  N772    2.012   .     S
C781   H782    1.085   .     S
C781   O783    1.219   .     D
C784   O786    1.221   .     D
C784   H785    1.083   .     S
C787   O789    1.221   .     D
C787   H788    1.085   .     S
C790   H791    1.085   .     S
C790   O792    1.220   .     D
C793   O842    1.287   .     A
C793   O839    1.288   .     A
C793   C802    1.448   .     S
C794   O841    1.286   .     A
C794   O840    1.287   .     A
C794   C801    1.447   .     S
C795   H831    1.084   .     S
C795   C820    1.402   .     A
C796   H832    1.084   .     S
C796   C819    1.402   .     A
C796   C228    1.394   1_556 S
C797   C802    1.414   .     A
C797   C847    1.498   .     S
C797   C931    1.408   1_455 S
C798   C850    1.496   .     S
C798   C801    1.410   .     A
C798   C866    1.404   .     S
C799   C801    1.410   .     A
C799   C853    1.486   .     S
C799   C863    1.408   .     S
C800   C856    1.490   .     S
C800   C802    1.414   .     A
C800   C930    1.404   1_455 S
C803   H833    1.082   .     S
C803   N838    1.367   .     A
C804   H834    1.082   .     S
C804   N837    1.367   .     A
C804   C1003   1.417   .     S
C805   H835    1.082   .     S
C805   N838    1.367   .     A
C806   H836    1.082   .     S
C806   N837    1.367   .     A
C806   C1001   1.417   .     S
C807   O843    1.294   .     A
C807   C812    1.461   .     S
C807   O846    1.294   .     A
C808   C811    1.461   .     S
C808   O844    1.294   .     A
C808   O845    1.294   .     A
C809   H825    1.084   .     S
C809   C811    1.403   .     A
C809   C819    1.393   .     A
C810   H826    1.084   .     S
C810   C812    1.403   .     A
C810   C820    1.393   .     A
C811   C813    1.403   .     A
C812   C814    1.403   .     A
C813   H827    1.084   .     S
C813   C815    1.393   .     A
C814   H828    1.084   .     S
C814   C816    1.393   .     A
C815   C821    1.402   .     A
C815   C817    1.411   .     A
C816   C822    1.402   .     A
C816   C818    1.411   .     A
C817   C819    1.411   .     A
C817   C224    1.402   1_556 S
C818   C820    1.411   .     A
C821   H829    1.084   .     S
C821   C201    1.394   1_556 S
C822   H830    1.084   .     S
Cu823  Cu824   2.677   .     S
Cu823  O839    1.958   .     S
Cu823  O845    1.968   .     S
Cu823  O841    1.959   .     S
Cu823  N837    2.012   .     S
Cu823  O843    1.967   .     S
Cu824  O844    1.967   .     S
Cu824  O840    1.958   .     S
Cu824  O842    1.959   .     S
Cu824  O846    1.968   .     S
Cu824  N838    2.012   .     S
C847   H848    1.085   .     S
C847   O849    1.219   .     D
C850   O852    1.221   .     D
C850   H851    1.083   .     S
C853   O855    1.221   .     D
C853   H854    1.085   .     S
C856   H857    1.085   .     S
C856   O858    1.220   .     D
C859   O908    1.287   .     A
C859   O905    1.288   .     A
C859   C868    1.448   .     S
C860   O907    1.286   .     A
C860   O906    1.287   .     A
C860   C867    1.447   .     S
C861   H897    1.084   .     S
C861   C886    1.402   .     A
C862   H898    1.084   .     S
C862   C885    1.402   .     A
C862   C294    1.394   1_556 S
C863   C868    1.414   .     A
C863   C913    1.498   .     S
C864   C916    1.496   .     S
C864   C867    1.410   .     A
C864   C932    1.404   .     S
C865   C867    1.410   .     A
C865   C919    1.486   .     S
C865   C929    1.408   .     S
C866   C922    1.490   .     S
C866   C868    1.414   .     A
C869   H899    1.082   .     S
C869   N904    1.367   .     A
C870   H900    1.082   .     S
C870   N903    1.367   .     A
C870   C1069   1.417   .     S
C871   H901    1.082   .     S
C871   N904    1.367   .     A
C872   H902    1.082   .     S
C872   N903    1.367   .     A
C872   C1067   1.417   .     S
C873   O909    1.294   .     A
C873   C878    1.461   .     S
C873   O912    1.294   .     A
C874   C877    1.461   .     S
C874   O910    1.294   .     A
C874   O911    1.294   .     A
C875   H891    1.084   .     S
C875   C877    1.403   .     A
C875   C885    1.393   .     A
C876   H892    1.084   .     S
C876   C878    1.403   .     A
C876   C886    1.393   .     A
C877   C879    1.403   .     A
C878   C880    1.403   .     A
C879   H893    1.084   .     S
C879   C881    1.393   .     A
C880   H894    1.084   .     S
C880   C882    1.393   .     A
C881   C887    1.402   .     A
C881   C883    1.411   .     A
C882   C888    1.402   .     A
C882   C884    1.411   .     A
C883   C885    1.411   .     A
C883   C290    1.402   1_556 S
C884   C886    1.411   .     A
C887   H895    1.084   .     S
C887   C267    1.394   1_556 S
C888   H896    1.084   .     S
Cu889  Cu890   2.677   .     S
Cu889  O905    1.958   .     S
Cu889  O911    1.968   .     S
Cu889  O907    1.959   .     S
Cu889  N903    2.012   .     S
Cu889  O909    1.967   .     S
Cu890  O910    1.967   .     S
Cu890  O906    1.958   .     S
Cu890  O908    1.959   .     S
Cu890  O912    1.968   .     S
Cu890  N904    2.012   .     S
C913   H914    1.085   .     S
C913   O915    1.219   .     D
C916   O918    1.221   .     D
C916   H917    1.083   .     S
C919   O921    1.221   .     D
C919   H920    1.085   .     S
C922   H923    1.085   .     S
C922   O924    1.220   .     D
C925   O974    1.287   .     A
C925   O971    1.288   .     A
C925   C934    1.448   .     S
C926   O973    1.286   .     A
C926   O972    1.287   .     A
C926   C933    1.447   .     S
C927   H963    1.084   .     S
C927   C952    1.402   .     A
C928   H964    1.084   .     S
C928   C951    1.402   .     A
C928   C360    1.394   1_556 S
C929   C934    1.414   .     A
C929   C979    1.498   .     S
C930   C982    1.496   .     S
C930   C933    1.410   .     A
C930   C800    1.404   1_655 S
C931   C933    1.410   .     A
C931   C985    1.486   .     S
C931   C797    1.408   1_655 S
C932   C988    1.490   .     S
C932   C934    1.414   .     A
C935   H965    1.082   .     S
C935   N970    1.367   .     A
C936   H966    1.082   .     S
C936   N969    1.367   .     A
C936   C1135   1.417   .     S
C937   H967    1.082   .     S
C937   N970    1.367   .     A
C938   H968    1.082   .     S
C938   N969    1.367   .     A
C938   C1133   1.417   .     S
C939   O975    1.294   .     A
C939   C944    1.461   .     S
C939   O978    1.294   .     A
C940   C943    1.461   .     S
C940   O976    1.294   .     A
C940   O977    1.294   .     A
C941   H957    1.084   .     S
C941   C943    1.403   .     A
C941   C951    1.393   .     A
C942   H958    1.084   .     S
C942   C944    1.403   .     A
C942   C952    1.393   .     A
C943   C945    1.403   .     A
C944   C946    1.403   .     A
C945   H959    1.084   .     S
C945   C947    1.393   .     A
C946   H960    1.084   .     S
C946   C948    1.393   .     A
C947   C953    1.402   .     A
C947   C949    1.411   .     A
C948   C954    1.402   .     A
C948   C950    1.411   .     A
C949   C951    1.411   .     A
C949   C356    1.402   1_556 S
C950   C952    1.411   .     A
C953   H961    1.084   .     S
C953   C333    1.394   1_556 S
C954   H962    1.084   .     S
Cu955  Cu956   2.677   .     S
Cu955  O971    1.958   .     S
Cu955  O977    1.968   .     S
Cu955  O973    1.959   .     S
Cu955  N969    2.012   .     S
Cu955  O975    1.967   .     S
Cu956  O976    1.967   .     S
Cu956  O972    1.958   .     S
Cu956  O974    1.959   .     S
Cu956  O978    1.968   .     S
Cu956  N970    2.012   .     S
C979   H980    1.085   .     S
C979   O981    1.219   .     D
C982   O984    1.221   .     D
C982   H983    1.083   .     S
C985   O987    1.221   .     D
C985   H986    1.085   .     S
C988   H989    1.085   .     S
C988   O990    1.220   .     D
C991   O1040   1.287   .     A
C991   O1037   1.288   .     A
C991   C1000   1.448   .     S
C992   O1039   1.286   .     A
C992   O1038   1.287   .     A
C992   C999    1.447   .     S
C993   H1029   1.084   .     S
C993   C1018   1.402   .     A
C994   H1030   1.084   .     S
C994   C1017   1.402   .     A
C994   C426    1.394   1_556 S
C995   C1000   1.414   .     A
C995   C1045   1.498   .     S
C995   C1129   1.408   1_455 S
C996   C1048   1.496   .     S
C996   C999    1.410   .     A
C996   C1064   1.404   .     S
C997   C999    1.410   .     A
C997   C1051   1.486   .     S
C997   C1061   1.408   .     S
C998   C1054   1.490   .     S
C998   C1000   1.414   .     A
C998   C1128   1.404   1_455 S
C1001  H1031   1.082   .     S
C1001  N1036   1.367   .     A
C1002  H1032   1.082   .     S
C1002  N1035   1.367   .     A
C1002  C607    1.417   1_565 S
C1003  H1033   1.082   .     S
C1003  N1036   1.367   .     A
C1004  H1034   1.082   .     S
C1004  N1035   1.367   .     A
C1004  C605    1.417   1_565 S
C1005  O1041   1.294   .     A
C1005  C1010   1.461   .     S
C1005  O1044   1.294   .     A
C1006  C1009   1.461   .     S
C1006  O1042   1.294   .     A
C1006  O1043   1.294   .     A
C1007  H1023   1.084   .     S
C1007  C1009   1.403   .     A
C1007  C1017   1.393   .     A
C1008  H1024   1.084   .     S
C1008  C1010   1.403   .     A
C1008  C1018   1.393   .     A
C1009  C1011   1.403   .     A
C1010  C1012   1.403   .     A
C1011  H1025   1.084   .     S
C1011  C1013   1.393   .     A
C1012  H1026   1.084   .     S
C1012  C1014   1.393   .     A
C1013  C1019   1.402   .     A
C1013  C1015   1.411   .     A
C1014  C1020   1.402   .     A
C1014  C1016   1.411   .     A
C1015  C1017   1.411   .     A
C1015  C422    1.402   1_556 S
C1016  C1018   1.411   .     A
C1019  H1027   1.084   .     S
C1019  C399    1.394   1_556 S
C1020  H1028   1.084   .     S
Cu1021 Cu1022  2.677   .     S
Cu1021 O1037   1.958   .     S
Cu1021 O1043   1.968   .     S
Cu1021 O1039   1.959   .     S
Cu1021 N1035   2.012   .     S
Cu1021 O1041   1.967   .     S
Cu1022 O1042   1.967   .     S
Cu1022 O1038   1.958   .     S
Cu1022 O1040   1.959   .     S
Cu1022 O1044   1.968   .     S
Cu1022 N1036   2.012   .     S
C1045  H1046   1.085   .     S
C1045  O1047   1.219   .     D
C1048  O1050   1.221   .     D
C1048  H1049   1.083   .     S
C1051  O1053   1.221   .     D
C1051  H1052   1.085   .     S
C1054  H1055   1.085   .     S
C1054  O1056   1.220   .     D
C1057  O1106   1.287   .     A
C1057  O1103   1.288   .     A
C1057  C1066   1.448   .     S
C1058  O1105   1.286   .     A
C1058  O1104   1.287   .     A
C1058  C1065   1.447   .     S
C1059  H1095   1.084   .     S
C1059  C1084   1.402   .     A
C1060  H1096   1.084   .     S
C1060  C1083   1.402   .     A
C1060  C492    1.394   1_556 S
C1061  C1066   1.414   .     A
C1061  C1111   1.498   .     S
C1062  C1114   1.496   .     S
C1062  C1065   1.410   .     A
C1062  C1130   1.404   .     S
C1063  C1065   1.410   .     A
C1063  C1117   1.486   .     S
C1063  C1127   1.408   .     S
C1064  C1120   1.490   .     S
C1064  C1066   1.414   .     A
C1067  H1097   1.082   .     S
C1067  N1102   1.367   .     A
C1068  H1098   1.082   .     S
C1068  N1101   1.367   .     A
C1068  C673    1.417   1_565 S
C1069  H1099   1.082   .     S
C1069  N1102   1.367   .     A
C1070  H1100   1.082   .     S
C1070  N1101   1.367   .     A
C1070  C671    1.417   1_565 S
C1071  O1107   1.294   .     A
C1071  C1076   1.461   .     S
C1071  O1110   1.294   .     A
C1072  C1075   1.461   .     S
C1072  O1108   1.294   .     A
C1072  O1109   1.294   .     A
C1073  H1089   1.084   .     S
C1073  C1075   1.403   .     A
C1073  C1083   1.393   .     A
C1074  H1090   1.084   .     S
C1074  C1076   1.403   .     A
C1074  C1084   1.393   .     A
C1075  C1077   1.403   .     A
C1076  C1078   1.403   .     A
C1077  H1091   1.084   .     S
C1077  C1079   1.393   .     A
C1078  H1092   1.084   .     S
C1078  C1080   1.393   .     A
C1079  C1085   1.402   .     A
C1079  C1081   1.411   .     A
C1080  C1086   1.402   .     A
C1080  C1082   1.411   .     A
C1081  C1083   1.411   .     A
C1081  C488    1.402   1_556 S
C1082  C1084   1.411   .     A
C1085  H1093   1.084   .     S
C1085  C465    1.394   1_556 S
C1086  H1094   1.084   .     S
Cu1087 Cu1088  2.677   .     S
Cu1087 O1103   1.958   .     S
Cu1087 O1109   1.968   .     S
Cu1087 O1105   1.959   .     S
Cu1087 N1101   2.012   .     S
Cu1087 O1107   1.967   .     S
Cu1088 O1108   1.967   .     S
Cu1088 O1104   1.958   .     S
Cu1088 O1106   1.959   .     S
Cu1088 O1110   1.968   .     S
Cu1088 N1102   2.012   .     S
C1111  H1112   1.085   .     S
C1111  O1113   1.219   .     D
C1114  O1116   1.221   .     D
C1114  H1115   1.083   .     S
C1117  O1119   1.221   .     D
C1117  H1118   1.085   .     S
C1120  H1121   1.085   .     S
C1120  O1122   1.220   .     D
C1123  O1172   1.287   .     A
C1123  O1169   1.288   .     A
C1123  C1132   1.448   .     S
C1124  O1171   1.286   .     A
C1124  O1170   1.287   .     A
C1124  C1131   1.447   .     S
C1125  H1161   1.084   .     S
C1125  C1150   1.402   .     A
C1126  H1162   1.084   .     S
C1126  C1149   1.402   .     A
C1126  C558    1.394   1_556 S
C1127  C1132   1.414   .     A
C1127  C1177   1.498   .     S
C1128  C1180   1.496   .     S
C1128  C1131   1.410   .     A
C1128  C998    1.404   1_655 S
C1129  C1131   1.410   .     A
C1129  C1183   1.486   .     S
C1129  C995    1.408   1_655 S
C1130  C1186   1.490   .     S
C1130  C1132   1.414   .     A
C1133  H1163   1.082   .     S
C1133  N1168   1.367   .     A
C1134  H1164   1.082   .     S
C1134  N1167   1.367   .     A
C1134  C739    1.417   1_565 S
C1135  H1165   1.082   .     S
C1135  N1168   1.367   .     A
C1136  H1166   1.082   .     S
C1136  N1167   1.367   .     A
C1136  C737    1.417   1_565 S
C1137  O1173   1.294   .     A
C1137  C1142   1.461   .     S
C1137  O1176   1.294   .     A
C1138  C1141   1.461   .     S
C1138  O1174   1.294   .     A
C1138  O1175   1.294   .     A
C1139  H1155   1.084   .     S
C1139  C1141   1.403   .     A
C1139  C1149   1.393   .     A
C1140  H1156   1.084   .     S
C1140  C1142   1.403   .     A
C1140  C1150   1.393   .     A
C1141  C1143   1.403   .     A
C1142  C1144   1.403   .     A
C1143  H1157   1.084   .     S
C1143  C1145   1.393   .     A
C1144  H1158   1.084   .     S
C1144  C1146   1.393   .     A
C1145  C1151   1.402   .     A
C1145  C1147   1.411   .     A
C1146  C1152   1.402   .     A
C1146  C1148   1.411   .     A
C1147  C1149   1.411   .     A
C1147  C554    1.402   1_556 S
C1148  C1150   1.411   .     A
C1151  H1159   1.084   .     S
C1151  C531    1.394   1_556 S
C1152  H1160   1.084   .     S
Cu1153 Cu1154  2.677   .     S
Cu1153 O1169   1.958   .     S
Cu1153 O1175   1.968   .     S
Cu1153 O1171   1.959   .     S
Cu1153 N1167   2.012   .     S
Cu1153 O1173   1.967   .     S
Cu1154 O1174   1.967   .     S
Cu1154 O1170   1.958   .     S
Cu1154 O1172   1.959   .     S
Cu1154 O1176   1.968   .     S
Cu1154 N1168   2.012   .     S
C1177  H1178   1.085   .     S
C1177  O1179   1.219   .     D
C1180  O1182   1.221   .     D
C1180  H1181   1.083   .     S
C1183  O1185   1.221   .     D
C1183  H1184   1.085   .     S
C1186  H1187   1.085   .     S
C1186  O1188   1.220   .     D
