data_str_m2_o1_o17_pcu_sym.154
_audit_creation_date              2020-01-03
_audit_creation_method            'Materials Studio'
_symmetry_space_group_name_H-M    'P1'
_symmetry_Int_Tables_number       1
_symmetry_cell_setting            triclinic
loop_
_symmetry_equiv_pos_as_xyz
  x,y,z
_cell_length_a                    32.5935
_cell_length_b                    28.5550
_cell_length_c                    30.1171
_cell_angle_alpha                 90.2603
_cell_angle_beta                  90.0132
_cell_angle_gamma                 90.0508
loop_
_atom_site_label
_atom_site_type_symbol
_atom_site_fract_x
_atom_site_fract_y
_atom_site_fract_z
_atom_site_U_iso_or_equiv
_atom_site_adp_type
_atom_site_occupancy
C1     C     0.08741   0.16669   0.24994   0.00000  Uiso   1.00
C2     C     0.24592   0.16665   0.25006   0.00000  Uiso   1.00
C3     C     0.09189   0.15537   0.02214   0.00000  Uiso   1.00
C4     C     0.24145   0.17797   0.47786   0.00000  Uiso   1.00
C5     C     0.02133   0.13223   0.22556   0.00000  Uiso   1.00
C6     C     0.31201   0.20110   0.27444   0.00000  Uiso   1.00
C7     C     0.31196   0.13189   0.22596   0.00000  Uiso   1.00
C8     C     0.02138   0.20144   0.27404   0.00000  Uiso   1.00
C9     C     0.29054   0.16653   0.25017   0.00000  Uiso   1.00
C10    C     0.04280   0.16680   0.24983   0.00000  Uiso   1.00
C11    C     0.14475   0.02461   0.21907   0.00000  Uiso   1.00
C12    C     0.18859   0.30872   0.28093   0.00000  Uiso   1.00
C13    C     0.18868   0.02498   0.28087   0.00000  Uiso   1.00
C14    C     0.14465   0.30835   0.21913   0.00000  Uiso   1.00
C15    C     0.16646   0.16666   0.16454   0.00000  Uiso   1.00
C16    C     0.16687   0.16668   0.33546   0.00000  Uiso   1.00
C17    C     0.20462   0.16541   0.40641   0.00000  Uiso   1.00
C18    C     0.12871   0.16793   0.09359   0.00000  Uiso   1.00
C19    C     0.16709   0.16649   0.38364   0.00000  Uiso   1.00
C20    C     0.16625   0.16685   0.11636   0.00000  Uiso   1.00
C21    C     0.12971   0.16479   0.40634   0.00000  Uiso   1.00
C22    C     0.20363   0.16854   0.09366   0.00000  Uiso   1.00
C23    C     0.12960   0.16326   0.45286   0.00000  Uiso   1.00
C24    C     0.20373   0.17007   0.04714   0.00000  Uiso   1.00
C25    C     0.16701   0.16676   0.47649   0.00000  Uiso   1.00
C26    C     0.16632   0.16657   0.02351   0.00000  Uiso   1.00
C27    C     0.20500   0.17012   0.45318   0.00000  Uiso   1.00
C28    C     0.12833   0.16322   0.04682   0.00000  Uiso   1.00
C29    C     0.09283   0.15700   0.47610   0.00000  Uiso   1.00
C30    C     0.24050   0.17633   0.02390   0.00000  Uiso   1.00
Cu31   Cu    0.16667   0.21355   0.25000   0.00000  Uiso   1.00
Cu32   Cu    0.16667   0.11978   0.25000   0.00000  Uiso   1.00
H33    H     0.06423   0.15140   0.45865   0.00000  Uiso   1.00
H34    H     0.26910   0.18194   0.04135   0.00000  Uiso   1.00
H35    H     0.12734   0.04310   0.19416   0.00000  Uiso   1.00
H36    H     0.20599   0.29023   0.30584   0.00000  Uiso   1.00
H37    H     0.20639   0.04379   0.30555   0.00000  Uiso   1.00
H38    H     0.12694   0.28954   0.19445   0.00000  Uiso   1.00
N39    N     0.16667   0.28402   0.25000   0.00000  Uiso   1.00
N40    N     0.16667   0.04931   0.25000   0.00000  Uiso   1.00
O41    O     0.10655   0.20625   0.25000   0.00000  Uiso   1.00
O42    O     0.22679   0.12709   0.25000   0.00000  Uiso   1.00
O43    O     0.22679   0.20625   0.25001   0.00000  Uiso   1.00
O44    O     0.10655   0.12709   0.24999   0.00000  Uiso   1.00
O45    O     0.16666   0.20627   0.18513   0.00000  Uiso   1.00
O46    O     0.16668   0.12707   0.31487   0.00000  Uiso   1.00
O47    O     0.16668   0.20627   0.31487   0.00000  Uiso   1.00
O48    O     0.16666   0.12707   0.18513   0.00000  Uiso   1.00
Br49   Br    0.25230   0.14582   0.37273   0.00000  Uiso   1.00
Br50   Br    0.08103   0.18752   0.12727   0.00000  Uiso   1.00
Cl51   Cl    0.08335   0.16142   0.37555   0.00000  Uiso   1.00
Cl52   Cl    0.24998   0.17191   0.12445   0.00000  Uiso   1.00
Br53   Br    0.04068   0.13296   0.04605   0.00000  Uiso   1.00
Br54   Br    0.29265   0.20037   0.45395   0.00000  Uiso   1.00
Cl55   Cl    0.04714   0.09019   0.19221   0.00000  Uiso   1.00
Cl56   Cl    0.28619   0.24315   0.30779   0.00000  Uiso   1.00
Cl57   Cl    0.28611   0.08822   0.19440   0.00000  Uiso   1.00
Cl58   Cl    0.04722   0.24512   0.30560   0.00000  Uiso   1.00
C59    C     0.42074   0.16669   0.24994   0.00000  Uiso   1.00
C60    C     0.57926   0.16665   0.25006   0.00000  Uiso   1.00
C61    C     0.42522   0.15537   0.02214   0.00000  Uiso   1.00
C62    C     0.57478   0.17797   0.47786   0.00000  Uiso   1.00
C63    C     0.35466   0.13223   0.22556   0.00000  Uiso   1.00
C64    C     0.64534   0.20110   0.27444   0.00000  Uiso   1.00
C65    C     0.64529   0.13189   0.22596   0.00000  Uiso   1.00
C66    C     0.35471   0.20144   0.27404   0.00000  Uiso   1.00
C67    C     0.62387   0.16653   0.25017   0.00000  Uiso   1.00
C68    C     0.37613   0.16680   0.24983   0.00000  Uiso   1.00
C69    C     0.47808   0.02461   0.21907   0.00000  Uiso   1.00
C70    C     0.52192   0.30872   0.28093   0.00000  Uiso   1.00
C71    C     0.52201   0.02498   0.28087   0.00000  Uiso   1.00
C72    C     0.47799   0.30835   0.21913   0.00000  Uiso   1.00
C73    C     0.49980   0.16666   0.16454   0.00000  Uiso   1.00
C74    C     0.50020   0.16668   0.33546   0.00000  Uiso   1.00
C75    C     0.53796   0.16541   0.40641   0.00000  Uiso   1.00
C76    C     0.46204   0.16793   0.09359   0.00000  Uiso   1.00
C77    C     0.50042   0.16649   0.38364   0.00000  Uiso   1.00
C78    C     0.49958   0.16685   0.11636   0.00000  Uiso   1.00
C79    C     0.46304   0.16479   0.40634   0.00000  Uiso   1.00
C80    C     0.53696   0.16854   0.09366   0.00000  Uiso   1.00
C81    C     0.46293   0.16326   0.45286   0.00000  Uiso   1.00
C82    C     0.53707   0.17007   0.04714   0.00000  Uiso   1.00
C83    C     0.50034   0.16676   0.47649   0.00000  Uiso   1.00
C84    C     0.49966   0.16657   0.02351   0.00000  Uiso   1.00
C85    C     0.53834   0.17012   0.45318   0.00000  Uiso   1.00
C86    C     0.46166   0.16322   0.04682   0.00000  Uiso   1.00
C87    C     0.42616   0.15700   0.47610   0.00000  Uiso   1.00
C88    C     0.57384   0.17633   0.02390   0.00000  Uiso   1.00
Cu89   Cu    0.50000   0.21355   0.25000   0.00000  Uiso   1.00
Cu90   Cu    0.50000   0.11978   0.25000   0.00000  Uiso   1.00
H91    H     0.39757   0.15140   0.45865   0.00000  Uiso   1.00
H92    H     0.60243   0.18194   0.04135   0.00000  Uiso   1.00
H93    H     0.46067   0.04310   0.19416   0.00000  Uiso   1.00
H94    H     0.53933   0.29023   0.30584   0.00000  Uiso   1.00
H95    H     0.53973   0.04379   0.30555   0.00000  Uiso   1.00
H96    H     0.46027   0.28954   0.19445   0.00000  Uiso   1.00
N97    N     0.50000   0.28402   0.25000   0.00000  Uiso   1.00
N98    N     0.50000   0.04931   0.25000   0.00000  Uiso   1.00
O99    O     0.43988   0.20625   0.25000   0.00000  Uiso   1.00
O100   O     0.56012   0.12709   0.25000   0.00000  Uiso   1.00
O101   O     0.56012   0.20625   0.25001   0.00000  Uiso   1.00
O102   O     0.43988   0.12709   0.24999   0.00000  Uiso   1.00
O103   O     0.49999   0.20627   0.18513   0.00000  Uiso   1.00
O104   O     0.50001   0.12707   0.31487   0.00000  Uiso   1.00
O105   O     0.50001   0.20627   0.31487   0.00000  Uiso   1.00
O106   O     0.49999   0.12707   0.18513   0.00000  Uiso   1.00
Br107  Br    0.58563   0.14582   0.37273   0.00000  Uiso   1.00
Br108  Br    0.41437   0.18752   0.12727   0.00000  Uiso   1.00
Cl109  Cl    0.41668   0.16142   0.37555   0.00000  Uiso   1.00
Cl110  Cl    0.58332   0.17191   0.12445   0.00000  Uiso   1.00
Br111  Br    0.37401   0.13296   0.04605   0.00000  Uiso   1.00
Br112  Br    0.62599   0.20037   0.45395   0.00000  Uiso   1.00
Cl113  Cl    0.38047   0.09019   0.19221   0.00000  Uiso   1.00
Cl114  Cl    0.61953   0.24315   0.30779   0.00000  Uiso   1.00
Cl115  Cl    0.61945   0.08822   0.19440   0.00000  Uiso   1.00
Cl116  Cl    0.38055   0.24512   0.30560   0.00000  Uiso   1.00
C117   C     0.75408   0.16669   0.24994   0.00000  Uiso   1.00
C118   C     0.91259   0.16665   0.25006   0.00000  Uiso   1.00
C119   C     0.75855   0.15537   0.02214   0.00000  Uiso   1.00
C120   C     0.90811   0.17797   0.47786   0.00000  Uiso   1.00
C121   C     0.68799   0.13223   0.22556   0.00000  Uiso   1.00
C122   C     0.97867   0.20110   0.27444   0.00000  Uiso   1.00
C123   C     0.97862   0.13189   0.22596   0.00000  Uiso   1.00
C124   C     0.68804   0.20144   0.27404   0.00000  Uiso   1.00
C125   C     0.95720   0.16653   0.25017   0.00000  Uiso   1.00
C126   C     0.70946   0.16680   0.24983   0.00000  Uiso   1.00
C127   C     0.81141   0.02461   0.21907   0.00000  Uiso   1.00
C128   C     0.85525   0.30872   0.28093   0.00000  Uiso   1.00
C129   C     0.85535   0.02498   0.28087   0.00000  Uiso   1.00
C130   C     0.81132   0.30835   0.21913   0.00000  Uiso   1.00
C131   C     0.83313   0.16666   0.16454   0.00000  Uiso   1.00
C132   C     0.83354   0.16668   0.33546   0.00000  Uiso   1.00
C133   C     0.87129   0.16541   0.40641   0.00000  Uiso   1.00
C134   C     0.79538   0.16793   0.09359   0.00000  Uiso   1.00
C135   C     0.83375   0.16649   0.38364   0.00000  Uiso   1.00
C136   C     0.83291   0.16685   0.11636   0.00000  Uiso   1.00
C137   C     0.79637   0.16479   0.40634   0.00000  Uiso   1.00
C138   C     0.87029   0.16854   0.09366   0.00000  Uiso   1.00
C139   C     0.79627   0.16326   0.45286   0.00000  Uiso   1.00
C140   C     0.87040   0.17007   0.04714   0.00000  Uiso   1.00
C141   C     0.83368   0.16676   0.47649   0.00000  Uiso   1.00
C142   C     0.83299   0.16657   0.02351   0.00000  Uiso   1.00
C143   C     0.87167   0.17012   0.45318   0.00000  Uiso   1.00
C144   C     0.79500   0.16322   0.04682   0.00000  Uiso   1.00
C145   C     0.75950   0.15700   0.47610   0.00000  Uiso   1.00
C146   C     0.90717   0.17633   0.02390   0.00000  Uiso   1.00
Cu147  Cu    0.83333   0.21355   0.25000   0.00000  Uiso   1.00
Cu148  Cu    0.83333   0.11978   0.25000   0.00000  Uiso   1.00
H149   H     0.73090   0.15140   0.45865   0.00000  Uiso   1.00
H150   H     0.93577   0.18194   0.04135   0.00000  Uiso   1.00
H151   H     0.79401   0.04310   0.19416   0.00000  Uiso   1.00
H152   H     0.87266   0.29023   0.30584   0.00000  Uiso   1.00
H153   H     0.87306   0.04379   0.30555   0.00000  Uiso   1.00
H154   H     0.79361   0.28954   0.19445   0.00000  Uiso   1.00
N155   N     0.83333   0.28402   0.25000   0.00000  Uiso   1.00
N156   N     0.83333   0.04931   0.25000   0.00000  Uiso   1.00
O157   O     0.77321   0.20625   0.25000   0.00000  Uiso   1.00
O158   O     0.89345   0.12709   0.25000   0.00000  Uiso   1.00
O159   O     0.89345   0.20625   0.25001   0.00000  Uiso   1.00
O160   O     0.77321   0.12709   0.24999   0.00000  Uiso   1.00
O161   O     0.83332   0.20627   0.18513   0.00000  Uiso   1.00
O162   O     0.83334   0.12707   0.31487   0.00000  Uiso   1.00
O163   O     0.83334   0.20627   0.31487   0.00000  Uiso   1.00
O164   O     0.83332   0.12707   0.18513   0.00000  Uiso   1.00
Br165  Br    0.91897   0.14582   0.37273   0.00000  Uiso   1.00
Br166  Br    0.74770   0.18752   0.12727   0.00000  Uiso   1.00
Cl167  Cl    0.75002   0.16142   0.37555   0.00000  Uiso   1.00
Cl168  Cl    0.91665   0.17191   0.12445   0.00000  Uiso   1.00
Br169  Br    0.70735   0.13296   0.04605   0.00000  Uiso   1.00
Br170  Br    0.95932   0.20037   0.45395   0.00000  Uiso   1.00
Cl171  Cl    0.71381   0.09019   0.19221   0.00000  Uiso   1.00
Cl172  Cl    0.95286   0.24315   0.30779   0.00000  Uiso   1.00
Cl173  Cl    0.95278   0.08822   0.19440   0.00000  Uiso   1.00
Cl174  Cl    0.71389   0.24512   0.30560   0.00000  Uiso   1.00
C175   C     0.08741   0.50002   0.24994   0.00000  Uiso   1.00
C176   C     0.24592   0.49998   0.25006   0.00000  Uiso   1.00
C177   C     0.09189   0.48870   0.02214   0.00000  Uiso   1.00
C178   C     0.24145   0.51130   0.47786   0.00000  Uiso   1.00
C179   C     0.02133   0.46557   0.22556   0.00000  Uiso   1.00
C180   C     0.31201   0.53443   0.27444   0.00000  Uiso   1.00
C181   C     0.31196   0.46522   0.22596   0.00000  Uiso   1.00
C182   C     0.02138   0.53478   0.27404   0.00000  Uiso   1.00
C183   C     0.29054   0.49986   0.25017   0.00000  Uiso   1.00
C184   C     0.04280   0.50014   0.24983   0.00000  Uiso   1.00
C185   C     0.14475   0.35794   0.21907   0.00000  Uiso   1.00
C186   C     0.18859   0.64206   0.28093   0.00000  Uiso   1.00
C187   C     0.18868   0.35832   0.28087   0.00000  Uiso   1.00
C188   C     0.14465   0.64168   0.21913   0.00000  Uiso   1.00
C189   C     0.16646   0.49999   0.16454   0.00000  Uiso   1.00
C190   C     0.16687   0.50001   0.33546   0.00000  Uiso   1.00
C191   C     0.20462   0.49874   0.40641   0.00000  Uiso   1.00
C192   C     0.12871   0.50126   0.09359   0.00000  Uiso   1.00
C193   C     0.16709   0.49982   0.38364   0.00000  Uiso   1.00
C194   C     0.16625   0.50018   0.11636   0.00000  Uiso   1.00
C195   C     0.12971   0.49812   0.40634   0.00000  Uiso   1.00
C196   C     0.20363   0.50188   0.09366   0.00000  Uiso   1.00
C197   C     0.12960   0.49659   0.45286   0.00000  Uiso   1.00
C198   C     0.20373   0.50341   0.04714   0.00000  Uiso   1.00
C199   C     0.16701   0.50009   0.47649   0.00000  Uiso   1.00
C200   C     0.16632   0.49991   0.02351   0.00000  Uiso   1.00
C201   C     0.20500   0.50345   0.45318   0.00000  Uiso   1.00
C202   C     0.12833   0.49655   0.04682   0.00000  Uiso   1.00
C203   C     0.09283   0.49034   0.47610   0.00000  Uiso   1.00
C204   C     0.24050   0.50966   0.02390   0.00000  Uiso   1.00
Cu205  Cu    0.16667   0.54689   0.25000   0.00000  Uiso   1.00
Cu206  Cu    0.16667   0.45311   0.25000   0.00000  Uiso   1.00
H207   H     0.06423   0.48473   0.45865   0.00000  Uiso   1.00
H208   H     0.26910   0.51527   0.04135   0.00000  Uiso   1.00
H209   H     0.12734   0.37644   0.19416   0.00000  Uiso   1.00
H210   H     0.20599   0.62356   0.30584   0.00000  Uiso   1.00
H211   H     0.20639   0.37712   0.30555   0.00000  Uiso   1.00
H212   H     0.12694   0.62288   0.19445   0.00000  Uiso   1.00
N213   N     0.16667   0.61736   0.25000   0.00000  Uiso   1.00
N214   N     0.16667   0.38264   0.25000   0.00000  Uiso   1.00
O215   O     0.10655   0.53958   0.25000   0.00000  Uiso   1.00
O216   O     0.22679   0.46042   0.25000   0.00000  Uiso   1.00
O217   O     0.22679   0.53958   0.25001   0.00000  Uiso   1.00
O218   O     0.10655   0.46042   0.24999   0.00000  Uiso   1.00
O219   O     0.16666   0.53960   0.18513   0.00000  Uiso   1.00
O220   O     0.16668   0.46040   0.31487   0.00000  Uiso   1.00
O221   O     0.16668   0.53960   0.31487   0.00000  Uiso   1.00
O222   O     0.16666   0.46040   0.18513   0.00000  Uiso   1.00
Br223  Br    0.25230   0.47915   0.37273   0.00000  Uiso   1.00
Br224  Br    0.08103   0.52085   0.12727   0.00000  Uiso   1.00
Cl225  Cl    0.08335   0.49475   0.37555   0.00000  Uiso   1.00
Cl226  Cl    0.24998   0.50525   0.12445   0.00000  Uiso   1.00
Br227  Br    0.04068   0.46630   0.04605   0.00000  Uiso   1.00
Br228  Br    0.29265   0.53370   0.45395   0.00000  Uiso   1.00
Cl229  Cl    0.04714   0.42352   0.19221   0.00000  Uiso   1.00
Cl230  Cl    0.28619   0.57648   0.30779   0.00000  Uiso   1.00
Cl231  Cl    0.28611   0.42155   0.19440   0.00000  Uiso   1.00
Cl232  Cl    0.04722   0.57845   0.30560   0.00000  Uiso   1.00
C233   C     0.42074   0.50002   0.24994   0.00000  Uiso   1.00
C234   C     0.57926   0.49998   0.25006   0.00000  Uiso   1.00
C235   C     0.42522   0.48870   0.02214   0.00000  Uiso   1.00
C236   C     0.57478   0.51130   0.47786   0.00000  Uiso   1.00
C237   C     0.35466   0.46557   0.22556   0.00000  Uiso   1.00
C238   C     0.64534   0.53443   0.27444   0.00000  Uiso   1.00
C239   C     0.64529   0.46522   0.22596   0.00000  Uiso   1.00
C240   C     0.35471   0.53478   0.27404   0.00000  Uiso   1.00
C241   C     0.62387   0.49986   0.25017   0.00000  Uiso   1.00
C242   C     0.37613   0.50014   0.24983   0.00000  Uiso   1.00
C243   C     0.47808   0.35794   0.21907   0.00000  Uiso   1.00
C244   C     0.52192   0.64206   0.28093   0.00000  Uiso   1.00
C245   C     0.52201   0.35832   0.28087   0.00000  Uiso   1.00
C246   C     0.47799   0.64168   0.21913   0.00000  Uiso   1.00
C247   C     0.49980   0.49999   0.16454   0.00000  Uiso   1.00
C248   C     0.50020   0.50001   0.33546   0.00000  Uiso   1.00
C249   C     0.53796   0.49874   0.40641   0.00000  Uiso   1.00
C250   C     0.46204   0.50126   0.09359   0.00000  Uiso   1.00
C251   C     0.50042   0.49982   0.38364   0.00000  Uiso   1.00
C252   C     0.49958   0.50018   0.11636   0.00000  Uiso   1.00
C253   C     0.46304   0.49812   0.40634   0.00000  Uiso   1.00
C254   C     0.53696   0.50188   0.09366   0.00000  Uiso   1.00
C255   C     0.46293   0.49659   0.45286   0.00000  Uiso   1.00
C256   C     0.53707   0.50341   0.04714   0.00000  Uiso   1.00
C257   C     0.50034   0.50009   0.47649   0.00000  Uiso   1.00
C258   C     0.49966   0.49991   0.02351   0.00000  Uiso   1.00
C259   C     0.53834   0.50345   0.45318   0.00000  Uiso   1.00
C260   C     0.46166   0.49655   0.04682   0.00000  Uiso   1.00
C261   C     0.42616   0.49034   0.47610   0.00000  Uiso   1.00
C262   C     0.57384   0.50966   0.02390   0.00000  Uiso   1.00
Cu263  Cu    0.50000   0.54689   0.25000   0.00000  Uiso   1.00
Cu264  Cu    0.50000   0.45311   0.25000   0.00000  Uiso   1.00
H265   H     0.39757   0.48473   0.45865   0.00000  Uiso   1.00
H266   H     0.60243   0.51527   0.04135   0.00000  Uiso   1.00
H267   H     0.46067   0.37644   0.19416   0.00000  Uiso   1.00
H268   H     0.53933   0.62356   0.30584   0.00000  Uiso   1.00
H269   H     0.53973   0.37712   0.30555   0.00000  Uiso   1.00
H270   H     0.46027   0.62288   0.19445   0.00000  Uiso   1.00
N271   N     0.50000   0.61736   0.25000   0.00000  Uiso   1.00
N272   N     0.50000   0.38264   0.25000   0.00000  Uiso   1.00
O273   O     0.43988   0.53958   0.25000   0.00000  Uiso   1.00
O274   O     0.56012   0.46042   0.25000   0.00000  Uiso   1.00
O275   O     0.56012   0.53958   0.25001   0.00000  Uiso   1.00
O276   O     0.43988   0.46042   0.24999   0.00000  Uiso   1.00
O277   O     0.49999   0.53960   0.18513   0.00000  Uiso   1.00
O278   O     0.50001   0.46040   0.31487   0.00000  Uiso   1.00
O279   O     0.50001   0.53960   0.31487   0.00000  Uiso   1.00
O280   O     0.49999   0.46040   0.18513   0.00000  Uiso   1.00
Br281  Br    0.58563   0.47915   0.37273   0.00000  Uiso   1.00
Br282  Br    0.41437   0.52085   0.12727   0.00000  Uiso   1.00
Cl283  Cl    0.41668   0.49475   0.37555   0.00000  Uiso   1.00
Cl284  Cl    0.58332   0.50525   0.12445   0.00000  Uiso   1.00
Br285  Br    0.37401   0.46630   0.04605   0.00000  Uiso   1.00
Br286  Br    0.62599   0.53370   0.45395   0.00000  Uiso   1.00
Cl287  Cl    0.38047   0.42352   0.19221   0.00000  Uiso   1.00
Cl288  Cl    0.61953   0.57648   0.30779   0.00000  Uiso   1.00
Cl289  Cl    0.61945   0.42155   0.19440   0.00000  Uiso   1.00
Cl290  Cl    0.38055   0.57845   0.30560   0.00000  Uiso   1.00
C291   C     0.75408   0.50002   0.24994   0.00000  Uiso   1.00
C292   C     0.91259   0.49998   0.25006   0.00000  Uiso   1.00
C293   C     0.75855   0.48870   0.02214   0.00000  Uiso   1.00
C294   C     0.90811   0.51130   0.47786   0.00000  Uiso   1.00
C295   C     0.68799   0.46557   0.22556   0.00000  Uiso   1.00
C296   C     0.97867   0.53443   0.27444   0.00000  Uiso   1.00
C297   C     0.97862   0.46522   0.22596   0.00000  Uiso   1.00
C298   C     0.68804   0.53478   0.27404   0.00000  Uiso   1.00
C299   C     0.95720   0.49986   0.25017   0.00000  Uiso   1.00
C300   C     0.70946   0.50014   0.24983   0.00000  Uiso   1.00
C301   C     0.81141   0.35794   0.21907   0.00000  Uiso   1.00
C302   C     0.85525   0.64206   0.28093   0.00000  Uiso   1.00
C303   C     0.85535   0.35832   0.28087   0.00000  Uiso   1.00
C304   C     0.81132   0.64168   0.21913   0.00000  Uiso   1.00
C305   C     0.83313   0.49999   0.16454   0.00000  Uiso   1.00
C306   C     0.83354   0.50001   0.33546   0.00000  Uiso   1.00
C307   C     0.87129   0.49874   0.40641   0.00000  Uiso   1.00
C308   C     0.79538   0.50126   0.09359   0.00000  Uiso   1.00
C309   C     0.83375   0.49982   0.38364   0.00000  Uiso   1.00
C310   C     0.83291   0.50018   0.11636   0.00000  Uiso   1.00
C311   C     0.79637   0.49812   0.40634   0.00000  Uiso   1.00
C312   C     0.87029   0.50188   0.09366   0.00000  Uiso   1.00
C313   C     0.79627   0.49659   0.45286   0.00000  Uiso   1.00
C314   C     0.87040   0.50341   0.04714   0.00000  Uiso   1.00
C315   C     0.83368   0.50009   0.47649   0.00000  Uiso   1.00
C316   C     0.83299   0.49991   0.02351   0.00000  Uiso   1.00
C317   C     0.87167   0.50345   0.45318   0.00000  Uiso   1.00
C318   C     0.79500   0.49655   0.04682   0.00000  Uiso   1.00
C319   C     0.75950   0.49034   0.47610   0.00000  Uiso   1.00
C320   C     0.90717   0.50966   0.02390   0.00000  Uiso   1.00
Cu321  Cu    0.83333   0.54689   0.25000   0.00000  Uiso   1.00
Cu322  Cu    0.83333   0.45311   0.25000   0.00000  Uiso   1.00
H323   H     0.73090   0.48473   0.45865   0.00000  Uiso   1.00
H324   H     0.93577   0.51527   0.04135   0.00000  Uiso   1.00
H325   H     0.79401   0.37644   0.19416   0.00000  Uiso   1.00
H326   H     0.87266   0.62356   0.30584   0.00000  Uiso   1.00
H327   H     0.87306   0.37712   0.30555   0.00000  Uiso   1.00
H328   H     0.79361   0.62288   0.19445   0.00000  Uiso   1.00
N329   N     0.83333   0.61736   0.25000   0.00000  Uiso   1.00
N330   N     0.83333   0.38264   0.25000   0.00000  Uiso   1.00
O331   O     0.77321   0.53958   0.25000   0.00000  Uiso   1.00
O332   O     0.89345   0.46042   0.25000   0.00000  Uiso   1.00
O333   O     0.89345   0.53958   0.25001   0.00000  Uiso   1.00
O334   O     0.77321   0.46042   0.24999   0.00000  Uiso   1.00
O335   O     0.83332   0.53960   0.18513   0.00000  Uiso   1.00
O336   O     0.83334   0.46040   0.31487   0.00000  Uiso   1.00
O337   O     0.83334   0.53960   0.31487   0.00000  Uiso   1.00
O338   O     0.83332   0.46040   0.18513   0.00000  Uiso   1.00
Br339  Br    0.91897   0.47915   0.37273   0.00000  Uiso   1.00
Br340  Br    0.74770   0.52085   0.12727   0.00000  Uiso   1.00
Cl341  Cl    0.75002   0.49475   0.37555   0.00000  Uiso   1.00
Cl342  Cl    0.91665   0.50525   0.12445   0.00000  Uiso   1.00
Br343  Br    0.70735   0.46630   0.04605   0.00000  Uiso   1.00
Br344  Br    0.95932   0.53370   0.45395   0.00000  Uiso   1.00
Cl345  Cl    0.71381   0.42352   0.19221   0.00000  Uiso   1.00
Cl346  Cl    0.95286   0.57648   0.30779   0.00000  Uiso   1.00
Cl347  Cl    0.95278   0.42155   0.19440   0.00000  Uiso   1.00
Cl348  Cl    0.71389   0.57845   0.30560   0.00000  Uiso   1.00
C349   C     0.08741   0.83335   0.24994   0.00000  Uiso   1.00
C350   C     0.24592   0.83331   0.25006   0.00000  Uiso   1.00
C351   C     0.09189   0.82203   0.02214   0.00000  Uiso   1.00
C352   C     0.24145   0.84463   0.47786   0.00000  Uiso   1.00
C353   C     0.02133   0.79890   0.22556   0.00000  Uiso   1.00
C354   C     0.31201   0.86777   0.27444   0.00000  Uiso   1.00
C355   C     0.31196   0.79856   0.22596   0.00000  Uiso   1.00
C356   C     0.02138   0.86811   0.27404   0.00000  Uiso   1.00
C357   C     0.29054   0.83320   0.25017   0.00000  Uiso   1.00
C358   C     0.04280   0.83347   0.24983   0.00000  Uiso   1.00
C359   C     0.14475   0.69128   0.21907   0.00000  Uiso   1.00
C360   C     0.18859   0.97539   0.28093   0.00000  Uiso   1.00
C361   C     0.18868   0.69165   0.28087   0.00000  Uiso   1.00
C362   C     0.14465   0.97502   0.21913   0.00000  Uiso   1.00
C363   C     0.16646   0.83332   0.16454   0.00000  Uiso   1.00
C364   C     0.16687   0.83334   0.33546   0.00000  Uiso   1.00
C365   C     0.20462   0.83207   0.40641   0.00000  Uiso   1.00
C366   C     0.12871   0.83459   0.09359   0.00000  Uiso   1.00
C367   C     0.16709   0.83315   0.38364   0.00000  Uiso   1.00
C368   C     0.16625   0.83351   0.11636   0.00000  Uiso   1.00
C369   C     0.12971   0.83146   0.40634   0.00000  Uiso   1.00
C370   C     0.20363   0.83521   0.09366   0.00000  Uiso   1.00
C371   C     0.12960   0.82993   0.45286   0.00000  Uiso   1.00
C372   C     0.20373   0.83674   0.04714   0.00000  Uiso   1.00
C373   C     0.16701   0.83343   0.47649   0.00000  Uiso   1.00
C374   C     0.16632   0.83324   0.02351   0.00000  Uiso   1.00
C375   C     0.20500   0.83678   0.45318   0.00000  Uiso   1.00
C376   C     0.12833   0.82988   0.04682   0.00000  Uiso   1.00
C377   C     0.09283   0.82367   0.47610   0.00000  Uiso   1.00
C378   C     0.24050   0.84300   0.02390   0.00000  Uiso   1.00
Cu379  Cu    0.16667   0.88022   0.25000   0.00000  Uiso   1.00
Cu380  Cu    0.16667   0.78645   0.25000   0.00000  Uiso   1.00
H381   H     0.06423   0.81806   0.45865   0.00000  Uiso   1.00
H382   H     0.26910   0.84860   0.04135   0.00000  Uiso   1.00
H383   H     0.12734   0.70977   0.19416   0.00000  Uiso   1.00
H384   H     0.20599   0.95690   0.30584   0.00000  Uiso   1.00
H385   H     0.20639   0.71046   0.30555   0.00000  Uiso   1.00
H386   H     0.12694   0.95621   0.19445   0.00000  Uiso   1.00
N387   N     0.16667   0.95069   0.25000   0.00000  Uiso   1.00
N388   N     0.16667   0.71598   0.25000   0.00000  Uiso   1.00
O389   O     0.10655   0.87291   0.25000   0.00000  Uiso   1.00
O390   O     0.22679   0.79375   0.25000   0.00000  Uiso   1.00
O391   O     0.22679   0.87291   0.25001   0.00000  Uiso   1.00
O392   O     0.10655   0.79375   0.24999   0.00000  Uiso   1.00
O393   O     0.16666   0.87293   0.18513   0.00000  Uiso   1.00
O394   O     0.16668   0.79373   0.31487   0.00000  Uiso   1.00
O395   O     0.16668   0.87293   0.31487   0.00000  Uiso   1.00
O396   O     0.16666   0.79373   0.18513   0.00000  Uiso   1.00
Br397  Br    0.25230   0.81248   0.37273   0.00000  Uiso   1.00
Br398  Br    0.08103   0.85418   0.12727   0.00000  Uiso   1.00
Cl399  Cl    0.08335   0.82809   0.37555   0.00000  Uiso   1.00
Cl400  Cl    0.24998   0.83858   0.12445   0.00000  Uiso   1.00
Br401  Br    0.04068   0.79963   0.04605   0.00000  Uiso   1.00
Br402  Br    0.29265   0.86704   0.45395   0.00000  Uiso   1.00
Cl403  Cl    0.04714   0.75685   0.19221   0.00000  Uiso   1.00
Cl404  Cl    0.28619   0.90981   0.30779   0.00000  Uiso   1.00
Cl405  Cl    0.28611   0.75488   0.19440   0.00000  Uiso   1.00
Cl406  Cl    0.04722   0.91178   0.30560   0.00000  Uiso   1.00
C407   C     0.42074   0.83335   0.24994   0.00000  Uiso   1.00
C408   C     0.57926   0.83331   0.25006   0.00000  Uiso   1.00
C409   C     0.42522   0.82203   0.02214   0.00000  Uiso   1.00
C410   C     0.57478   0.84463   0.47786   0.00000  Uiso   1.00
C411   C     0.35466   0.79890   0.22556   0.00000  Uiso   1.00
C412   C     0.64534   0.86777   0.27444   0.00000  Uiso   1.00
C413   C     0.64529   0.79856   0.22596   0.00000  Uiso   1.00
C414   C     0.35471   0.86811   0.27404   0.00000  Uiso   1.00
C415   C     0.62387   0.83320   0.25017   0.00000  Uiso   1.00
C416   C     0.37613   0.83347   0.24983   0.00000  Uiso   1.00
C417   C     0.47808   0.69128   0.21907   0.00000  Uiso   1.00
C418   C     0.52192   0.97539   0.28093   0.00000  Uiso   1.00
C419   C     0.52201   0.69165   0.28087   0.00000  Uiso   1.00
C420   C     0.47799   0.97502   0.21913   0.00000  Uiso   1.00
C421   C     0.49980   0.83332   0.16454   0.00000  Uiso   1.00
C422   C     0.50020   0.83334   0.33546   0.00000  Uiso   1.00
C423   C     0.53796   0.83207   0.40641   0.00000  Uiso   1.00
C424   C     0.46204   0.83459   0.09359   0.00000  Uiso   1.00
C425   C     0.50042   0.83315   0.38364   0.00000  Uiso   1.00
C426   C     0.49958   0.83351   0.11636   0.00000  Uiso   1.00
C427   C     0.46304   0.83146   0.40634   0.00000  Uiso   1.00
C428   C     0.53696   0.83521   0.09366   0.00000  Uiso   1.00
C429   C     0.46293   0.82993   0.45286   0.00000  Uiso   1.00
C430   C     0.53707   0.83674   0.04714   0.00000  Uiso   1.00
C431   C     0.50034   0.83343   0.47649   0.00000  Uiso   1.00
C432   C     0.49966   0.83324   0.02351   0.00000  Uiso   1.00
C433   C     0.53834   0.83678   0.45318   0.00000  Uiso   1.00
C434   C     0.46166   0.82988   0.04682   0.00000  Uiso   1.00
C435   C     0.42616   0.82367   0.47610   0.00000  Uiso   1.00
C436   C     0.57384   0.84300   0.02390   0.00000  Uiso   1.00
Cu437  Cu    0.50000   0.88022   0.25000   0.00000  Uiso   1.00
Cu438  Cu    0.50000   0.78645   0.25000   0.00000  Uiso   1.00
H439   H     0.39757   0.81806   0.45865   0.00000  Uiso   1.00
H440   H     0.60243   0.84860   0.04135   0.00000  Uiso   1.00
H441   H     0.46067   0.70977   0.19416   0.00000  Uiso   1.00
H442   H     0.53933   0.95690   0.30584   0.00000  Uiso   1.00
H443   H     0.53973   0.71046   0.30555   0.00000  Uiso   1.00
H444   H     0.46027   0.95621   0.19445   0.00000  Uiso   1.00
N445   N     0.50000   0.95069   0.25000   0.00000  Uiso   1.00
N446   N     0.50000   0.71598   0.25000   0.00000  Uiso   1.00
O447   O     0.43988   0.87291   0.25000   0.00000  Uiso   1.00
O448   O     0.56012   0.79375   0.25000   0.00000  Uiso   1.00
O449   O     0.56012   0.87291   0.25001   0.00000  Uiso   1.00
O450   O     0.43988   0.79375   0.24999   0.00000  Uiso   1.00
O451   O     0.49999   0.87293   0.18513   0.00000  Uiso   1.00
O452   O     0.50001   0.79373   0.31487   0.00000  Uiso   1.00
O453   O     0.50001   0.87293   0.31487   0.00000  Uiso   1.00
O454   O     0.49999   0.79373   0.18513   0.00000  Uiso   1.00
Br455  Br    0.58563   0.81248   0.37273   0.00000  Uiso   1.00
Br456  Br    0.41437   0.85418   0.12727   0.00000  Uiso   1.00
Cl457  Cl    0.41668   0.82809   0.37555   0.00000  Uiso   1.00
Cl458  Cl    0.58332   0.83858   0.12445   0.00000  Uiso   1.00
Br459  Br    0.37401   0.79963   0.04605   0.00000  Uiso   1.00
Br460  Br    0.62599   0.86704   0.45395   0.00000  Uiso   1.00
Cl461  Cl    0.38047   0.75685   0.19221   0.00000  Uiso   1.00
Cl462  Cl    0.61953   0.90981   0.30779   0.00000  Uiso   1.00
Cl463  Cl    0.61945   0.75488   0.19440   0.00000  Uiso   1.00
Cl464  Cl    0.38055   0.91178   0.30560   0.00000  Uiso   1.00
C465   C     0.75408   0.83335   0.24994   0.00000  Uiso   1.00
C466   C     0.91259   0.83331   0.25006   0.00000  Uiso   1.00
C467   C     0.75855   0.82203   0.02214   0.00000  Uiso   1.00
C468   C     0.90811   0.84463   0.47786   0.00000  Uiso   1.00
C469   C     0.68799   0.79890   0.22556   0.00000  Uiso   1.00
C470   C     0.97867   0.86777   0.27444   0.00000  Uiso   1.00
C471   C     0.97862   0.79856   0.22596   0.00000  Uiso   1.00
C472   C     0.68804   0.86811   0.27404   0.00000  Uiso   1.00
C473   C     0.95720   0.83320   0.25017   0.00000  Uiso   1.00
C474   C     0.70946   0.83347   0.24983   0.00000  Uiso   1.00
C475   C     0.81141   0.69128   0.21907   0.00000  Uiso   1.00
C476   C     0.85525   0.97539   0.28093   0.00000  Uiso   1.00
C477   C     0.85535   0.69165   0.28087   0.00000  Uiso   1.00
C478   C     0.81132   0.97502   0.21913   0.00000  Uiso   1.00
C479   C     0.83313   0.83332   0.16454   0.00000  Uiso   1.00
C480   C     0.83354   0.83334   0.33546   0.00000  Uiso   1.00
C481   C     0.87129   0.83207   0.40641   0.00000  Uiso   1.00
C482   C     0.79538   0.83459   0.09359   0.00000  Uiso   1.00
C483   C     0.83375   0.83315   0.38364   0.00000  Uiso   1.00
C484   C     0.83291   0.83351   0.11636   0.00000  Uiso   1.00
C485   C     0.79637   0.83146   0.40634   0.00000  Uiso   1.00
C486   C     0.87029   0.83521   0.09366   0.00000  Uiso   1.00
C487   C     0.79627   0.82993   0.45286   0.00000  Uiso   1.00
C488   C     0.87040   0.83674   0.04714   0.00000  Uiso   1.00
C489   C     0.83368   0.83343   0.47649   0.00000  Uiso   1.00
C490   C     0.83299   0.83324   0.02351   0.00000  Uiso   1.00
C491   C     0.87167   0.83678   0.45318   0.00000  Uiso   1.00
C492   C     0.79500   0.82988   0.04682   0.00000  Uiso   1.00
C493   C     0.75950   0.82367   0.47610   0.00000  Uiso   1.00
C494   C     0.90717   0.84300   0.02390   0.00000  Uiso   1.00
Cu495  Cu    0.83333   0.88022   0.25000   0.00000  Uiso   1.00
Cu496  Cu    0.83333   0.78645   0.25000   0.00000  Uiso   1.00
H497   H     0.73090   0.81806   0.45865   0.00000  Uiso   1.00
H498   H     0.93577   0.84860   0.04135   0.00000  Uiso   1.00
H499   H     0.79401   0.70977   0.19416   0.00000  Uiso   1.00
H500   H     0.87266   0.95690   0.30584   0.00000  Uiso   1.00
H501   H     0.87306   0.71046   0.30555   0.00000  Uiso   1.00
H502   H     0.79361   0.95621   0.19445   0.00000  Uiso   1.00
N503   N     0.83333   0.95069   0.25000   0.00000  Uiso   1.00
N504   N     0.83333   0.71598   0.25000   0.00000  Uiso   1.00
O505   O     0.77321   0.87291   0.25000   0.00000  Uiso   1.00
O506   O     0.89345   0.79375   0.25000   0.00000  Uiso   1.00
O507   O     0.89345   0.87291   0.25001   0.00000  Uiso   1.00
O508   O     0.77321   0.79375   0.24999   0.00000  Uiso   1.00
O509   O     0.83332   0.87293   0.18513   0.00000  Uiso   1.00
O510   O     0.83334   0.79373   0.31487   0.00000  Uiso   1.00
O511   O     0.83334   0.87293   0.31487   0.00000  Uiso   1.00
O512   O     0.83332   0.79373   0.18513   0.00000  Uiso   1.00
Br513  Br    0.91897   0.81248   0.37273   0.00000  Uiso   1.00
Br514  Br    0.74770   0.85418   0.12727   0.00000  Uiso   1.00
Cl515  Cl    0.75002   0.82809   0.37555   0.00000  Uiso   1.00
Cl516  Cl    0.91665   0.83858   0.12445   0.00000  Uiso   1.00
Br517  Br    0.70735   0.79963   0.04605   0.00000  Uiso   1.00
Br518  Br    0.95932   0.86704   0.45395   0.00000  Uiso   1.00
Cl519  Cl    0.71381   0.75685   0.19221   0.00000  Uiso   1.00
Cl520  Cl    0.95286   0.90981   0.30779   0.00000  Uiso   1.00
Cl521  Cl    0.95278   0.75488   0.19440   0.00000  Uiso   1.00
Cl522  Cl    0.71389   0.91178   0.30560   0.00000  Uiso   1.00
C523   C     0.08741   0.16669   0.74994   0.00000  Uiso   1.00
C524   C     0.24592   0.16665   0.75006   0.00000  Uiso   1.00
C525   C     0.09189   0.15537   0.52214   0.00000  Uiso   1.00
C526   C     0.24145   0.17797   0.97786   0.00000  Uiso   1.00
C527   C     0.02133   0.13223   0.72556   0.00000  Uiso   1.00
C528   C     0.31201   0.20110   0.77444   0.00000  Uiso   1.00
C529   C     0.31196   0.13189   0.72596   0.00000  Uiso   1.00
C530   C     0.02138   0.20144   0.77404   0.00000  Uiso   1.00
C531   C     0.29054   0.16653   0.75017   0.00000  Uiso   1.00
C532   C     0.04280   0.16680   0.74983   0.00000  Uiso   1.00
C533   C     0.14475   0.02461   0.71907   0.00000  Uiso   1.00
C534   C     0.18859   0.30872   0.78093   0.00000  Uiso   1.00
C535   C     0.18868   0.02498   0.78087   0.00000  Uiso   1.00
C536   C     0.14465   0.30835   0.71913   0.00000  Uiso   1.00
C537   C     0.16646   0.16666   0.66454   0.00000  Uiso   1.00
C538   C     0.16687   0.16668   0.83546   0.00000  Uiso   1.00
C539   C     0.20462   0.16541   0.90641   0.00000  Uiso   1.00
C540   C     0.12871   0.16793   0.59359   0.00000  Uiso   1.00
C541   C     0.16709   0.16649   0.88364   0.00000  Uiso   1.00
C542   C     0.16625   0.16685   0.61636   0.00000  Uiso   1.00
C543   C     0.12971   0.16479   0.90634   0.00000  Uiso   1.00
C544   C     0.20363   0.16854   0.59366   0.00000  Uiso   1.00
C545   C     0.12960   0.16326   0.95286   0.00000  Uiso   1.00
C546   C     0.20373   0.17007   0.54714   0.00000  Uiso   1.00
C547   C     0.16701   0.16676   0.97649   0.00000  Uiso   1.00
C548   C     0.16632   0.16657   0.52351   0.00000  Uiso   1.00
C549   C     0.20500   0.17012   0.95318   0.00000  Uiso   1.00
C550   C     0.12833   0.16322   0.54682   0.00000  Uiso   1.00
C551   C     0.09283   0.15700   0.97610   0.00000  Uiso   1.00
C552   C     0.24050   0.17633   0.52390   0.00000  Uiso   1.00
Cu553  Cu    0.16667   0.21355   0.75000   0.00000  Uiso   1.00
Cu554  Cu    0.16667   0.11978   0.75000   0.00000  Uiso   1.00
H555   H     0.06423   0.15140   0.95865   0.00000  Uiso   1.00
H556   H     0.26910   0.18194   0.54135   0.00000  Uiso   1.00
H557   H     0.12734   0.04310   0.69416   0.00000  Uiso   1.00
H558   H     0.20599   0.29023   0.80584   0.00000  Uiso   1.00
H559   H     0.20639   0.04379   0.80555   0.00000  Uiso   1.00
H560   H     0.12694   0.28954   0.69445   0.00000  Uiso   1.00
N561   N     0.16667   0.28402   0.75000   0.00000  Uiso   1.00
N562   N     0.16667   0.04931   0.75000   0.00000  Uiso   1.00
O563   O     0.10655   0.20625   0.75000   0.00000  Uiso   1.00
O564   O     0.22679   0.12709   0.75000   0.00000  Uiso   1.00
O565   O     0.22679   0.20625   0.75001   0.00000  Uiso   1.00
O566   O     0.10655   0.12709   0.74999   0.00000  Uiso   1.00
O567   O     0.16666   0.20627   0.68513   0.00000  Uiso   1.00
O568   O     0.16668   0.12707   0.81487   0.00000  Uiso   1.00
O569   O     0.16668   0.20627   0.81487   0.00000  Uiso   1.00
O570   O     0.16666   0.12707   0.68513   0.00000  Uiso   1.00
Br571  Br    0.25230   0.14582   0.87273   0.00000  Uiso   1.00
Br572  Br    0.08103   0.18752   0.62727   0.00000  Uiso   1.00
Cl573  Cl    0.08335   0.16142   0.87555   0.00000  Uiso   1.00
Cl574  Cl    0.24998   0.17191   0.62445   0.00000  Uiso   1.00
Br575  Br    0.04068   0.13296   0.54605   0.00000  Uiso   1.00
Br576  Br    0.29265   0.20037   0.95395   0.00000  Uiso   1.00
Cl577  Cl    0.04714   0.09019   0.69221   0.00000  Uiso   1.00
Cl578  Cl    0.28619   0.24315   0.80779   0.00000  Uiso   1.00
Cl579  Cl    0.28611   0.08822   0.69440   0.00000  Uiso   1.00
Cl580  Cl    0.04722   0.24512   0.80560   0.00000  Uiso   1.00
C581   C     0.42074   0.16669   0.74994   0.00000  Uiso   1.00
C582   C     0.57926   0.16665   0.75006   0.00000  Uiso   1.00
C583   C     0.42522   0.15537   0.52214   0.00000  Uiso   1.00
C584   C     0.57478   0.17797   0.97786   0.00000  Uiso   1.00
C585   C     0.35466   0.13223   0.72556   0.00000  Uiso   1.00
C586   C     0.64534   0.20110   0.77444   0.00000  Uiso   1.00
C587   C     0.64529   0.13189   0.72596   0.00000  Uiso   1.00
C588   C     0.35471   0.20144   0.77404   0.00000  Uiso   1.00
C589   C     0.62387   0.16653   0.75017   0.00000  Uiso   1.00
C590   C     0.37613   0.16680   0.74983   0.00000  Uiso   1.00
C591   C     0.47808   0.02461   0.71907   0.00000  Uiso   1.00
C592   C     0.52192   0.30872   0.78093   0.00000  Uiso   1.00
C593   C     0.52201   0.02498   0.78087   0.00000  Uiso   1.00
C594   C     0.47799   0.30835   0.71913   0.00000  Uiso   1.00
C595   C     0.49980   0.16666   0.66454   0.00000  Uiso   1.00
C596   C     0.50020   0.16668   0.83546   0.00000  Uiso   1.00
C597   C     0.53796   0.16541   0.90641   0.00000  Uiso   1.00
C598   C     0.46204   0.16793   0.59359   0.00000  Uiso   1.00
C599   C     0.50042   0.16649   0.88364   0.00000  Uiso   1.00
C600   C     0.49958   0.16685   0.61636   0.00000  Uiso   1.00
C601   C     0.46304   0.16479   0.90634   0.00000  Uiso   1.00
C602   C     0.53696   0.16854   0.59366   0.00000  Uiso   1.00
C603   C     0.46293   0.16326   0.95286   0.00000  Uiso   1.00
C604   C     0.53707   0.17007   0.54714   0.00000  Uiso   1.00
C605   C     0.50034   0.16676   0.97649   0.00000  Uiso   1.00
C606   C     0.49966   0.16657   0.52351   0.00000  Uiso   1.00
C607   C     0.53834   0.17012   0.95318   0.00000  Uiso   1.00
C608   C     0.46166   0.16322   0.54682   0.00000  Uiso   1.00
C609   C     0.42616   0.15700   0.97610   0.00000  Uiso   1.00
C610   C     0.57384   0.17633   0.52390   0.00000  Uiso   1.00
Cu611  Cu    0.50000   0.21355   0.75000   0.00000  Uiso   1.00
Cu612  Cu    0.50000   0.11978   0.75000   0.00000  Uiso   1.00
H613   H     0.39757   0.15140   0.95865   0.00000  Uiso   1.00
H614   H     0.60243   0.18194   0.54135   0.00000  Uiso   1.00
H615   H     0.46067   0.04310   0.69416   0.00000  Uiso   1.00
H616   H     0.53933   0.29023   0.80584   0.00000  Uiso   1.00
H617   H     0.53973   0.04379   0.80555   0.00000  Uiso   1.00
H618   H     0.46027   0.28954   0.69445   0.00000  Uiso   1.00
N619   N     0.50000   0.28402   0.75000   0.00000  Uiso   1.00
N620   N     0.50000   0.04931   0.75000   0.00000  Uiso   1.00
O621   O     0.43988   0.20625   0.75000   0.00000  Uiso   1.00
O622   O     0.56012   0.12709   0.75000   0.00000  Uiso   1.00
O623   O     0.56012   0.20625   0.75001   0.00000  Uiso   1.00
O624   O     0.43988   0.12709   0.74999   0.00000  Uiso   1.00
O625   O     0.49999   0.20627   0.68513   0.00000  Uiso   1.00
O626   O     0.50001   0.12707   0.81487   0.00000  Uiso   1.00
O627   O     0.50001   0.20627   0.81487   0.00000  Uiso   1.00
O628   O     0.49999   0.12707   0.68513   0.00000  Uiso   1.00
Br629  Br    0.58563   0.14582   0.87273   0.00000  Uiso   1.00
Br630  Br    0.41437   0.18752   0.62727   0.00000  Uiso   1.00
Cl631  Cl    0.41668   0.16142   0.87555   0.00000  Uiso   1.00
Cl632  Cl    0.58332   0.17191   0.62445   0.00000  Uiso   1.00
Br633  Br    0.37401   0.13296   0.54605   0.00000  Uiso   1.00
Br634  Br    0.62599   0.20037   0.95395   0.00000  Uiso   1.00
Cl635  Cl    0.38047   0.09019   0.69221   0.00000  Uiso   1.00
Cl636  Cl    0.61953   0.24315   0.80779   0.00000  Uiso   1.00
Cl637  Cl    0.61945   0.08822   0.69440   0.00000  Uiso   1.00
Cl638  Cl    0.38055   0.24512   0.80560   0.00000  Uiso   1.00
C639   C     0.75408   0.16669   0.74994   0.00000  Uiso   1.00
C640   C     0.91259   0.16665   0.75006   0.00000  Uiso   1.00
C641   C     0.75855   0.15537   0.52214   0.00000  Uiso   1.00
C642   C     0.90811   0.17797   0.97786   0.00000  Uiso   1.00
C643   C     0.68799   0.13223   0.72556   0.00000  Uiso   1.00
C644   C     0.97867   0.20110   0.77444   0.00000  Uiso   1.00
C645   C     0.97862   0.13189   0.72596   0.00000  Uiso   1.00
C646   C     0.68804   0.20144   0.77404   0.00000  Uiso   1.00
C647   C     0.95720   0.16653   0.75017   0.00000  Uiso   1.00
C648   C     0.70946   0.16680   0.74983   0.00000  Uiso   1.00
C649   C     0.81141   0.02461   0.71907   0.00000  Uiso   1.00
C650   C     0.85525   0.30872   0.78093   0.00000  Uiso   1.00
C651   C     0.85535   0.02498   0.78087   0.00000  Uiso   1.00
C652   C     0.81132   0.30835   0.71913   0.00000  Uiso   1.00
C653   C     0.83313   0.16666   0.66454   0.00000  Uiso   1.00
C654   C     0.83354   0.16668   0.83546   0.00000  Uiso   1.00
C655   C     0.87129   0.16541   0.90641   0.00000  Uiso   1.00
C656   C     0.79538   0.16793   0.59359   0.00000  Uiso   1.00
C657   C     0.83375   0.16649   0.88364   0.00000  Uiso   1.00
C658   C     0.83291   0.16685   0.61636   0.00000  Uiso   1.00
C659   C     0.79637   0.16479   0.90634   0.00000  Uiso   1.00
C660   C     0.87029   0.16854   0.59366   0.00000  Uiso   1.00
C661   C     0.79627   0.16326   0.95286   0.00000  Uiso   1.00
C662   C     0.87040   0.17007   0.54714   0.00000  Uiso   1.00
C663   C     0.83368   0.16676   0.97649   0.00000  Uiso   1.00
C664   C     0.83299   0.16657   0.52351   0.00000  Uiso   1.00
C665   C     0.87167   0.17012   0.95318   0.00000  Uiso   1.00
C666   C     0.79500   0.16322   0.54682   0.00000  Uiso   1.00
C667   C     0.75950   0.15700   0.97610   0.00000  Uiso   1.00
C668   C     0.90717   0.17633   0.52390   0.00000  Uiso   1.00
Cu669  Cu    0.83333   0.21355   0.75000   0.00000  Uiso   1.00
Cu670  Cu    0.83333   0.11978   0.75000   0.00000  Uiso   1.00
H671   H     0.73090   0.15140   0.95865   0.00000  Uiso   1.00
H672   H     0.93577   0.18194   0.54135   0.00000  Uiso   1.00
H673   H     0.79401   0.04310   0.69416   0.00000  Uiso   1.00
H674   H     0.87266   0.29023   0.80584   0.00000  Uiso   1.00
H675   H     0.87306   0.04379   0.80555   0.00000  Uiso   1.00
H676   H     0.79361   0.28954   0.69445   0.00000  Uiso   1.00
N677   N     0.83333   0.28402   0.75000   0.00000  Uiso   1.00
N678   N     0.83333   0.04931   0.75000   0.00000  Uiso   1.00
O679   O     0.77321   0.20625   0.75000   0.00000  Uiso   1.00
O680   O     0.89345   0.12709   0.75000   0.00000  Uiso   1.00
O681   O     0.89345   0.20625   0.75001   0.00000  Uiso   1.00
O682   O     0.77321   0.12709   0.74999   0.00000  Uiso   1.00
O683   O     0.83332   0.20627   0.68513   0.00000  Uiso   1.00
O684   O     0.83334   0.12707   0.81487   0.00000  Uiso   1.00
O685   O     0.83334   0.20627   0.81487   0.00000  Uiso   1.00
O686   O     0.83332   0.12707   0.68513   0.00000  Uiso   1.00
Br687  Br    0.91897   0.14582   0.87273   0.00000  Uiso   1.00
Br688  Br    0.74770   0.18752   0.62727   0.00000  Uiso   1.00
Cl689  Cl    0.75002   0.16142   0.87555   0.00000  Uiso   1.00
Cl690  Cl    0.91665   0.17191   0.62445   0.00000  Uiso   1.00
Br691  Br    0.70735   0.13296   0.54605   0.00000  Uiso   1.00
Br692  Br    0.95932   0.20037   0.95395   0.00000  Uiso   1.00
Cl693  Cl    0.71381   0.09019   0.69221   0.00000  Uiso   1.00
Cl694  Cl    0.95286   0.24315   0.80779   0.00000  Uiso   1.00
Cl695  Cl    0.95278   0.08822   0.69440   0.00000  Uiso   1.00
Cl696  Cl    0.71389   0.24512   0.80560   0.00000  Uiso   1.00
C697   C     0.08741   0.50002   0.74994   0.00000  Uiso   1.00
C698   C     0.24592   0.49998   0.75006   0.00000  Uiso   1.00
C699   C     0.09189   0.48870   0.52214   0.00000  Uiso   1.00
C700   C     0.24145   0.51130   0.97786   0.00000  Uiso   1.00
C701   C     0.02133   0.46557   0.72556   0.00000  Uiso   1.00
C702   C     0.31201   0.53443   0.77444   0.00000  Uiso   1.00
C703   C     0.31196   0.46522   0.72596   0.00000  Uiso   1.00
C704   C     0.02138   0.53478   0.77404   0.00000  Uiso   1.00
C705   C     0.29054   0.49986   0.75017   0.00000  Uiso   1.00
C706   C     0.04280   0.50014   0.74983   0.00000  Uiso   1.00
C707   C     0.14475   0.35794   0.71907   0.00000  Uiso   1.00
C708   C     0.18859   0.64206   0.78093   0.00000  Uiso   1.00
C709   C     0.18868   0.35832   0.78087   0.00000  Uiso   1.00
C710   C     0.14465   0.64168   0.71913   0.00000  Uiso   1.00
C711   C     0.16646   0.49999   0.66454   0.00000  Uiso   1.00
C712   C     0.16687   0.50001   0.83546   0.00000  Uiso   1.00
C713   C     0.20462   0.49874   0.90641   0.00000  Uiso   1.00
C714   C     0.12871   0.50126   0.59359   0.00000  Uiso   1.00
C715   C     0.16709   0.49982   0.88364   0.00000  Uiso   1.00
C716   C     0.16625   0.50018   0.61636   0.00000  Uiso   1.00
C717   C     0.12971   0.49812   0.90634   0.00000  Uiso   1.00
C718   C     0.20363   0.50188   0.59366   0.00000  Uiso   1.00
C719   C     0.12960   0.49659   0.95286   0.00000  Uiso   1.00
C720   C     0.20373   0.50341   0.54714   0.00000  Uiso   1.00
C721   C     0.16701   0.50009   0.97649   0.00000  Uiso   1.00
C722   C     0.16632   0.49991   0.52351   0.00000  Uiso   1.00
C723   C     0.20500   0.50345   0.95318   0.00000  Uiso   1.00
C724   C     0.12833   0.49655   0.54682   0.00000  Uiso   1.00
C725   C     0.09283   0.49034   0.97610   0.00000  Uiso   1.00
C726   C     0.24050   0.50966   0.52390   0.00000  Uiso   1.00
Cu727  Cu    0.16667   0.54689   0.75000   0.00000  Uiso   1.00
Cu728  Cu    0.16667   0.45311   0.75000   0.00000  Uiso   1.00
H729   H     0.06423   0.48473   0.95865   0.00000  Uiso   1.00
H730   H     0.26910   0.51527   0.54135   0.00000  Uiso   1.00
H731   H     0.12734   0.37644   0.69416   0.00000  Uiso   1.00
H732   H     0.20599   0.62356   0.80584   0.00000  Uiso   1.00
H733   H     0.20639   0.37712   0.80555   0.00000  Uiso   1.00
H734   H     0.12694   0.62288   0.69445   0.00000  Uiso   1.00
N735   N     0.16667   0.61736   0.75000   0.00000  Uiso   1.00
N736   N     0.16667   0.38264   0.75000   0.00000  Uiso   1.00
O737   O     0.10655   0.53958   0.75000   0.00000  Uiso   1.00
O738   O     0.22679   0.46042   0.75000   0.00000  Uiso   1.00
O739   O     0.22679   0.53958   0.75001   0.00000  Uiso   1.00
O740   O     0.10655   0.46042   0.74999   0.00000  Uiso   1.00
O741   O     0.16666   0.53960   0.68513   0.00000  Uiso   1.00
O742   O     0.16668   0.46040   0.81487   0.00000  Uiso   1.00
O743   O     0.16668   0.53960   0.81487   0.00000  Uiso   1.00
O744   O     0.16666   0.46040   0.68513   0.00000  Uiso   1.00
Br745  Br    0.25230   0.47915   0.87273   0.00000  Uiso   1.00
Br746  Br    0.08103   0.52085   0.62727   0.00000  Uiso   1.00
Cl747  Cl    0.08335   0.49475   0.87555   0.00000  Uiso   1.00
Cl748  Cl    0.24998   0.50525   0.62445   0.00000  Uiso   1.00
Br749  Br    0.04068   0.46630   0.54605   0.00000  Uiso   1.00
Br750  Br    0.29265   0.53370   0.95395   0.00000  Uiso   1.00
Cl751  Cl    0.04714   0.42352   0.69221   0.00000  Uiso   1.00
Cl752  Cl    0.28619   0.57648   0.80779   0.00000  Uiso   1.00
Cl753  Cl    0.28611   0.42155   0.69440   0.00000  Uiso   1.00
Cl754  Cl    0.04722   0.57845   0.80560   0.00000  Uiso   1.00
C755   C     0.42074   0.50002   0.74994   0.00000  Uiso   1.00
C756   C     0.57926   0.49998   0.75006   0.00000  Uiso   1.00
C757   C     0.42522   0.48870   0.52214   0.00000  Uiso   1.00
C758   C     0.57478   0.51130   0.97786   0.00000  Uiso   1.00
C759   C     0.35466   0.46557   0.72556   0.00000  Uiso   1.00
C760   C     0.64534   0.53443   0.77444   0.00000  Uiso   1.00
C761   C     0.64529   0.46522   0.72596   0.00000  Uiso   1.00
C762   C     0.35471   0.53478   0.77404   0.00000  Uiso   1.00
C763   C     0.62387   0.49986   0.75017   0.00000  Uiso   1.00
C764   C     0.37613   0.50014   0.74983   0.00000  Uiso   1.00
C765   C     0.47808   0.35794   0.71907   0.00000  Uiso   1.00
C766   C     0.52192   0.64206   0.78093   0.00000  Uiso   1.00
C767   C     0.52201   0.35832   0.78087   0.00000  Uiso   1.00
C768   C     0.47799   0.64168   0.71913   0.00000  Uiso   1.00
C769   C     0.49980   0.49999   0.66454   0.00000  Uiso   1.00
C770   C     0.50020   0.50001   0.83546   0.00000  Uiso   1.00
C771   C     0.53796   0.49874   0.90641   0.00000  Uiso   1.00
C772   C     0.46204   0.50126   0.59359   0.00000  Uiso   1.00
C773   C     0.50042   0.49982   0.88364   0.00000  Uiso   1.00
C774   C     0.49958   0.50018   0.61636   0.00000  Uiso   1.00
C775   C     0.46304   0.49812   0.90634   0.00000  Uiso   1.00
C776   C     0.53696   0.50188   0.59366   0.00000  Uiso   1.00
C777   C     0.46293   0.49659   0.95286   0.00000  Uiso   1.00
C778   C     0.53707   0.50341   0.54714   0.00000  Uiso   1.00
C779   C     0.50034   0.50009   0.97649   0.00000  Uiso   1.00
C780   C     0.49966   0.49991   0.52351   0.00000  Uiso   1.00
C781   C     0.53834   0.50345   0.95318   0.00000  Uiso   1.00
C782   C     0.46166   0.49655   0.54682   0.00000  Uiso   1.00
C783   C     0.42616   0.49034   0.97610   0.00000  Uiso   1.00
C784   C     0.57384   0.50966   0.52390   0.00000  Uiso   1.00
Cu785  Cu    0.50000   0.54689   0.75000   0.00000  Uiso   1.00
Cu786  Cu    0.50000   0.45311   0.75000   0.00000  Uiso   1.00
H787   H     0.39757   0.48473   0.95865   0.00000  Uiso   1.00
H788   H     0.60243   0.51527   0.54135   0.00000  Uiso   1.00
H789   H     0.46067   0.37644   0.69416   0.00000  Uiso   1.00
H790   H     0.53933   0.62356   0.80584   0.00000  Uiso   1.00
H791   H     0.53973   0.37712   0.80555   0.00000  Uiso   1.00
H792   H     0.46027   0.62288   0.69445   0.00000  Uiso   1.00
N793   N     0.50000   0.61736   0.75000   0.00000  Uiso   1.00
N794   N     0.50000   0.38264   0.75000   0.00000  Uiso   1.00
O795   O     0.43988   0.53958   0.75000   0.00000  Uiso   1.00
O796   O     0.56012   0.46042   0.75000   0.00000  Uiso   1.00
O797   O     0.56012   0.53958   0.75001   0.00000  Uiso   1.00
O798   O     0.43988   0.46042   0.74999   0.00000  Uiso   1.00
O799   O     0.49999   0.53960   0.68513   0.00000  Uiso   1.00
O800   O     0.50001   0.46040   0.81487   0.00000  Uiso   1.00
O801   O     0.50001   0.53960   0.81487   0.00000  Uiso   1.00
O802   O     0.49999   0.46040   0.68513   0.00000  Uiso   1.00
Br803  Br    0.58563   0.47915   0.87273   0.00000  Uiso   1.00
Br804  Br    0.41437   0.52085   0.62727   0.00000  Uiso   1.00
Cl805  Cl    0.41668   0.49475   0.87555   0.00000  Uiso   1.00
Cl806  Cl    0.58332   0.50525   0.62445   0.00000  Uiso   1.00
Br807  Br    0.37401   0.46630   0.54605   0.00000  Uiso   1.00
Br808  Br    0.62599   0.53370   0.95395   0.00000  Uiso   1.00
Cl809  Cl    0.38047   0.42352   0.69221   0.00000  Uiso   1.00
Cl810  Cl    0.61953   0.57648   0.80779   0.00000  Uiso   1.00
Cl811  Cl    0.61945   0.42155   0.69440   0.00000  Uiso   1.00
Cl812  Cl    0.38055   0.57845   0.80560   0.00000  Uiso   1.00
C813   C     0.75408   0.50002   0.74994   0.00000  Uiso   1.00
C814   C     0.91259   0.49998   0.75006   0.00000  Uiso   1.00
C815   C     0.75855   0.48870   0.52214   0.00000  Uiso   1.00
C816   C     0.90811   0.51130   0.97786   0.00000  Uiso   1.00
C817   C     0.68799   0.46557   0.72556   0.00000  Uiso   1.00
C818   C     0.97867   0.53443   0.77444   0.00000  Uiso   1.00
C819   C     0.97862   0.46522   0.72596   0.00000  Uiso   1.00
C820   C     0.68804   0.53478   0.77404   0.00000  Uiso   1.00
C821   C     0.95720   0.49986   0.75017   0.00000  Uiso   1.00
C822   C     0.70946   0.50014   0.74983   0.00000  Uiso   1.00
C823   C     0.81141   0.35794   0.71907   0.00000  Uiso   1.00
C824   C     0.85525   0.64206   0.78093   0.00000  Uiso   1.00
C825   C     0.85535   0.35832   0.78087   0.00000  Uiso   1.00
C826   C     0.81132   0.64168   0.71913   0.00000  Uiso   1.00
C827   C     0.83313   0.49999   0.66454   0.00000  Uiso   1.00
C828   C     0.83354   0.50001   0.83546   0.00000  Uiso   1.00
C829   C     0.87129   0.49874   0.90641   0.00000  Uiso   1.00
C830   C     0.79538   0.50126   0.59359   0.00000  Uiso   1.00
C831   C     0.83375   0.49982   0.88364   0.00000  Uiso   1.00
C832   C     0.83291   0.50018   0.61636   0.00000  Uiso   1.00
C833   C     0.79637   0.49812   0.90634   0.00000  Uiso   1.00
C834   C     0.87029   0.50188   0.59366   0.00000  Uiso   1.00
C835   C     0.79627   0.49659   0.95286   0.00000  Uiso   1.00
C836   C     0.87040   0.50341   0.54714   0.00000  Uiso   1.00
C837   C     0.83368   0.50009   0.97649   0.00000  Uiso   1.00
C838   C     0.83299   0.49991   0.52351   0.00000  Uiso   1.00
C839   C     0.87167   0.50345   0.95318   0.00000  Uiso   1.00
C840   C     0.79500   0.49655   0.54682   0.00000  Uiso   1.00
C841   C     0.75950   0.49034   0.97610   0.00000  Uiso   1.00
C842   C     0.90717   0.50966   0.52390   0.00000  Uiso   1.00
Cu843  Cu    0.83333   0.54689   0.75000   0.00000  Uiso   1.00
Cu844  Cu    0.83333   0.45311   0.75000   0.00000  Uiso   1.00
H845   H     0.73090   0.48473   0.95865   0.00000  Uiso   1.00
H846   H     0.93577   0.51527   0.54135   0.00000  Uiso   1.00
H847   H     0.79401   0.37644   0.69416   0.00000  Uiso   1.00
H848   H     0.87266   0.62356   0.80584   0.00000  Uiso   1.00
H849   H     0.87306   0.37712   0.80555   0.00000  Uiso   1.00
H850   H     0.79361   0.62288   0.69445   0.00000  Uiso   1.00
N851   N     0.83333   0.61736   0.75000   0.00000  Uiso   1.00
N852   N     0.83333   0.38264   0.75000   0.00000  Uiso   1.00
O853   O     0.77321   0.53958   0.75000   0.00000  Uiso   1.00
O854   O     0.89345   0.46042   0.75000   0.00000  Uiso   1.00
O855   O     0.89345   0.53958   0.75001   0.00000  Uiso   1.00
O856   O     0.77321   0.46042   0.74999   0.00000  Uiso   1.00
O857   O     0.83332   0.53960   0.68513   0.00000  Uiso   1.00
O858   O     0.83334   0.46040   0.81487   0.00000  Uiso   1.00
O859   O     0.83334   0.53960   0.81487   0.00000  Uiso   1.00
O860   O     0.83332   0.46040   0.68513   0.00000  Uiso   1.00
Br861  Br    0.91897   0.47915   0.87273   0.00000  Uiso   1.00
Br862  Br    0.74770   0.52085   0.62727   0.00000  Uiso   1.00
Cl863  Cl    0.75002   0.49475   0.87555   0.00000  Uiso   1.00
Cl864  Cl    0.91665   0.50525   0.62445   0.00000  Uiso   1.00
Br865  Br    0.70735   0.46630   0.54605   0.00000  Uiso   1.00
Br866  Br    0.95932   0.53370   0.95395   0.00000  Uiso   1.00
Cl867  Cl    0.71381   0.42352   0.69221   0.00000  Uiso   1.00
Cl868  Cl    0.95286   0.57648   0.80779   0.00000  Uiso   1.00
Cl869  Cl    0.95278   0.42155   0.69440   0.00000  Uiso   1.00
Cl870  Cl    0.71389   0.57845   0.80560   0.00000  Uiso   1.00
C871   C     0.08741   0.83335   0.74994   0.00000  Uiso   1.00
C872   C     0.24592   0.83331   0.75006   0.00000  Uiso   1.00
C873   C     0.09189   0.82203   0.52214   0.00000  Uiso   1.00
C874   C     0.24145   0.84463   0.97786   0.00000  Uiso   1.00
C875   C     0.02133   0.79890   0.72556   0.00000  Uiso   1.00
C876   C     0.31201   0.86777   0.77444   0.00000  Uiso   1.00
C877   C     0.31196   0.79856   0.72596   0.00000  Uiso   1.00
C878   C     0.02138   0.86811   0.77404   0.00000  Uiso   1.00
C879   C     0.29054   0.83320   0.75017   0.00000  Uiso   1.00
C880   C     0.04280   0.83347   0.74983   0.00000  Uiso   1.00
C881   C     0.14475   0.69128   0.71907   0.00000  Uiso   1.00
C882   C     0.18859   0.97539   0.78093   0.00000  Uiso   1.00
C883   C     0.18868   0.69165   0.78087   0.00000  Uiso   1.00
C884   C     0.14465   0.97502   0.71913   0.00000  Uiso   1.00
C885   C     0.16646   0.83332   0.66454   0.00000  Uiso   1.00
C886   C     0.16687   0.83334   0.83546   0.00000  Uiso   1.00
C887   C     0.20462   0.83207   0.90641   0.00000  Uiso   1.00
C888   C     0.12871   0.83459   0.59359   0.00000  Uiso   1.00
C889   C     0.16709   0.83315   0.88364   0.00000  Uiso   1.00
C890   C     0.16625   0.83351   0.61636   0.00000  Uiso   1.00
C891   C     0.12971   0.83146   0.90634   0.00000  Uiso   1.00
C892   C     0.20363   0.83521   0.59366   0.00000  Uiso   1.00
C893   C     0.12960   0.82993   0.95286   0.00000  Uiso   1.00
C894   C     0.20373   0.83674   0.54714   0.00000  Uiso   1.00
C895   C     0.16701   0.83343   0.97649   0.00000  Uiso   1.00
C896   C     0.16632   0.83324   0.52351   0.00000  Uiso   1.00
C897   C     0.20500   0.83678   0.95318   0.00000  Uiso   1.00
C898   C     0.12833   0.82988   0.54682   0.00000  Uiso   1.00
C899   C     0.09283   0.82367   0.97610   0.00000  Uiso   1.00
C900   C     0.24050   0.84300   0.52390   0.00000  Uiso   1.00
Cu901  Cu    0.16667   0.88022   0.75000   0.00000  Uiso   1.00
Cu902  Cu    0.16667   0.78645   0.75000   0.00000  Uiso   1.00
H903   H     0.06423   0.81806   0.95865   0.00000  Uiso   1.00
H904   H     0.26910   0.84860   0.54135   0.00000  Uiso   1.00
H905   H     0.12734   0.70977   0.69416   0.00000  Uiso   1.00
H906   H     0.20599   0.95690   0.80584   0.00000  Uiso   1.00
H907   H     0.20639   0.71046   0.80555   0.00000  Uiso   1.00
H908   H     0.12694   0.95621   0.69445   0.00000  Uiso   1.00
N909   N     0.16667   0.95069   0.75000   0.00000  Uiso   1.00
N910   N     0.16667   0.71598   0.75000   0.00000  Uiso   1.00
O911   O     0.10655   0.87291   0.75000   0.00000  Uiso   1.00
O912   O     0.22679   0.79375   0.75000   0.00000  Uiso   1.00
O913   O     0.22679   0.87291   0.75001   0.00000  Uiso   1.00
O914   O     0.10655   0.79375   0.74999   0.00000  Uiso   1.00
O915   O     0.16666   0.87293   0.68513   0.00000  Uiso   1.00
O916   O     0.16668   0.79373   0.81487   0.00000  Uiso   1.00
O917   O     0.16668   0.87293   0.81487   0.00000  Uiso   1.00
O918   O     0.16666   0.79373   0.68513   0.00000  Uiso   1.00
Br919  Br    0.25230   0.81248   0.87273   0.00000  Uiso   1.00
Br920  Br    0.08103   0.85418   0.62727   0.00000  Uiso   1.00
Cl921  Cl    0.08335   0.82809   0.87555   0.00000  Uiso   1.00
Cl922  Cl    0.24998   0.83858   0.62445   0.00000  Uiso   1.00
Br923  Br    0.04068   0.79963   0.54605   0.00000  Uiso   1.00
Br924  Br    0.29265   0.86704   0.95395   0.00000  Uiso   1.00
Cl925  Cl    0.04714   0.75685   0.69221   0.00000  Uiso   1.00
Cl926  Cl    0.28619   0.90981   0.80779   0.00000  Uiso   1.00
Cl927  Cl    0.28611   0.75488   0.69440   0.00000  Uiso   1.00
Cl928  Cl    0.04722   0.91178   0.80560   0.00000  Uiso   1.00
C929   C     0.42074   0.83335   0.74994   0.00000  Uiso   1.00
C930   C     0.57926   0.83331   0.75006   0.00000  Uiso   1.00
C931   C     0.42522   0.82203   0.52214   0.00000  Uiso   1.00
C932   C     0.57478   0.84463   0.97786   0.00000  Uiso   1.00
C933   C     0.35466   0.79890   0.72556   0.00000  Uiso   1.00
C934   C     0.64534   0.86777   0.77444   0.00000  Uiso   1.00
C935   C     0.64529   0.79856   0.72596   0.00000  Uiso   1.00
C936   C     0.35471   0.86811   0.77404   0.00000  Uiso   1.00
C937   C     0.62387   0.83320   0.75017   0.00000  Uiso   1.00
C938   C     0.37613   0.83347   0.74983   0.00000  Uiso   1.00
C939   C     0.47808   0.69128   0.71907   0.00000  Uiso   1.00
C940   C     0.52192   0.97539   0.78093   0.00000  Uiso   1.00
C941   C     0.52201   0.69165   0.78087   0.00000  Uiso   1.00
C942   C     0.47799   0.97502   0.71913   0.00000  Uiso   1.00
C943   C     0.49980   0.83332   0.66454   0.00000  Uiso   1.00
C944   C     0.50020   0.83334   0.83546   0.00000  Uiso   1.00
C945   C     0.53796   0.83207   0.90641   0.00000  Uiso   1.00
C946   C     0.46204   0.83459   0.59359   0.00000  Uiso   1.00
C947   C     0.50042   0.83315   0.88364   0.00000  Uiso   1.00
C948   C     0.49958   0.83351   0.61636   0.00000  Uiso   1.00
C949   C     0.46304   0.83146   0.90634   0.00000  Uiso   1.00
C950   C     0.53696   0.83521   0.59366   0.00000  Uiso   1.00
C951   C     0.46293   0.82993   0.95286   0.00000  Uiso   1.00
C952   C     0.53707   0.83674   0.54714   0.00000  Uiso   1.00
C953   C     0.50034   0.83343   0.97649   0.00000  Uiso   1.00
C954   C     0.49966   0.83324   0.52351   0.00000  Uiso   1.00
C955   C     0.53834   0.83678   0.95318   0.00000  Uiso   1.00
C956   C     0.46166   0.82988   0.54682   0.00000  Uiso   1.00
C957   C     0.42616   0.82367   0.97610   0.00000  Uiso   1.00
C958   C     0.57384   0.84300   0.52390   0.00000  Uiso   1.00
Cu959  Cu    0.50000   0.88022   0.75000   0.00000  Uiso   1.00
Cu960  Cu    0.50000   0.78645   0.75000   0.00000  Uiso   1.00
H961   H     0.39757   0.81806   0.95865   0.00000  Uiso   1.00
H962   H     0.60243   0.84860   0.54135   0.00000  Uiso   1.00
H963   H     0.46067   0.70977   0.69416   0.00000  Uiso   1.00
H964   H     0.53933   0.95690   0.80584   0.00000  Uiso   1.00
H965   H     0.53973   0.71046   0.80555   0.00000  Uiso   1.00
H966   H     0.46027   0.95621   0.69445   0.00000  Uiso   1.00
N967   N     0.50000   0.95069   0.75000   0.00000  Uiso   1.00
N968   N     0.50000   0.71598   0.75000   0.00000  Uiso   1.00
O969   O     0.43988   0.87291   0.75000   0.00000  Uiso   1.00
O970   O     0.56012   0.79375   0.75000   0.00000  Uiso   1.00
O971   O     0.56012   0.87291   0.75001   0.00000  Uiso   1.00
O972   O     0.43988   0.79375   0.74999   0.00000  Uiso   1.00
O973   O     0.49999   0.87293   0.68513   0.00000  Uiso   1.00
O974   O     0.50001   0.79373   0.81487   0.00000  Uiso   1.00
O975   O     0.50001   0.87293   0.81487   0.00000  Uiso   1.00
O976   O     0.49999   0.79373   0.68513   0.00000  Uiso   1.00
Br977  Br    0.58563   0.81248   0.87273   0.00000  Uiso   1.00
Br978  Br    0.41437   0.85418   0.62727   0.00000  Uiso   1.00
Cl979  Cl    0.41668   0.82809   0.87555   0.00000  Uiso   1.00
Cl980  Cl    0.58332   0.83858   0.62445   0.00000  Uiso   1.00
Br981  Br    0.37401   0.79963   0.54605   0.00000  Uiso   1.00
Br982  Br    0.62599   0.86704   0.95395   0.00000  Uiso   1.00
Cl983  Cl    0.38047   0.75685   0.69221   0.00000  Uiso   1.00
Cl984  Cl    0.61953   0.90981   0.80779   0.00000  Uiso   1.00
Cl985  Cl    0.61945   0.75488   0.69440   0.00000  Uiso   1.00
Cl986  Cl    0.38055   0.91178   0.80560   0.00000  Uiso   1.00
C987   C     0.75408   0.83335   0.74994   0.00000  Uiso   1.00
C988   C     0.91259   0.83331   0.75006   0.00000  Uiso   1.00
C989   C     0.75855   0.82203   0.52214   0.00000  Uiso   1.00
C990   C     0.90811   0.84463   0.97786   0.00000  Uiso   1.00
C991   C     0.68799   0.79890   0.72556   0.00000  Uiso   1.00
C992   C     0.97867   0.86777   0.77444   0.00000  Uiso   1.00
C993   C     0.97862   0.79856   0.72596   0.00000  Uiso   1.00
C994   C     0.68804   0.86811   0.77404   0.00000  Uiso   1.00
C995   C     0.95720   0.83320   0.75017   0.00000  Uiso   1.00
C996   C     0.70946   0.83347   0.74983   0.00000  Uiso   1.00
C997   C     0.81141   0.69128   0.71907   0.00000  Uiso   1.00
C998   C     0.85525   0.97539   0.78093   0.00000  Uiso   1.00
C999   C     0.85535   0.69165   0.78087   0.00000  Uiso   1.00
C1000  C     0.81132   0.97502   0.71913   0.00000  Uiso   1.00
C1001  C     0.83313   0.83332   0.66454   0.00000  Uiso   1.00
C1002  C     0.83354   0.83334   0.83546   0.00000  Uiso   1.00
C1003  C     0.87129   0.83207   0.90641   0.00000  Uiso   1.00
C1004  C     0.79538   0.83459   0.59359   0.00000  Uiso   1.00
C1005  C     0.83375   0.83315   0.88364   0.00000  Uiso   1.00
C1006  C     0.83291   0.83351   0.61636   0.00000  Uiso   1.00
C1007  C     0.79637   0.83146   0.90634   0.00000  Uiso   1.00
C1008  C     0.87029   0.83521   0.59366   0.00000  Uiso   1.00
C1009  C     0.79627   0.82993   0.95286   0.00000  Uiso   1.00
C1010  C     0.87040   0.83674   0.54714   0.00000  Uiso   1.00
C1011  C     0.83368   0.83343   0.97649   0.00000  Uiso   1.00
C1012  C     0.83299   0.83324   0.52351   0.00000  Uiso   1.00
C1013  C     0.87167   0.83678   0.95318   0.00000  Uiso   1.00
C1014  C     0.79500   0.82988   0.54682   0.00000  Uiso   1.00
C1015  C     0.75950   0.82367   0.97610   0.00000  Uiso   1.00
C1016  C     0.90717   0.84300   0.52390   0.00000  Uiso   1.00
Cu1017 Cu    0.83333   0.88022   0.75000   0.00000  Uiso   1.00
Cu1018 Cu    0.83333   0.78645   0.75000   0.00000  Uiso   1.00
H1019  H     0.73090   0.81806   0.95865   0.00000  Uiso   1.00
H1020  H     0.93577   0.84860   0.54135   0.00000  Uiso   1.00
H1021  H     0.79401   0.70977   0.69416   0.00000  Uiso   1.00
H1022  H     0.87266   0.95690   0.80584   0.00000  Uiso   1.00
H1023  H     0.87306   0.71046   0.80555   0.00000  Uiso   1.00
H1024  H     0.79361   0.95621   0.69445   0.00000  Uiso   1.00
N1025  N     0.83333   0.95069   0.75000   0.00000  Uiso   1.00
N1026  N     0.83333   0.71598   0.75000   0.00000  Uiso   1.00
O1027  O     0.77321   0.87291   0.75000   0.00000  Uiso   1.00
O1028  O     0.89345   0.79375   0.75000   0.00000  Uiso   1.00
O1029  O     0.89345   0.87291   0.75001   0.00000  Uiso   1.00
O1030  O     0.77321   0.79375   0.74999   0.00000  Uiso   1.00
O1031  O     0.83332   0.87293   0.68513   0.00000  Uiso   1.00
O1032  O     0.83334   0.79373   0.81487   0.00000  Uiso   1.00
O1033  O     0.83334   0.87293   0.81487   0.00000  Uiso   1.00
O1034  O     0.83332   0.79373   0.68513   0.00000  Uiso   1.00
Br1035 Br    0.91897   0.81248   0.87273   0.00000  Uiso   1.00
Br1036 Br    0.74770   0.85418   0.62727   0.00000  Uiso   1.00
Cl1037 Cl    0.75002   0.82809   0.87555   0.00000  Uiso   1.00
Cl1038 Cl    0.91665   0.83858   0.62445   0.00000  Uiso   1.00
Br1039 Br    0.70735   0.79963   0.54605   0.00000  Uiso   1.00
Br1040 Br    0.95932   0.86704   0.95395   0.00000  Uiso   1.00
Cl1041 Cl    0.71381   0.75685   0.69221   0.00000  Uiso   1.00
Cl1042 Cl    0.95286   0.90981   0.80779   0.00000  Uiso   1.00
Cl1043 Cl    0.95278   0.75488   0.69440   0.00000  Uiso   1.00
Cl1044 Cl    0.71389   0.91178   0.80560   0.00000  Uiso   1.00
loop_
_geom_bond_atom_site_label_1
_geom_bond_atom_site_label_2
_geom_bond_distance
_geom_bond_site_symmetry_2
_ccdc_geom_bond_type
C1     O44     1.292   .     A
C1     O41     1.290   .     A
C1     C10     1.454   .     S
C2     O43     1.292   .     A
C2     O42     1.290   .     A
C2     C9      1.454   .     S
C3     Br53    1.928   .     S
C3     C28     1.418   .     A
C3     C551    1.388   1_554 S
C4     C27     1.418   .     A
C4     Br54    1.928   .     S
C4     C552    1.388   .     S
C5     C10     1.411   .     A
C5     Cl55    1.775   .     S
C5     C123    1.392   1_455 S
C6     C9      1.411   .     A
C6     Cl56    1.775   .     S
C6     C66     1.392   .     S
C7     C9      1.412   .     A
C7     Cl57    1.776   .     S
C7     C63     1.392   .     S
C8     Cl58    1.776   .     S
C8     C10     1.412   .     A
C8     C122    1.392   1_455 S
C11    N40     1.367   .     A
C11    H35     1.080   .     S
C11    C362    1.416   1_545 S
C12    N39     1.367   .     A
C12    H36     1.080   .     S
C12    C187    1.416   .     S
C13    H37     1.082   .     S
C13    N40     1.367   .     A
C13    C360    1.416   1_545 S
C14    H38     1.082   .     S
C14    N39     1.367   .     A
C14    C185    1.416   .     S
C15    C20     1.451   .     S
C15    O48     1.292   .     A
C15    O45     1.287   .     A
C16    C19     1.451   .     S
C16    O47     1.292   .     A
C16    O46     1.287   .     A
C17    C27     1.414   .     A
C17    Br49    1.937   .     S
C17    C19     1.403   .     A
C18    C20     1.403   .     A
C18    C28     1.414   .     A
C18    Br50    1.937   .     S
C19    C21     1.398   .     A
C20    C22     1.398   .     A
C21    C23     1.402   .     A
C21    Cl51    1.775   .     S
C22    Cl52    1.775   .     S
C22    C24     1.402   .     A
C23    C29     1.400   .     A
C23    C25     1.415   .     A
C24    C30     1.400   .     A
C24    C26     1.415   .     A
C25    C27     1.427   .     A
C25    C548    1.417   .     S
C26    C28     1.427   .     A
C26    C547    1.417   1_554 S
C29    H33     1.081   .     S
C29    C525    1.388   .     S
C30    H34     1.081   .     S
C30    C526    1.388   1_554 S
Cu31   Cu32    2.678   .     S
Cu31   O47     1.966   .     S
Cu31   O43     1.971   .     S
Cu31   O45     1.964   .     S
Cu31   O41     1.970   .     S
Cu31   N39     2.012   .     S
Cu32   O48     1.966   .     S
Cu32   N40     2.012   .     S
Cu32   O44     1.971   .     S
Cu32   O46     1.964   .     S
Cu32   O42     1.970   .     S
C59    O102    1.292   .     A
C59    O99     1.290   .     A
C59    C68     1.454   .     S
C60    O101    1.292   .     A
C60    O100    1.290   .     A
C60    C67     1.454   .     S
C61    Br111   1.928   .     S
C61    C86     1.418   .     A
C61    C609    1.388   1_554 S
C62    C85     1.418   .     A
C62    Br112   1.928   .     S
C62    C610    1.388   .     S
C63    C68     1.411   .     A
C63    Cl113   1.775   .     S
C64    C67     1.411   .     A
C64    Cl114   1.775   .     S
C64    C124    1.392   .     S
C65    C67     1.412   .     A
C65    Cl115   1.776   .     S
C65    C121    1.392   .     S
C66    Cl116   1.776   .     S
C66    C68     1.412   .     A
C69    N98     1.367   .     A
C69    H93     1.080   .     S
C69    C420    1.416   1_545 S
C70    N97     1.367   .     A
C70    H94     1.080   .     S
C70    C245    1.416   .     S
C71    H95     1.082   .     S
C71    N98     1.367   .     A
C71    C418    1.416   1_545 S
C72    H96     1.082   .     S
C72    N97     1.367   .     A
C72    C243    1.416   .     S
C73    C78     1.451   .     S
C73    O106    1.292   .     A
C73    O103    1.287   .     A
C74    C77     1.451   .     S
C74    O105    1.292   .     A
C74    O104    1.287   .     A
C75    C85     1.414   .     A
C75    Br107   1.937   .     S
C75    C77     1.403   .     A
C76    C78     1.403   .     A
C76    C86     1.414   .     A
C76    Br108   1.937   .     S
C77    C79     1.398   .     A
C78    C80     1.398   .     A
C79    C81     1.402   .     A
C79    Cl109   1.775   .     S
C80    Cl110   1.775   .     S
C80    C82     1.402   .     A
C81    C87     1.400   .     A
C81    C83     1.415   .     A
C82    C88     1.400   .     A
C82    C84     1.415   .     A
C83    C85     1.427   .     A
C83    C606    1.417   .     S
C84    C86     1.427   .     A
C84    C605    1.417   1_554 S
C87    H91     1.081   .     S
C87    C583    1.388   .     S
C88    H92     1.081   .     S
C88    C584    1.388   1_554 S
Cu89   Cu90    2.678   .     S
Cu89   O105    1.966   .     S
Cu89   O101    1.971   .     S
Cu89   O103    1.964   .     S
Cu89   O99     1.970   .     S
Cu89   N97     2.012   .     S
Cu90   O106    1.966   .     S
Cu90   N98     2.012   .     S
Cu90   O102    1.971   .     S
Cu90   O104    1.964   .     S
Cu90   O100    1.970   .     S
C117   O160    1.292   .     A
C117   O157    1.290   .     A
C117   C126    1.454   .     S
C118   O159    1.292   .     A
C118   O158    1.290   .     A
C118   C125    1.454   .     S
C119   Br169   1.928   .     S
C119   C144    1.418   .     A
C119   C667    1.388   1_554 S
C120   C143    1.418   .     A
C120   Br170   1.928   .     S
C120   C668    1.388   .     S
C121   C126    1.411   .     A
C121   Cl171   1.775   .     S
C122   C125    1.411   .     A
C122   Cl172   1.775   .     S
C122   C8      1.392   1_655 S
C123   C125    1.412   .     A
C123   Cl173   1.776   .     S
C123   C5      1.392   1_655 S
C124   Cl174   1.776   .     S
C124   C126    1.412   .     A
C127   N156    1.367   .     A
C127   H151    1.080   .     S
C127   C478    1.416   1_545 S
C128   N155    1.367   .     A
C128   H152    1.080   .     S
C128   C303    1.416   .     S
C129   H153    1.082   .     S
C129   N156    1.367   .     A
C129   C476    1.416   1_545 S
C130   H154    1.082   .     S
C130   N155    1.367   .     A
C130   C301    1.416   .     S
C131   C136    1.451   .     S
C131   O164    1.292   .     A
C131   O161    1.287   .     A
C132   C135    1.451   .     S
C132   O163    1.292   .     A
C132   O162    1.287   .     A
C133   C143    1.414   .     A
C133   Br165   1.937   .     S
C133   C135    1.403   .     A
C134   C136    1.403   .     A
C134   C144    1.414   .     A
C134   Br166   1.937   .     S
C135   C137    1.398   .     A
C136   C138    1.398   .     A
C137   C139    1.402   .     A
C137   Cl167   1.775   .     S
C138   Cl168   1.775   .     S
C138   C140    1.402   .     A
C139   C145    1.400   .     A
C139   C141    1.415   .     A
C140   C146    1.400   .     A
C140   C142    1.415   .     A
C141   C143    1.427   .     A
C141   C664    1.417   .     S
C142   C144    1.427   .     A
C142   C663    1.417   1_554 S
C145   H149    1.081   .     S
C145   C641    1.388   .     S
C146   H150    1.081   .     S
C146   C642    1.388   1_554 S
Cu147  Cu148   2.678   .     S
Cu147  O163    1.966   .     S
Cu147  O159    1.971   .     S
Cu147  O161    1.964   .     S
Cu147  O157    1.970   .     S
Cu147  N155    2.012   .     S
Cu148  O164    1.966   .     S
Cu148  N156    2.012   .     S
Cu148  O160    1.971   .     S
Cu148  O162    1.964   .     S
Cu148  O158    1.970   .     S
C175   O218    1.292   .     A
C175   O215    1.290   .     A
C175   C184    1.454   .     S
C176   O217    1.292   .     A
C176   O216    1.290   .     A
C176   C183    1.454   .     S
C177   Br227   1.928   .     S
C177   C202    1.418   .     A
C177   C725    1.388   1_554 S
C178   C201    1.418   .     A
C178   Br228   1.928   .     S
C178   C726    1.388   .     S
C179   C184    1.411   .     A
C179   Cl229   1.775   .     S
C179   C297    1.392   1_455 S
C180   C183    1.411   .     A
C180   Cl230   1.775   .     S
C180   C240    1.392   .     S
C181   C183    1.412   .     A
C181   Cl231   1.776   .     S
C181   C237    1.392   .     S
C182   Cl232   1.776   .     S
C182   C184    1.412   .     A
C182   C296    1.392   1_455 S
C185   N214    1.367   .     A
C185   H209    1.080   .     S
C186   N213    1.367   .     A
C186   H210    1.080   .     S
C186   C361    1.416   .     S
C187   H211    1.082   .     S
C187   N214    1.367   .     A
C188   H212    1.082   .     S
C188   N213    1.367   .     A
C188   C359    1.416   .     S
C189   C194    1.451   .     S
C189   O222    1.292   .     A
C189   O219    1.287   .     A
C190   C193    1.451   .     S
C190   O221    1.292   .     A
C190   O220    1.287   .     A
C191   C201    1.414   .     A
C191   Br223   1.937   .     S
C191   C193    1.403   .     A
C192   C194    1.403   .     A
C192   C202    1.414   .     A
C192   Br224   1.937   .     S
C193   C195    1.398   .     A
C194   C196    1.398   .     A
C195   C197    1.402   .     A
C195   Cl225   1.775   .     S
C196   Cl226   1.775   .     S
C196   C198    1.402   .     A
C197   C203    1.400   .     A
C197   C199    1.415   .     A
C198   C204    1.400   .     A
C198   C200    1.415   .     A
C199   C201    1.427   .     A
C199   C722    1.417   .     S
C200   C202    1.427   .     A
C200   C721    1.417   1_554 S
C203   H207    1.081   .     S
C203   C699    1.388   .     S
C204   H208    1.081   .     S
C204   C700    1.388   1_554 S
Cu205  Cu206   2.678   .     S
Cu205  O221    1.966   .     S
Cu205  O217    1.971   .     S
Cu205  O219    1.964   .     S
Cu205  O215    1.970   .     S
Cu205  N213    2.012   .     S
Cu206  O222    1.966   .     S
Cu206  N214    2.012   .     S
Cu206  O218    1.971   .     S
Cu206  O220    1.964   .     S
Cu206  O216    1.970   .     S
C233   O276    1.292   .     A
C233   O273    1.290   .     A
C233   C242    1.454   .     S
C234   O275    1.292   .     A
C234   O274    1.290   .     A
C234   C241    1.454   .     S
C235   Br285   1.928   .     S
C235   C260    1.418   .     A
C235   C783    1.388   1_554 S
C236   C259    1.418   .     A
C236   Br286   1.928   .     S
C236   C784    1.388   .     S
C237   C242    1.411   .     A
C237   Cl287   1.775   .     S
C238   C241    1.411   .     A
C238   Cl288   1.775   .     S
C238   C298    1.392   .     S
C239   C241    1.412   .     A
C239   Cl289   1.776   .     S
C239   C295    1.392   .     S
C240   Cl290   1.776   .     S
C240   C242    1.412   .     A
C243   N272    1.367   .     A
C243   H267    1.080   .     S
C244   N271    1.367   .     A
C244   H268    1.080   .     S
C244   C419    1.416   .     S
C245   H269    1.082   .     S
C245   N272    1.367   .     A
C246   H270    1.082   .     S
C246   N271    1.367   .     A
C246   C417    1.416   .     S
C247   C252    1.451   .     S
C247   O280    1.292   .     A
C247   O277    1.287   .     A
C248   C251    1.451   .     S
C248   O279    1.292   .     A
C248   O278    1.287   .     A
C249   C259    1.414   .     A
C249   Br281   1.937   .     S
C249   C251    1.403   .     A
C250   C252    1.403   .     A
C250   C260    1.414   .     A
C250   Br282   1.937   .     S
C251   C253    1.398   .     A
C252   C254    1.398   .     A
C253   C255    1.402   .     A
C253   Cl283   1.775   .     S
C254   Cl284   1.775   .     S
C254   C256    1.402   .     A
C255   C261    1.400   .     A
C255   C257    1.415   .     A
C256   C262    1.400   .     A
C256   C258    1.415   .     A
C257   C259    1.427   .     A
C257   C780    1.417   .     S
C258   C260    1.427   .     A
C258   C779    1.417   1_554 S
C261   H265    1.081   .     S
C261   C757    1.388   .     S
C262   H266    1.081   .     S
C262   C758    1.388   1_554 S
Cu263  Cu264   2.678   .     S
Cu263  O279    1.966   .     S
Cu263  O275    1.971   .     S
Cu263  O277    1.964   .     S
Cu263  O273    1.970   .     S
Cu263  N271    2.012   .     S
Cu264  O280    1.966   .     S
Cu264  N272    2.012   .     S
Cu264  O276    1.971   .     S
Cu264  O278    1.964   .     S
Cu264  O274    1.970   .     S
C291   O334    1.292   .     A
C291   O331    1.290   .     A
C291   C300    1.454   .     S
C292   O333    1.292   .     A
C292   O332    1.290   .     A
C292   C299    1.454   .     S
C293   Br343   1.928   .     S
C293   C318    1.418   .     A
C293   C841    1.388   1_554 S
C294   C317    1.418   .     A
C294   Br344   1.928   .     S
C294   C842    1.388   .     S
C295   C300    1.411   .     A
C295   Cl345   1.775   .     S
C296   C299    1.411   .     A
C296   Cl346   1.775   .     S
C296   C182    1.392   1_655 S
C297   C299    1.412   .     A
C297   Cl347   1.776   .     S
C297   C179    1.392   1_655 S
C298   Cl348   1.776   .     S
C298   C300    1.412   .     A
C301   N330    1.367   .     A
C301   H325    1.080   .     S
C302   N329    1.367   .     A
C302   H326    1.080   .     S
C302   C477    1.416   .     S
C303   H327    1.082   .     S
C303   N330    1.367   .     A
C304   H328    1.082   .     S
C304   N329    1.367   .     A
C304   C475    1.416   .     S
C305   C310    1.451   .     S
C305   O338    1.292   .     A
C305   O335    1.287   .     A
C306   C309    1.451   .     S
C306   O337    1.292   .     A
C306   O336    1.287   .     A
C307   C317    1.414   .     A
C307   Br339   1.937   .     S
C307   C309    1.403   .     A
C308   C310    1.403   .     A
C308   C318    1.414   .     A
C308   Br340   1.937   .     S
C309   C311    1.398   .     A
C310   C312    1.398   .     A
C311   C313    1.402   .     A
C311   Cl341   1.775   .     S
C312   Cl342   1.775   .     S
C312   C314    1.402   .     A
C313   C319    1.400   .     A
C313   C315    1.415   .     A
C314   C320    1.400   .     A
C314   C316    1.415   .     A
C315   C317    1.427   .     A
C315   C838    1.417   .     S
C316   C318    1.427   .     A
C316   C837    1.417   1_554 S
C319   H323    1.081   .     S
C319   C815    1.388   .     S
C320   H324    1.081   .     S
C320   C816    1.388   1_554 S
Cu321  Cu322   2.678   .     S
Cu321  O337    1.966   .     S
Cu321  O333    1.971   .     S
Cu321  O335    1.964   .     S
Cu321  O331    1.970   .     S
Cu321  N329    2.012   .     S
Cu322  O338    1.966   .     S
Cu322  N330    2.012   .     S
Cu322  O334    1.971   .     S
Cu322  O336    1.964   .     S
Cu322  O332    1.970   .     S
C349   O392    1.292   .     A
C349   O389    1.290   .     A
C349   C358    1.454   .     S
C350   O391    1.292   .     A
C350   O390    1.290   .     A
C350   C357    1.454   .     S
C351   Br401   1.928   .     S
C351   C376    1.418   .     A
C351   C899    1.388   1_554 S
C352   C375    1.418   .     A
C352   Br402   1.928   .     S
C352   C900    1.388   .     S
C353   C358    1.411   .     A
C353   Cl403   1.775   .     S
C353   C471    1.392   1_455 S
C354   C357    1.411   .     A
C354   Cl404   1.775   .     S
C354   C414    1.392   .     S
C355   C357    1.412   .     A
C355   Cl405   1.776   .     S
C355   C411    1.392   .     S
C356   Cl406   1.776   .     S
C356   C358    1.412   .     A
C356   C470    1.392   1_455 S
C359   N388    1.367   .     A
C359   H383    1.080   .     S
C360   N387    1.367   .     A
C360   H384    1.080   .     S
C360   C13     1.416   1_565 S
C361   H385    1.082   .     S
C361   N388    1.367   .     A
C362   H386    1.082   .     S
C362   N387    1.367   .     A
C362   C11     1.416   1_565 S
C363   C368    1.451   .     S
C363   O396    1.292   .     A
C363   O393    1.287   .     A
C364   C367    1.451   .     S
C364   O395    1.292   .     A
C364   O394    1.287   .     A
C365   C375    1.414   .     A
C365   Br397   1.937   .     S
C365   C367    1.403   .     A
C366   C368    1.403   .     A
C366   C376    1.414   .     A
C366   Br398   1.937   .     S
C367   C369    1.398   .     A
C368   C370    1.398   .     A
C369   C371    1.402   .     A
C369   Cl399   1.775   .     S
C370   Cl400   1.775   .     S
C370   C372    1.402   .     A
C371   C377    1.400   .     A
C371   C373    1.415   .     A
C372   C378    1.400   .     A
C372   C374    1.415   .     A
C373   C375    1.427   .     A
C373   C896    1.417   .     S
C374   C376    1.427   .     A
C374   C895    1.417   1_554 S
C377   H381    1.081   .     S
C377   C873    1.388   .     S
C378   H382    1.081   .     S
C378   C874    1.388   1_554 S
Cu379  Cu380   2.678   .     S
Cu379  O395    1.966   .     S
Cu379  O391    1.971   .     S
Cu379  O393    1.964   .     S
Cu379  O389    1.970   .     S
Cu379  N387    2.012   .     S
Cu380  O396    1.966   .     S
Cu380  N388    2.012   .     S
Cu380  O392    1.971   .     S
Cu380  O394    1.964   .     S
Cu380  O390    1.970   .     S
C407   O450    1.292   .     A
C407   O447    1.290   .     A
C407   C416    1.454   .     S
C408   O449    1.292   .     A
C408   O448    1.290   .     A
C408   C415    1.454   .     S
C409   Br459   1.928   .     S
C409   C434    1.418   .     A
C409   C957    1.388   1_554 S
C410   C433    1.418   .     A
C410   Br460   1.928   .     S
C410   C958    1.388   .     S
C411   C416    1.411   .     A
C411   Cl461   1.775   .     S
C412   C415    1.411   .     A
C412   Cl462   1.775   .     S
C412   C472    1.392   .     S
C413   C415    1.412   .     A
C413   Cl463   1.776   .     S
C413   C469    1.392   .     S
C414   Cl464   1.776   .     S
C414   C416    1.412   .     A
C417   N446    1.367   .     A
C417   H441    1.080   .     S
C418   N445    1.367   .     A
C418   H442    1.080   .     S
C418   C71     1.416   1_565 S
C419   H443    1.082   .     S
C419   N446    1.367   .     A
C420   H444    1.082   .     S
C420   N445    1.367   .     A
C420   C69     1.416   1_565 S
C421   C426    1.451   .     S
C421   O454    1.292   .     A
C421   O451    1.287   .     A
C422   C425    1.451   .     S
C422   O453    1.292   .     A
C422   O452    1.287   .     A
C423   C433    1.414   .     A
C423   Br455   1.937   .     S
C423   C425    1.403   .     A
C424   C426    1.403   .     A
C424   C434    1.414   .     A
C424   Br456   1.937   .     S
C425   C427    1.398   .     A
C426   C428    1.398   .     A
C427   C429    1.402   .     A
C427   Cl457   1.775   .     S
C428   Cl458   1.775   .     S
C428   C430    1.402   .     A
C429   C435    1.400   .     A
C429   C431    1.415   .     A
C430   C436    1.400   .     A
C430   C432    1.415   .     A
C431   C433    1.427   .     A
C431   C954    1.417   .     S
C432   C434    1.427   .     A
C432   C953    1.417   1_554 S
C435   H439    1.081   .     S
C435   C931    1.388   .     S
C436   H440    1.081   .     S
C436   C932    1.388   1_554 S
Cu437  Cu438   2.678   .     S
Cu437  O453    1.966   .     S
Cu437  O449    1.971   .     S
Cu437  O451    1.964   .     S
Cu437  O447    1.970   .     S
Cu437  N445    2.012   .     S
Cu438  O454    1.966   .     S
Cu438  N446    2.012   .     S
Cu438  O450    1.971   .     S
Cu438  O452    1.964   .     S
Cu438  O448    1.970   .     S
C465   O508    1.292   .     A
C465   O505    1.290   .     A
C465   C474    1.454   .     S
C466   O507    1.292   .     A
C466   O506    1.290   .     A
C466   C473    1.454   .     S
C467   Br517   1.928   .     S
C467   C492    1.418   .     A
C467   C1015   1.388   1_554 S
C468   C491    1.418   .     A
C468   Br518   1.928   .     S
C468   C1016   1.388   .     S
C469   C474    1.411   .     A
C469   Cl519   1.775   .     S
C470   C473    1.411   .     A
C470   Cl520   1.775   .     S
C470   C356    1.392   1_655 S
C471   C473    1.412   .     A
C471   Cl521   1.776   .     S
C471   C353    1.392   1_655 S
C472   Cl522   1.776   .     S
C472   C474    1.412   .     A
C475   N504    1.367   .     A
C475   H499    1.080   .     S
C476   N503    1.367   .     A
C476   H500    1.080   .     S
C476   C129    1.416   1_565 S
C477   H501    1.082   .     S
C477   N504    1.367   .     A
C478   H502    1.082   .     S
C478   N503    1.367   .     A
C478   C127    1.416   1_565 S
C479   C484    1.451   .     S
C479   O512    1.292   .     A
C479   O509    1.287   .     A
C480   C483    1.451   .     S
C480   O511    1.292   .     A
C480   O510    1.287   .     A
C481   C491    1.414   .     A
C481   Br513   1.937   .     S
C481   C483    1.403   .     A
C482   C484    1.403   .     A
C482   C492    1.414   .     A
C482   Br514   1.937   .     S
C483   C485    1.398   .     A
C484   C486    1.398   .     A
C485   C487    1.402   .     A
C485   Cl515   1.775   .     S
C486   Cl516   1.775   .     S
C486   C488    1.402   .     A
C487   C493    1.400   .     A
C487   C489    1.415   .     A
C488   C494    1.400   .     A
C488   C490    1.415   .     A
C489   C491    1.427   .     A
C489   C1012   1.417   .     S
C490   C492    1.427   .     A
C490   C1011   1.417   1_554 S
C493   H497    1.081   .     S
C493   C989    1.388   .     S
C494   H498    1.081   .     S
C494   C990    1.388   1_554 S
Cu495  Cu496   2.678   .     S
Cu495  O511    1.966   .     S
Cu495  O507    1.971   .     S
Cu495  O509    1.964   .     S
Cu495  O505    1.970   .     S
Cu495  N503    2.012   .     S
Cu496  O512    1.966   .     S
Cu496  N504    2.012   .     S
Cu496  O508    1.971   .     S
Cu496  O510    1.964   .     S
Cu496  O506    1.970   .     S
C523   O566    1.292   .     A
C523   O563    1.290   .     A
C523   C532    1.454   .     S
C524   O565    1.292   .     A
C524   O564    1.290   .     A
C524   C531    1.454   .     S
C525   Br575   1.928   .     S
C525   C550    1.418   .     A
C526   C549    1.418   .     A
C526   Br576   1.928   .     S
C526   C30     1.388   1_556 S
C527   C532    1.411   .     A
C527   Cl577   1.775   .     S
C527   C645    1.392   1_455 S
C528   C531    1.411   .     A
C528   Cl578   1.775   .     S
C528   C588    1.392   .     S
C529   C531    1.412   .     A
C529   Cl579   1.776   .     S
C529   C585    1.392   .     S
C530   Cl580   1.776   .     S
C530   C532    1.412   .     A
C530   C644    1.392   1_455 S
C533   N562    1.367   .     A
C533   H557    1.080   .     S
C533   C884    1.416   1_545 S
C534   N561    1.367   .     A
C534   H558    1.080   .     S
C534   C709    1.416   .     S
C535   H559    1.082   .     S
C535   N562    1.367   .     A
C535   C882    1.416   1_545 S
C536   H560    1.082   .     S
C536   N561    1.367   .     A
C536   C707    1.416   .     S
C537   C542    1.451   .     S
C537   O570    1.292   .     A
C537   O567    1.287   .     A
C538   C541    1.451   .     S
C538   O569    1.292   .     A
C538   O568    1.287   .     A
C539   C549    1.414   .     A
C539   Br571   1.937   .     S
C539   C541    1.403   .     A
C540   C542    1.403   .     A
C540   C550    1.414   .     A
C540   Br572   1.937   .     S
C541   C543    1.398   .     A
C542   C544    1.398   .     A
C543   C545    1.402   .     A
C543   Cl573   1.775   .     S
C544   Cl574   1.775   .     S
C544   C546    1.402   .     A
C545   C551    1.400   .     A
C545   C547    1.415   .     A
C546   C552    1.400   .     A
C546   C548    1.415   .     A
C547   C549    1.427   .     A
C547   C26     1.417   1_556 S
C548   C550    1.427   .     A
C551   H555    1.081   .     S
C551   C3      1.388   1_556 S
C552   H556    1.081   .     S
Cu553  Cu554   2.678   .     S
Cu553  O569    1.966   .     S
Cu553  O565    1.971   .     S
Cu553  O567    1.964   .     S
Cu553  O563    1.970   .     S
Cu553  N561    2.012   .     S
Cu554  O570    1.966   .     S
Cu554  N562    2.012   .     S
Cu554  O566    1.971   .     S
Cu554  O568    1.964   .     S
Cu554  O564    1.970   .     S
C581   O624    1.292   .     A
C581   O621    1.290   .     A
C581   C590    1.454   .     S
C582   O623    1.292   .     A
C582   O622    1.290   .     A
C582   C589    1.454   .     S
C583   Br633   1.928   .     S
C583   C608    1.418   .     A
C584   C607    1.418   .     A
C584   Br634   1.928   .     S
C584   C88     1.388   1_556 S
C585   C590    1.411   .     A
C585   Cl635   1.775   .     S
C586   C589    1.411   .     A
C586   Cl636   1.775   .     S
C586   C646    1.392   .     S
C587   C589    1.412   .     A
C587   Cl637   1.776   .     S
C587   C643    1.392   .     S
C588   Cl638   1.776   .     S
C588   C590    1.412   .     A
C591   N620    1.367   .     A
C591   H615    1.080   .     S
C591   C942    1.416   1_545 S
C592   N619    1.367   .     A
C592   H616    1.080   .     S
C592   C767    1.416   .     S
C593   H617    1.082   .     S
C593   N620    1.367   .     A
C593   C940    1.416   1_545 S
C594   H618    1.082   .     S
C594   N619    1.367   .     A
C594   C765    1.416   .     S
C595   C600    1.451   .     S
C595   O628    1.292   .     A
C595   O625    1.287   .     A
C596   C599    1.451   .     S
C596   O627    1.292   .     A
C596   O626    1.287   .     A
C597   C607    1.414   .     A
C597   Br629   1.937   .     S
C597   C599    1.403   .     A
C598   C600    1.403   .     A
C598   C608    1.414   .     A
C598   Br630   1.937   .     S
C599   C601    1.398   .     A
C600   C602    1.398   .     A
C601   C603    1.402   .     A
C601   Cl631   1.775   .     S
C602   Cl632   1.775   .     S
C602   C604    1.402   .     A
C603   C609    1.400   .     A
C603   C605    1.415   .     A
C604   C610    1.400   .     A
C604   C606    1.415   .     A
C605   C607    1.427   .     A
C605   C84     1.417   1_556 S
C606   C608    1.427   .     A
C609   H613    1.081   .     S
C609   C61     1.388   1_556 S
C610   H614    1.081   .     S
Cu611  Cu612   2.678   .     S
Cu611  O627    1.966   .     S
Cu611  O623    1.971   .     S
Cu611  O625    1.964   .     S
Cu611  O621    1.970   .     S
Cu611  N619    2.012   .     S
Cu612  O628    1.966   .     S
Cu612  N620    2.012   .     S
Cu612  O624    1.971   .     S
Cu612  O626    1.964   .     S
Cu612  O622    1.970   .     S
C639   O682    1.292   .     A
C639   O679    1.290   .     A
C639   C648    1.454   .     S
C640   O681    1.292   .     A
C640   O680    1.290   .     A
C640   C647    1.454   .     S
C641   Br691   1.928   .     S
C641   C666    1.418   .     A
C642   C665    1.418   .     A
C642   Br692   1.928   .     S
C642   C146    1.388   1_556 S
C643   C648    1.411   .     A
C643   Cl693   1.775   .     S
C644   C647    1.411   .     A
C644   Cl694   1.775   .     S
C644   C530    1.392   1_655 S
C645   C647    1.412   .     A
C645   Cl695   1.776   .     S
C645   C527    1.392   1_655 S
C646   Cl696   1.776   .     S
C646   C648    1.412   .     A
C649   N678    1.367   .     A
C649   H673    1.080   .     S
C649   C1000   1.416   1_545 S
C650   N677    1.367   .     A
C650   H674    1.080   .     S
C650   C825    1.416   .     S
C651   H675    1.082   .     S
C651   N678    1.367   .     A
C651   C998    1.416   1_545 S
C652   H676    1.082   .     S
C652   N677    1.367   .     A
C652   C823    1.416   .     S
C653   C658    1.451   .     S
C653   O686    1.292   .     A
C653   O683    1.287   .     A
C654   C657    1.451   .     S
C654   O685    1.292   .     A
C654   O684    1.287   .     A
C655   C665    1.414   .     A
C655   Br687   1.937   .     S
C655   C657    1.403   .     A
C656   C658    1.403   .     A
C656   C666    1.414   .     A
C656   Br688   1.937   .     S
C657   C659    1.398   .     A
C658   C660    1.398   .     A
C659   C661    1.402   .     A
C659   Cl689   1.775   .     S
C660   Cl690   1.775   .     S
C660   C662    1.402   .     A
C661   C667    1.400   .     A
C661   C663    1.415   .     A
C662   C668    1.400   .     A
C662   C664    1.415   .     A
C663   C665    1.427   .     A
C663   C142    1.417   1_556 S
C664   C666    1.427   .     A
C667   H671    1.081   .     S
C667   C119    1.388   1_556 S
C668   H672    1.081   .     S
Cu669  Cu670   2.678   .     S
Cu669  O685    1.966   .     S
Cu669  O681    1.971   .     S
Cu669  O683    1.964   .     S
Cu669  O679    1.970   .     S
Cu669  N677    2.012   .     S
Cu670  O686    1.966   .     S
Cu670  N678    2.012   .     S
Cu670  O682    1.971   .     S
Cu670  O684    1.964   .     S
Cu670  O680    1.970   .     S
C697   O740    1.292   .     A
C697   O737    1.290   .     A
C697   C706    1.454   .     S
C698   O739    1.292   .     A
C698   O738    1.290   .     A
C698   C705    1.454   .     S
C699   Br749   1.928   .     S
C699   C724    1.418   .     A
C700   C723    1.418   .     A
C700   Br750   1.928   .     S
C700   C204    1.388   1_556 S
C701   C706    1.411   .     A
C701   Cl751   1.775   .     S
C701   C819    1.392   1_455 S
C702   C705    1.411   .     A
C702   Cl752   1.775   .     S
C702   C762    1.392   .     S
C703   C705    1.412   .     A
C703   Cl753   1.776   .     S
C703   C759    1.392   .     S
C704   Cl754   1.776   .     S
C704   C706    1.412   .     A
C704   C818    1.392   1_455 S
C707   N736    1.367   .     A
C707   H731    1.080   .     S
C708   N735    1.367   .     A
C708   H732    1.080   .     S
C708   C883    1.416   .     S
C709   H733    1.082   .     S
C709   N736    1.367   .     A
C710   H734    1.082   .     S
C710   N735    1.367   .     A
C710   C881    1.416   .     S
C711   C716    1.451   .     S
C711   O744    1.292   .     A
C711   O741    1.287   .     A
C712   C715    1.451   .     S
C712   O743    1.292   .     A
C712   O742    1.287   .     A
C713   C723    1.414   .     A
C713   Br745   1.937   .     S
C713   C715    1.403   .     A
C714   C716    1.403   .     A
C714   C724    1.414   .     A
C714   Br746   1.937   .     S
C715   C717    1.398   .     A
C716   C718    1.398   .     A
C717   C719    1.402   .     A
C717   Cl747   1.775   .     S
C718   Cl748   1.775   .     S
C718   C720    1.402   .     A
C719   C725    1.400   .     A
C719   C721    1.415   .     A
C720   C726    1.400   .     A
C720   C722    1.415   .     A
C721   C723    1.427   .     A
C721   C200    1.417   1_556 S
C722   C724    1.427   .     A
C725   H729    1.081   .     S
C725   C177    1.388   1_556 S
C726   H730    1.081   .     S
Cu727  Cu728   2.678   .     S
Cu727  O743    1.966   .     S
Cu727  O739    1.971   .     S
Cu727  O741    1.964   .     S
Cu727  O737    1.970   .     S
Cu727  N735    2.012   .     S
Cu728  O744    1.966   .     S
Cu728  N736    2.012   .     S
Cu728  O740    1.971   .     S
Cu728  O742    1.964   .     S
Cu728  O738    1.970   .     S
C755   O798    1.292   .     A
C755   O795    1.290   .     A
C755   C764    1.454   .     S
C756   O797    1.292   .     A
C756   O796    1.290   .     A
C756   C763    1.454   .     S
C757   Br807   1.928   .     S
C757   C782    1.418   .     A
C758   C781    1.418   .     A
C758   Br808   1.928   .     S
C758   C262    1.388   1_556 S
C759   C764    1.411   .     A
C759   Cl809   1.775   .     S
C760   C763    1.411   .     A
C760   Cl810   1.775   .     S
C760   C820    1.392   .     S
C761   C763    1.412   .     A
C761   Cl811   1.776   .     S
C761   C817    1.392   .     S
C762   Cl812   1.776   .     S
C762   C764    1.412   .     A
C765   N794    1.367   .     A
C765   H789    1.080   .     S
C766   N793    1.367   .     A
C766   H790    1.080   .     S
C766   C941    1.416   .     S
C767   H791    1.082   .     S
C767   N794    1.367   .     A
C768   H792    1.082   .     S
C768   N793    1.367   .     A
C768   C939    1.416   .     S
C769   C774    1.451   .     S
C769   O802    1.292   .     A
C769   O799    1.287   .     A
C770   C773    1.451   .     S
C770   O801    1.292   .     A
C770   O800    1.287   .     A
C771   C781    1.414   .     A
C771   Br803   1.937   .     S
C771   C773    1.403   .     A
C772   C774    1.403   .     A
C772   C782    1.414   .     A
C772   Br804   1.937   .     S
C773   C775    1.398   .     A
C774   C776    1.398   .     A
C775   C777    1.402   .     A
C775   Cl805   1.775   .     S
C776   Cl806   1.775   .     S
C776   C778    1.402   .     A
C777   C783    1.400   .     A
C777   C779    1.415   .     A
C778   C784    1.400   .     A
C778   C780    1.415   .     A
C779   C781    1.427   .     A
C779   C258    1.417   1_556 S
C780   C782    1.427   .     A
C783   H787    1.081   .     S
C783   C235    1.388   1_556 S
C784   H788    1.081   .     S
Cu785  Cu786   2.678   .     S
Cu785  O801    1.966   .     S
Cu785  O797    1.971   .     S
Cu785  O799    1.964   .     S
Cu785  O795    1.970   .     S
Cu785  N793    2.012   .     S
Cu786  O802    1.966   .     S
Cu786  N794    2.012   .     S
Cu786  O798    1.971   .     S
Cu786  O800    1.964   .     S
Cu786  O796    1.970   .     S
C813   O856    1.292   .     A
C813   O853    1.290   .     A
C813   C822    1.454   .     S
C814   O855    1.292   .     A
C814   O854    1.290   .     A
C814   C821    1.454   .     S
C815   Br865   1.928   .     S
C815   C840    1.418   .     A
C816   C839    1.418   .     A
C816   Br866   1.928   .     S
C816   C320    1.388   1_556 S
C817   C822    1.411   .     A
C817   Cl867   1.775   .     S
C818   C821    1.411   .     A
C818   Cl868   1.775   .     S
C818   C704    1.392   1_655 S
C819   C821    1.412   .     A
C819   Cl869   1.776   .     S
C819   C701    1.392   1_655 S
C820   Cl870   1.776   .     S
C820   C822    1.412   .     A
C823   N852    1.367   .     A
C823   H847    1.080   .     S
C824   N851    1.367   .     A
C824   H848    1.080   .     S
C824   C999    1.416   .     S
C825   H849    1.082   .     S
C825   N852    1.367   .     A
C826   H850    1.082   .     S
C826   N851    1.367   .     A
C826   C997    1.416   .     S
C827   C832    1.451   .     S
C827   O860    1.292   .     A
C827   O857    1.287   .     A
C828   C831    1.451   .     S
C828   O859    1.292   .     A
C828   O858    1.287   .     A
C829   C839    1.414   .     A
C829   Br861   1.937   .     S
C829   C831    1.403   .     A
C830   C832    1.403   .     A
C830   C840    1.414   .     A
C830   Br862   1.937   .     S
C831   C833    1.398   .     A
C832   C834    1.398   .     A
C833   C835    1.402   .     A
C833   Cl863   1.775   .     S
C834   Cl864   1.775   .     S
C834   C836    1.402   .     A
C835   C841    1.400   .     A
C835   C837    1.415   .     A
C836   C842    1.400   .     A
C836   C838    1.415   .     A
C837   C839    1.427   .     A
C837   C316    1.417   1_556 S
C838   C840    1.427   .     A
C841   H845    1.081   .     S
C841   C293    1.388   1_556 S
C842   H846    1.081   .     S
Cu843  Cu844   2.678   .     S
Cu843  O859    1.966   .     S
Cu843  O855    1.971   .     S
Cu843  O857    1.964   .     S
Cu843  O853    1.970   .     S
Cu843  N851    2.012   .     S
Cu844  O860    1.966   .     S
Cu844  N852    2.012   .     S
Cu844  O856    1.971   .     S
Cu844  O858    1.964   .     S
Cu844  O854    1.970   .     S
C871   O914    1.292   .     A
C871   O911    1.290   .     A
C871   C880    1.454   .     S
C872   O913    1.292   .     A
C872   O912    1.290   .     A
C872   C879    1.454   .     S
C873   Br923   1.928   .     S
C873   C898    1.418   .     A
C874   C897    1.418   .     A
C874   Br924   1.928   .     S
C874   C378    1.388   1_556 S
C875   C880    1.411   .     A
C875   Cl925   1.775   .     S
C875   C993    1.392   1_455 S
C876   C879    1.411   .     A
C876   Cl926   1.775   .     S
C876   C936    1.392   .     S
C877   C879    1.412   .     A
C877   Cl927   1.776   .     S
C877   C933    1.392   .     S
C878   Cl928   1.776   .     S
C878   C880    1.412   .     A
C878   C992    1.392   1_455 S
C881   N910    1.367   .     A
C881   H905    1.080   .     S
C882   N909    1.367   .     A
C882   H906    1.080   .     S
C882   C535    1.416   1_565 S
C883   H907    1.082   .     S
C883   N910    1.367   .     A
C884   H908    1.082   .     S
C884   N909    1.367   .     A
C884   C533    1.416   1_565 S
C885   C890    1.451   .     S
C885   O918    1.292   .     A
C885   O915    1.287   .     A
C886   C889    1.451   .     S
C886   O917    1.292   .     A
C886   O916    1.287   .     A
C887   C897    1.414   .     A
C887   Br919   1.937   .     S
C887   C889    1.403   .     A
C888   C890    1.403   .     A
C888   C898    1.414   .     A
C888   Br920   1.937   .     S
C889   C891    1.398   .     A
C890   C892    1.398   .     A
C891   C893    1.402   .     A
C891   Cl921   1.775   .     S
C892   Cl922   1.775   .     S
C892   C894    1.402   .     A
C893   C899    1.400   .     A
C893   C895    1.415   .     A
C894   C900    1.400   .     A
C894   C896    1.415   .     A
C895   C897    1.427   .     A
C895   C374    1.417   1_556 S
C896   C898    1.427   .     A
C899   H903    1.081   .     S
C899   C351    1.388   1_556 S
C900   H904    1.081   .     S
Cu901  Cu902   2.678   .     S
Cu901  O917    1.966   .     S
Cu901  O913    1.971   .     S
Cu901  O915    1.964   .     S
Cu901  O911    1.970   .     S
Cu901  N909    2.012   .     S
Cu902  O918    1.966   .     S
Cu902  N910    2.012   .     S
Cu902  O914    1.971   .     S
Cu902  O916    1.964   .     S
Cu902  O912    1.970   .     S
C929   O972    1.292   .     A
C929   O969    1.290   .     A
C929   C938    1.454   .     S
C930   O971    1.292   .     A
C930   O970    1.290   .     A
C930   C937    1.454   .     S
C931   Br981   1.928   .     S
C931   C956    1.418   .     A
C932   C955    1.418   .     A
C932   Br982   1.928   .     S
C932   C436    1.388   1_556 S
C933   C938    1.411   .     A
C933   Cl983   1.775   .     S
C934   C937    1.411   .     A
C934   Cl984   1.775   .     S
C934   C994    1.392   .     S
C935   C937    1.412   .     A
C935   Cl985   1.776   .     S
C935   C991    1.392   .     S
C936   Cl986   1.776   .     S
C936   C938    1.412   .     A
C939   N968    1.367   .     A
C939   H963    1.080   .     S
C940   N967    1.367   .     A
C940   H964    1.080   .     S
C940   C593    1.416   1_565 S
C941   H965    1.082   .     S
C941   N968    1.367   .     A
C942   H966    1.082   .     S
C942   N967    1.367   .     A
C942   C591    1.416   1_565 S
C943   C948    1.451   .     S
C943   O976    1.292   .     A
C943   O973    1.287   .     A
C944   C947    1.451   .     S
C944   O975    1.292   .     A
C944   O974    1.287   .     A
C945   C955    1.414   .     A
C945   Br977   1.937   .     S
C945   C947    1.403   .     A
C946   C948    1.403   .     A
C946   C956    1.414   .     A
C946   Br978   1.937   .     S
C947   C949    1.398   .     A
C948   C950    1.398   .     A
C949   C951    1.402   .     A
C949   Cl979   1.775   .     S
C950   Cl980   1.775   .     S
C950   C952    1.402   .     A
C951   C957    1.400   .     A
C951   C953    1.415   .     A
C952   C958    1.400   .     A
C952   C954    1.415   .     A
C953   C955    1.427   .     A
C953   C432    1.417   1_556 S
C954   C956    1.427   .     A
C957   H961    1.081   .     S
C957   C409    1.388   1_556 S
C958   H962    1.081   .     S
Cu959  Cu960   2.678   .     S
Cu959  O975    1.966   .     S
Cu959  O971    1.971   .     S
Cu959  O973    1.964   .     S
Cu959  O969    1.970   .     S
Cu959  N967    2.012   .     S
Cu960  O976    1.966   .     S
Cu960  N968    2.012   .     S
Cu960  O972    1.971   .     S
Cu960  O974    1.964   .     S
Cu960  O970    1.970   .     S
C987   O1030   1.292   .     A
C987   O1027   1.290   .     A
C987   C996    1.454   .     S
C988   O1029   1.292   .     A
C988   O1028   1.290   .     A
C988   C995    1.454   .     S
C989   Br1039  1.928   .     S
C989   C1014   1.418   .     A
C990   C1013   1.418   .     A
C990   Br1040  1.928   .     S
C990   C494    1.388   1_556 S
C991   C996    1.411   .     A
C991   Cl1041  1.775   .     S
C992   C995    1.411   .     A
C992   Cl1042  1.775   .     S
C992   C878    1.392   1_655 S
C993   C995    1.412   .     A
C993   Cl1043  1.776   .     S
C993   C875    1.392   1_655 S
C994   Cl1044  1.776   .     S
C994   C996    1.412   .     A
C997   N1026   1.367   .     A
C997   H1021   1.080   .     S
C998   N1025   1.367   .     A
C998   H1022   1.080   .     S
C998   C651    1.416   1_565 S
C999   H1023   1.082   .     S
C999   N1026   1.367   .     A
C1000  H1024   1.082   .     S
C1000  N1025   1.367   .     A
C1000  C649    1.416   1_565 S
C1001  C1006   1.451   .     S
C1001  O1034   1.292   .     A
C1001  O1031   1.287   .     A
C1002  C1005   1.451   .     S
C1002  O1033   1.292   .     A
C1002  O1032   1.287   .     A
C1003  C1013   1.414   .     A
C1003  Br1035  1.937   .     S
C1003  C1005   1.403   .     A
C1004  C1006   1.403   .     A
C1004  C1014   1.414   .     A
C1004  Br1036  1.937   .     S
C1005  C1007   1.398   .     A
C1006  C1008   1.398   .     A
C1007  C1009   1.402   .     A
C1007  Cl1037  1.775   .     S
C1008  Cl1038  1.775   .     S
C1008  C1010   1.402   .     A
C1009  C1015   1.400   .     A
C1009  C1011   1.415   .     A
C1010  C1016   1.400   .     A
C1010  C1012   1.415   .     A
C1011  C1013   1.427   .     A
C1011  C490    1.417   1_556 S
C1012  C1014   1.427   .     A
C1015  H1019   1.081   .     S
C1015  C467    1.388   1_556 S
C1016  H1020   1.081   .     S
Cu1017 Cu1018  2.678   .     S
Cu1017 O1033   1.966   .     S
Cu1017 O1029   1.971   .     S
Cu1017 O1031   1.964   .     S
Cu1017 O1027   1.970   .     S
Cu1017 N1025   2.012   .     S
Cu1018 O1034   1.966   .     S
Cu1018 N1026   2.012   .     S
Cu1018 O1030   1.971   .     S
Cu1018 O1032   1.964   .     S
Cu1018 O1028   1.970   .     S
