data_str_m2_o10_o18_pcu_sym.156
_audit_creation_date              2020-01-03
_audit_creation_method            'Materials Studio'
_symmetry_space_group_name_H-M    'P1'
_symmetry_Int_Tables_number       1
_symmetry_cell_setting            triclinic
loop_
_symmetry_equiv_pos_as_xyz
  x,y,z
_cell_length_a                    22.2564
_cell_length_b                    26.0487
_cell_length_c                    31.8190
_cell_angle_alpha                 94.2923
_cell_angle_beta                  74.5946
_cell_angle_gamma                 103.2929
loop_
_atom_site_label
_atom_site_type_symbol
_atom_site_fract_x
_atom_site_fract_y
_atom_site_fract_z
_atom_site_U_iso_or_equiv
_atom_site_adp_type
_atom_site_occupancy
C1     C     0.18174   0.26675   0.25130   0.00000  Uiso   1.00
C2     C     0.15159   0.06658   0.24870   0.00000  Uiso   1.00
C3     C     0.12901   0.09900   0.02040   0.00000  Uiso   1.00
C4     C     0.20432   0.23434   0.47960   0.00000  Uiso   1.00
C5     C     0.08390   0.08283   0.49673   0.00000  Uiso   1.00
C6     C     0.24943   0.25050   0.00327   0.00000  Uiso   1.00
C7     C     0.19022   0.32274   0.25196   0.00000  Uiso   1.00
C8     C     0.14311   0.01059   0.24804   0.00000  Uiso   1.00
C9     C     0.12767   0.16313   0.33320   0.00000  Uiso   1.00
C10    C     0.20566   0.17020   0.16680   0.00000  Uiso   1.00
C11    C     0.10321   0.15543   0.38093   0.00000  Uiso   1.00
C12    C     0.23013   0.17791   0.11907   0.00000  Uiso   1.00
C13    C     0.03995   0.09430   0.43790   0.00000  Uiso   1.00
C14    C     0.29338   0.23904   0.06210   0.00000  Uiso   1.00
C15    C     0.04866   0.11548   0.39736   0.00000  Uiso   1.00
C16    C     0.28467   0.21786   0.10264   0.00000  Uiso   1.00
C17    C     0.14156   0.18080   0.40908   0.00000  Uiso   1.00
C18    C     0.19177   0.15253   0.09092   0.00000  Uiso   1.00
C19    C     0.13011   0.16102   0.45190   0.00000  Uiso   1.00
C20    C     0.20322   0.17232   0.04810   0.00000  Uiso   1.00
C21    C     0.08326   0.11363   0.46304   0.00000  Uiso   1.00
C22    C     0.25007   0.21970   0.03696   0.00000  Uiso   1.00
C23    C     0.16723   0.18242   0.48238   0.00000  Uiso   1.00
C24    C     0.16610   0.15092   0.01762   0.00000  Uiso   1.00
Cu25   Cu    0.10737   0.16108   0.24516   0.00000  Uiso   1.00
Cu26   Cu    0.22596   0.17225   0.25483   0.00000  Uiso   1.00
H27    H     0.05279   0.04395   0.00244   0.00000  Uiso   1.00
H28    H     0.28054   0.28939   0.49756   0.00000  Uiso   1.00
H29    H     0.00188   0.05987   0.44845   0.00000  Uiso   1.00
H30    H     0.33145   0.27347   0.05155   0.00000  Uiso   1.00
H31    H     0.13497   0.06943   0.03990   0.00000  Uiso   1.00
H32    H     0.19836   0.26390   0.46010   0.00000  Uiso   1.00
H33    H     0.23556   0.01331   0.25567   0.00000  Uiso   1.00
H34    H     0.09777   0.32003   0.24433   0.00000  Uiso   1.00
H35    H     0.00121   0.20475   0.28447   0.00000  Uiso   1.00
H36    H     0.33212   0.12858   0.21553   0.00000  Uiso   1.00
N37    N     0.31506   0.18068   0.26212   0.00000  Uiso   1.00
N38    N     0.01827   0.15265   0.23788   0.00000  Uiso   1.00
O39    O     0.12815   0.23809   0.24686   0.00000  Uiso   1.00
O40    O     0.20518   0.09524   0.25314   0.00000  Uiso   1.00
O41    O     0.22829   0.24753   0.25502   0.00000  Uiso   1.00
O42    O     0.10504   0.08580   0.24497   0.00000  Uiso   1.00
O43    O     0.08851   0.15930   0.30854   0.00000  Uiso   1.00
O44    O     0.24482   0.17403   0.19145   0.00000  Uiso   1.00
O45    O     0.18866   0.16874   0.31671   0.00000  Uiso   1.00
O46    O     0.14468   0.16460   0.18329   0.00000  Uiso   1.00
C47    C     0.13607   0.11165   0.10924   0.00000  Uiso   1.00
N48    N     0.09170   0.07928   0.12430   0.00000  Uiso   1.00
C49    C     0.19726   0.22168   0.39076   0.00000  Uiso   1.00
N50    N     0.24163   0.25405   0.37570   0.00000  Uiso   1.00
C51    C     0.32813   0.24270   0.12857   0.00000  Uiso   1.00
N52    N     0.02967   0.26262   0.14925   0.00000  Uiso   1.00
C53    C     0.00521   0.09064   0.37143   0.00000  Uiso   1.00
N54    N     0.30366   0.07072   0.35075   0.00000  Uiso   1.00
C55    C     0.51508   0.26675   0.25130   0.00000  Uiso   1.00
C56    C     0.48492   0.06658   0.24870   0.00000  Uiso   1.00
C57    C     0.46235   0.09900   0.02040   0.00000  Uiso   1.00
C58    C     0.53765   0.23434   0.47960   0.00000  Uiso   1.00
C59    C     0.41724   0.08283   0.49673   0.00000  Uiso   1.00
C60    C     0.58276   0.25050   0.00327   0.00000  Uiso   1.00
C61    C     0.52355   0.32274   0.25196   0.00000  Uiso   1.00
C62    C     0.47645   0.01059   0.24804   0.00000  Uiso   1.00
C63    C     0.46101   0.16313   0.33320   0.00000  Uiso   1.00
C64    C     0.53899   0.17020   0.16680   0.00000  Uiso   1.00
C65    C     0.43654   0.15543   0.38093   0.00000  Uiso   1.00
C66    C     0.56346   0.17791   0.11907   0.00000  Uiso   1.00
C67    C     0.37328   0.09430   0.43790   0.00000  Uiso   1.00
C68    C     0.62672   0.23904   0.06210   0.00000  Uiso   1.00
C69    C     0.38200   0.11548   0.39736   0.00000  Uiso   1.00
C70    C     0.61800   0.21786   0.10264   0.00000  Uiso   1.00
C71    C     0.47490   0.18080   0.40908   0.00000  Uiso   1.00
C72    C     0.52510   0.15253   0.09092   0.00000  Uiso   1.00
C73    C     0.46345   0.16102   0.45190   0.00000  Uiso   1.00
C74    C     0.53655   0.17232   0.04810   0.00000  Uiso   1.00
C75    C     0.41659   0.11363   0.46304   0.00000  Uiso   1.00
C76    C     0.58341   0.21970   0.03696   0.00000  Uiso   1.00
C77    C     0.50057   0.18242   0.48238   0.00000  Uiso   1.00
C78    C     0.49943   0.15092   0.01762   0.00000  Uiso   1.00
Cu79   Cu    0.44071   0.16108   0.24516   0.00000  Uiso   1.00
Cu80   Cu    0.55929   0.17225   0.25483   0.00000  Uiso   1.00
H81    H     0.38613   0.04395   0.00244   0.00000  Uiso   1.00
H82    H     0.61387   0.28939   0.49756   0.00000  Uiso   1.00
H83    H     0.33521   0.05987   0.44845   0.00000  Uiso   1.00
H84    H     0.66479   0.27347   0.05155   0.00000  Uiso   1.00
H85    H     0.46830   0.06943   0.03990   0.00000  Uiso   1.00
H86    H     0.53169   0.26390   0.46010   0.00000  Uiso   1.00
H87    H     0.56889   0.01331   0.25567   0.00000  Uiso   1.00
H88    H     0.43111   0.32003   0.24433   0.00000  Uiso   1.00
H89    H     0.33454   0.20475   0.28447   0.00000  Uiso   1.00
H90    H     0.66546   0.12858   0.21553   0.00000  Uiso   1.00
N91    N     0.64839   0.18068   0.26212   0.00000  Uiso   1.00
N92    N     0.35161   0.15265   0.23788   0.00000  Uiso   1.00
O93    O     0.46148   0.23809   0.24686   0.00000  Uiso   1.00
O94    O     0.53852   0.09524   0.25314   0.00000  Uiso   1.00
O95    O     0.56163   0.24753   0.25502   0.00000  Uiso   1.00
O96    O     0.43837   0.08580   0.24497   0.00000  Uiso   1.00
O97    O     0.42185   0.15930   0.30854   0.00000  Uiso   1.00
O98    O     0.57815   0.17403   0.19145   0.00000  Uiso   1.00
O99    O     0.52199   0.16874   0.31671   0.00000  Uiso   1.00
O100   O     0.47801   0.16460   0.18329   0.00000  Uiso   1.00
C101   C     0.46940   0.11165   0.10924   0.00000  Uiso   1.00
N102   N     0.42504   0.07928   0.12430   0.00000  Uiso   1.00
C103   C     0.53060   0.22168   0.39076   0.00000  Uiso   1.00
N104   N     0.57497   0.25405   0.37570   0.00000  Uiso   1.00
C105   C     0.66146   0.24270   0.12857   0.00000  Uiso   1.00
N106   N     0.36301   0.26262   0.14925   0.00000  Uiso   1.00
C107   C     0.33854   0.09064   0.37143   0.00000  Uiso   1.00
N108   N     0.63699   0.07072   0.35075   0.00000  Uiso   1.00
C109   C     0.84841   0.26675   0.25130   0.00000  Uiso   1.00
C110   C     0.81825   0.06658   0.24870   0.00000  Uiso   1.00
C111   C     0.79568   0.09900   0.02040   0.00000  Uiso   1.00
C112   C     0.87098   0.23434   0.47960   0.00000  Uiso   1.00
C113   C     0.75057   0.08283   0.49673   0.00000  Uiso   1.00
C114   C     0.91609   0.25050   0.00327   0.00000  Uiso   1.00
C115   C     0.85689   0.32274   0.25196   0.00000  Uiso   1.00
C116   C     0.80978   0.01059   0.24804   0.00000  Uiso   1.00
C117   C     0.79434   0.16313   0.33320   0.00000  Uiso   1.00
C118   C     0.87233   0.17020   0.16680   0.00000  Uiso   1.00
C119   C     0.76987   0.15543   0.38093   0.00000  Uiso   1.00
C120   C     0.89679   0.17791   0.11907   0.00000  Uiso   1.00
C121   C     0.70662   0.09430   0.43790   0.00000  Uiso   1.00
C122   C     0.96005   0.23904   0.06210   0.00000  Uiso   1.00
C123   C     0.71533   0.11548   0.39736   0.00000  Uiso   1.00
C124   C     0.95134   0.21786   0.10264   0.00000  Uiso   1.00
C125   C     0.80823   0.18080   0.40908   0.00000  Uiso   1.00
C126   C     0.85844   0.15253   0.09092   0.00000  Uiso   1.00
C127   C     0.79678   0.16102   0.45190   0.00000  Uiso   1.00
C128   C     0.86989   0.17232   0.04810   0.00000  Uiso   1.00
C129   C     0.74992   0.11363   0.46304   0.00000  Uiso   1.00
C130   C     0.91674   0.21970   0.03696   0.00000  Uiso   1.00
C131   C     0.83390   0.18242   0.48238   0.00000  Uiso   1.00
C132   C     0.83276   0.15092   0.01762   0.00000  Uiso   1.00
Cu133  Cu    0.77404   0.16108   0.24516   0.00000  Uiso   1.00
Cu134  Cu    0.89263   0.17225   0.25483   0.00000  Uiso   1.00
H135   H     0.71946   0.04395   0.00244   0.00000  Uiso   1.00
H136   H     0.94720   0.28939   0.49756   0.00000  Uiso   1.00
H137   H     0.66854   0.05987   0.44845   0.00000  Uiso   1.00
H138   H     0.99812   0.27347   0.05155   0.00000  Uiso   1.00
H139   H     0.80164   0.06943   0.03990   0.00000  Uiso   1.00
H140   H     0.86503   0.26390   0.46010   0.00000  Uiso   1.00
H141   H     0.90223   0.01331   0.25567   0.00000  Uiso   1.00
H142   H     0.76444   0.32003   0.24433   0.00000  Uiso   1.00
H143   H     0.66787   0.20475   0.28447   0.00000  Uiso   1.00
H144   H     0.99879   0.12858   0.21553   0.00000  Uiso   1.00
N145   N     0.98173   0.18068   0.26212   0.00000  Uiso   1.00
N146   N     0.68494   0.15265   0.23788   0.00000  Uiso   1.00
O147   O     0.79482   0.23809   0.24686   0.00000  Uiso   1.00
O148   O     0.87185   0.09524   0.25314   0.00000  Uiso   1.00
O149   O     0.89496   0.24753   0.25502   0.00000  Uiso   1.00
O150   O     0.77171   0.08580   0.24497   0.00000  Uiso   1.00
O151   O     0.75518   0.15930   0.30854   0.00000  Uiso   1.00
O152   O     0.91149   0.17403   0.19145   0.00000  Uiso   1.00
O153   O     0.85532   0.16874   0.31671   0.00000  Uiso   1.00
O154   O     0.81134   0.16460   0.18329   0.00000  Uiso   1.00
C155   C     0.80274   0.11165   0.10924   0.00000  Uiso   1.00
N156   N     0.75837   0.07928   0.12430   0.00000  Uiso   1.00
C157   C     0.86393   0.22168   0.39076   0.00000  Uiso   1.00
N158   N     0.90830   0.25405   0.37570   0.00000  Uiso   1.00
C159   C     0.99479   0.24270   0.12857   0.00000  Uiso   1.00
N160   N     0.69634   0.26262   0.14925   0.00000  Uiso   1.00
C161   C     0.67187   0.09064   0.37143   0.00000  Uiso   1.00
N162   N     0.97033   0.07072   0.35075   0.00000  Uiso   1.00
C163   C     0.18174   0.60008   0.25130   0.00000  Uiso   1.00
C164   C     0.15159   0.39992   0.24870   0.00000  Uiso   1.00
C165   C     0.12901   0.43233   0.02040   0.00000  Uiso   1.00
C166   C     0.20432   0.56767   0.47960   0.00000  Uiso   1.00
C167   C     0.08390   0.41617   0.49673   0.00000  Uiso   1.00
C168   C     0.24943   0.58383   0.00327   0.00000  Uiso   1.00
C169   C     0.19022   0.65608   0.25196   0.00000  Uiso   1.00
C170   C     0.14311   0.34392   0.24804   0.00000  Uiso   1.00
C171   C     0.12767   0.49647   0.33320   0.00000  Uiso   1.00
C172   C     0.20566   0.50353   0.16680   0.00000  Uiso   1.00
C173   C     0.10321   0.48876   0.38093   0.00000  Uiso   1.00
C174   C     0.23013   0.51124   0.11907   0.00000  Uiso   1.00
C175   C     0.03995   0.42763   0.43790   0.00000  Uiso   1.00
C176   C     0.29338   0.57237   0.06210   0.00000  Uiso   1.00
C177   C     0.04866   0.44881   0.39736   0.00000  Uiso   1.00
C178   C     0.28467   0.55119   0.10264   0.00000  Uiso   1.00
C179   C     0.14156   0.51413   0.40908   0.00000  Uiso   1.00
C180   C     0.19177   0.48587   0.09092   0.00000  Uiso   1.00
C181   C     0.13011   0.49435   0.45190   0.00000  Uiso   1.00
C182   C     0.20322   0.50565   0.04810   0.00000  Uiso   1.00
C183   C     0.08326   0.44697   0.46304   0.00000  Uiso   1.00
C184   C     0.25007   0.55303   0.03696   0.00000  Uiso   1.00
C185   C     0.16723   0.51575   0.48238   0.00000  Uiso   1.00
C186   C     0.16610   0.48425   0.01762   0.00000  Uiso   1.00
Cu187  Cu    0.10737   0.49441   0.24516   0.00000  Uiso   1.00
Cu188  Cu    0.22596   0.50559   0.25483   0.00000  Uiso   1.00
H189   H     0.05279   0.37728   0.00244   0.00000  Uiso   1.00
H190   H     0.28054   0.62272   0.49756   0.00000  Uiso   1.00
H191   H     0.00188   0.39320   0.44845   0.00000  Uiso   1.00
H192   H     0.33145   0.60680   0.05155   0.00000  Uiso   1.00
H193   H     0.13497   0.40276   0.03990   0.00000  Uiso   1.00
H194   H     0.19836   0.59724   0.46010   0.00000  Uiso   1.00
H195   H     0.23556   0.34664   0.25567   0.00000  Uiso   1.00
H196   H     0.09777   0.65336   0.24433   0.00000  Uiso   1.00
H197   H     0.00121   0.53809   0.28447   0.00000  Uiso   1.00
H198   H     0.33212   0.46191   0.21553   0.00000  Uiso   1.00
N199   N     0.31506   0.51401   0.26212   0.00000  Uiso   1.00
N200   N     0.01827   0.48599   0.23788   0.00000  Uiso   1.00
O201   O     0.12815   0.57142   0.24686   0.00000  Uiso   1.00
O202   O     0.20518   0.42858   0.25314   0.00000  Uiso   1.00
O203   O     0.22829   0.58086   0.25502   0.00000  Uiso   1.00
O204   O     0.10504   0.41914   0.24497   0.00000  Uiso   1.00
O205   O     0.08851   0.49263   0.30854   0.00000  Uiso   1.00
O206   O     0.24482   0.50737   0.19145   0.00000  Uiso   1.00
O207   O     0.18866   0.50207   0.31671   0.00000  Uiso   1.00
O208   O     0.14468   0.49793   0.18329   0.00000  Uiso   1.00
C209   C     0.13607   0.44498   0.10924   0.00000  Uiso   1.00
N210   N     0.09170   0.41261   0.12430   0.00000  Uiso   1.00
C211   C     0.19726   0.55502   0.39076   0.00000  Uiso   1.00
N212   N     0.24163   0.58739   0.37570   0.00000  Uiso   1.00
C213   C     0.32813   0.57603   0.12857   0.00000  Uiso   1.00
N214   N     0.02967   0.59595   0.14925   0.00000  Uiso   1.00
C215   C     0.00521   0.42397   0.37143   0.00000  Uiso   1.00
N216   N     0.30366   0.40405   0.35075   0.00000  Uiso   1.00
C217   C     0.51508   0.60008   0.25130   0.00000  Uiso   1.00
C218   C     0.48492   0.39992   0.24870   0.00000  Uiso   1.00
C219   C     0.46235   0.43233   0.02040   0.00000  Uiso   1.00
C220   C     0.53765   0.56767   0.47960   0.00000  Uiso   1.00
C221   C     0.41724   0.41617   0.49673   0.00000  Uiso   1.00
C222   C     0.58276   0.58383   0.00327   0.00000  Uiso   1.00
C223   C     0.52355   0.65608   0.25196   0.00000  Uiso   1.00
C224   C     0.47645   0.34392   0.24804   0.00000  Uiso   1.00
C225   C     0.46101   0.49647   0.33320   0.00000  Uiso   1.00
C226   C     0.53899   0.50353   0.16680   0.00000  Uiso   1.00
C227   C     0.43654   0.48876   0.38093   0.00000  Uiso   1.00
C228   C     0.56346   0.51124   0.11907   0.00000  Uiso   1.00
C229   C     0.37328   0.42763   0.43790   0.00000  Uiso   1.00
C230   C     0.62672   0.57237   0.06210   0.00000  Uiso   1.00
C231   C     0.38200   0.44881   0.39736   0.00000  Uiso   1.00
C232   C     0.61800   0.55119   0.10264   0.00000  Uiso   1.00
C233   C     0.47490   0.51413   0.40908   0.00000  Uiso   1.00
C234   C     0.52510   0.48587   0.09092   0.00000  Uiso   1.00
C235   C     0.46345   0.49435   0.45190   0.00000  Uiso   1.00
C236   C     0.53655   0.50565   0.04810   0.00000  Uiso   1.00
C237   C     0.41659   0.44697   0.46304   0.00000  Uiso   1.00
C238   C     0.58341   0.55303   0.03696   0.00000  Uiso   1.00
C239   C     0.50057   0.51575   0.48238   0.00000  Uiso   1.00
C240   C     0.49943   0.48425   0.01762   0.00000  Uiso   1.00
Cu241  Cu    0.44071   0.49441   0.24516   0.00000  Uiso   1.00
Cu242  Cu    0.55929   0.50559   0.25483   0.00000  Uiso   1.00
H243   H     0.38613   0.37728   0.00244   0.00000  Uiso   1.00
H244   H     0.61387   0.62272   0.49756   0.00000  Uiso   1.00
H245   H     0.33521   0.39320   0.44845   0.00000  Uiso   1.00
H246   H     0.66479   0.60680   0.05155   0.00000  Uiso   1.00
H247   H     0.46830   0.40276   0.03990   0.00000  Uiso   1.00
H248   H     0.53169   0.59724   0.46010   0.00000  Uiso   1.00
H249   H     0.56889   0.34664   0.25567   0.00000  Uiso   1.00
H250   H     0.43111   0.65336   0.24433   0.00000  Uiso   1.00
H251   H     0.33454   0.53809   0.28447   0.00000  Uiso   1.00
H252   H     0.66546   0.46191   0.21553   0.00000  Uiso   1.00
N253   N     0.64839   0.51401   0.26212   0.00000  Uiso   1.00
N254   N     0.35161   0.48599   0.23788   0.00000  Uiso   1.00
O255   O     0.46148   0.57142   0.24686   0.00000  Uiso   1.00
O256   O     0.53852   0.42858   0.25314   0.00000  Uiso   1.00
O257   O     0.56163   0.58086   0.25502   0.00000  Uiso   1.00
O258   O     0.43837   0.41914   0.24497   0.00000  Uiso   1.00
O259   O     0.42185   0.49263   0.30854   0.00000  Uiso   1.00
O260   O     0.57815   0.50737   0.19145   0.00000  Uiso   1.00
O261   O     0.52199   0.50207   0.31671   0.00000  Uiso   1.00
O262   O     0.47801   0.49793   0.18329   0.00000  Uiso   1.00
C263   C     0.46940   0.44498   0.10924   0.00000  Uiso   1.00
N264   N     0.42504   0.41261   0.12430   0.00000  Uiso   1.00
C265   C     0.53060   0.55502   0.39076   0.00000  Uiso   1.00
N266   N     0.57497   0.58739   0.37570   0.00000  Uiso   1.00
C267   C     0.66146   0.57603   0.12857   0.00000  Uiso   1.00
N268   N     0.36301   0.59595   0.14925   0.00000  Uiso   1.00
C269   C     0.33854   0.42397   0.37143   0.00000  Uiso   1.00
N270   N     0.63699   0.40405   0.35075   0.00000  Uiso   1.00
C271   C     0.84841   0.60008   0.25130   0.00000  Uiso   1.00
C272   C     0.81825   0.39992   0.24870   0.00000  Uiso   1.00
C273   C     0.79568   0.43233   0.02040   0.00000  Uiso   1.00
C274   C     0.87098   0.56767   0.47960   0.00000  Uiso   1.00
C275   C     0.75057   0.41617   0.49673   0.00000  Uiso   1.00
C276   C     0.91609   0.58383   0.00327   0.00000  Uiso   1.00
C277   C     0.85689   0.65608   0.25196   0.00000  Uiso   1.00
C278   C     0.80978   0.34392   0.24804   0.00000  Uiso   1.00
C279   C     0.79434   0.49647   0.33320   0.00000  Uiso   1.00
C280   C     0.87233   0.50353   0.16680   0.00000  Uiso   1.00
C281   C     0.76987   0.48876   0.38093   0.00000  Uiso   1.00
C282   C     0.89679   0.51124   0.11907   0.00000  Uiso   1.00
C283   C     0.70662   0.42763   0.43790   0.00000  Uiso   1.00
C284   C     0.96005   0.57237   0.06210   0.00000  Uiso   1.00
C285   C     0.71533   0.44881   0.39736   0.00000  Uiso   1.00
C286   C     0.95134   0.55119   0.10264   0.00000  Uiso   1.00
C287   C     0.80823   0.51413   0.40908   0.00000  Uiso   1.00
C288   C     0.85844   0.48587   0.09092   0.00000  Uiso   1.00
C289   C     0.79678   0.49435   0.45190   0.00000  Uiso   1.00
C290   C     0.86989   0.50565   0.04810   0.00000  Uiso   1.00
C291   C     0.74992   0.44697   0.46304   0.00000  Uiso   1.00
C292   C     0.91674   0.55303   0.03696   0.00000  Uiso   1.00
C293   C     0.83390   0.51575   0.48238   0.00000  Uiso   1.00
C294   C     0.83276   0.48425   0.01762   0.00000  Uiso   1.00
Cu295  Cu    0.77404   0.49441   0.24516   0.00000  Uiso   1.00
Cu296  Cu    0.89263   0.50559   0.25483   0.00000  Uiso   1.00
H297   H     0.71946   0.37728   0.00244   0.00000  Uiso   1.00
H298   H     0.94720   0.62272   0.49756   0.00000  Uiso   1.00
H299   H     0.66854   0.39320   0.44845   0.00000  Uiso   1.00
H300   H     0.99812   0.60680   0.05155   0.00000  Uiso   1.00
H301   H     0.80164   0.40276   0.03990   0.00000  Uiso   1.00
H302   H     0.86503   0.59724   0.46010   0.00000  Uiso   1.00
H303   H     0.90223   0.34664   0.25567   0.00000  Uiso   1.00
H304   H     0.76444   0.65336   0.24433   0.00000  Uiso   1.00
H305   H     0.66787   0.53809   0.28447   0.00000  Uiso   1.00
H306   H     0.99879   0.46191   0.21553   0.00000  Uiso   1.00
N307   N     0.98173   0.51401   0.26212   0.00000  Uiso   1.00
N308   N     0.68494   0.48599   0.23788   0.00000  Uiso   1.00
O309   O     0.79482   0.57142   0.24686   0.00000  Uiso   1.00
O310   O     0.87185   0.42858   0.25314   0.00000  Uiso   1.00
O311   O     0.89496   0.58086   0.25502   0.00000  Uiso   1.00
O312   O     0.77171   0.41914   0.24497   0.00000  Uiso   1.00
O313   O     0.75518   0.49263   0.30854   0.00000  Uiso   1.00
O314   O     0.91149   0.50737   0.19145   0.00000  Uiso   1.00
O315   O     0.85532   0.50207   0.31671   0.00000  Uiso   1.00
O316   O     0.81134   0.49793   0.18329   0.00000  Uiso   1.00
C317   C     0.80274   0.44498   0.10924   0.00000  Uiso   1.00
N318   N     0.75837   0.41261   0.12430   0.00000  Uiso   1.00
C319   C     0.86393   0.55502   0.39076   0.00000  Uiso   1.00
N320   N     0.90830   0.58739   0.37570   0.00000  Uiso   1.00
C321   C     0.99479   0.57603   0.12857   0.00000  Uiso   1.00
N322   N     0.69634   0.59595   0.14925   0.00000  Uiso   1.00
C323   C     0.67187   0.42397   0.37143   0.00000  Uiso   1.00
N324   N     0.97033   0.40405   0.35075   0.00000  Uiso   1.00
C325   C     0.18174   0.93342   0.25130   0.00000  Uiso   1.00
C326   C     0.15159   0.73325   0.24870   0.00000  Uiso   1.00
C327   C     0.12901   0.76566   0.02040   0.00000  Uiso   1.00
C328   C     0.20432   0.90100   0.47960   0.00000  Uiso   1.00
C329   C     0.08390   0.74950   0.49673   0.00000  Uiso   1.00
C330   C     0.24943   0.91717   0.00327   0.00000  Uiso   1.00
C331   C     0.19022   0.98941   0.25196   0.00000  Uiso   1.00
C332   C     0.14311   0.67726   0.24804   0.00000  Uiso   1.00
C333   C     0.12767   0.82980   0.33320   0.00000  Uiso   1.00
C334   C     0.20566   0.83687   0.16680   0.00000  Uiso   1.00
C335   C     0.10321   0.82209   0.38093   0.00000  Uiso   1.00
C336   C     0.23013   0.84457   0.11907   0.00000  Uiso   1.00
C337   C     0.03995   0.76096   0.43790   0.00000  Uiso   1.00
C338   C     0.29338   0.90570   0.06210   0.00000  Uiso   1.00
C339   C     0.04866   0.78214   0.39736   0.00000  Uiso   1.00
C340   C     0.28467   0.88453   0.10264   0.00000  Uiso   1.00
C341   C     0.14156   0.84747   0.40908   0.00000  Uiso   1.00
C342   C     0.19177   0.81920   0.09092   0.00000  Uiso   1.00
C343   C     0.13011   0.82768   0.45190   0.00000  Uiso   1.00
C344   C     0.20322   0.83898   0.04810   0.00000  Uiso   1.00
C345   C     0.08326   0.78030   0.46304   0.00000  Uiso   1.00
C346   C     0.25007   0.88637   0.03696   0.00000  Uiso   1.00
C347   C     0.16723   0.84908   0.48238   0.00000  Uiso   1.00
C348   C     0.16610   0.81758   0.01762   0.00000  Uiso   1.00
Cu349  Cu    0.10737   0.82775   0.24516   0.00000  Uiso   1.00
Cu350  Cu    0.22596   0.83892   0.25483   0.00000  Uiso   1.00
H351   H     0.05279   0.71061   0.00244   0.00000  Uiso   1.00
H352   H     0.28054   0.95605   0.49756   0.00000  Uiso   1.00
H353   H     0.00188   0.72653   0.44845   0.00000  Uiso   1.00
H354   H     0.33145   0.94014   0.05155   0.00000  Uiso   1.00
H355   H     0.13497   0.73609   0.03990   0.00000  Uiso   1.00
H356   H     0.19836   0.93057   0.46010   0.00000  Uiso   1.00
H357   H     0.23556   0.67997   0.25567   0.00000  Uiso   1.00
H358   H     0.09777   0.98670   0.24433   0.00000  Uiso   1.00
H359   H     0.00121   0.87142   0.28447   0.00000  Uiso   1.00
H360   H     0.33212   0.79525   0.21553   0.00000  Uiso   1.00
N361   N     0.31506   0.84735   0.26212   0.00000  Uiso   1.00
N362   N     0.01827   0.81932   0.23788   0.00000  Uiso   1.00
O363   O     0.12815   0.90476   0.24686   0.00000  Uiso   1.00
O364   O     0.20518   0.76191   0.25314   0.00000  Uiso   1.00
O365   O     0.22829   0.91420   0.25502   0.00000  Uiso   1.00
O366   O     0.10504   0.75247   0.24497   0.00000  Uiso   1.00
O367   O     0.08851   0.82597   0.30854   0.00000  Uiso   1.00
O368   O     0.24482   0.84070   0.19145   0.00000  Uiso   1.00
O369   O     0.18866   0.83540   0.31671   0.00000  Uiso   1.00
O370   O     0.14468   0.83126   0.18329   0.00000  Uiso   1.00
C371   C     0.13607   0.77831   0.10924   0.00000  Uiso   1.00
N372   N     0.09170   0.74594   0.12430   0.00000  Uiso   1.00
C373   C     0.19726   0.88835   0.39076   0.00000  Uiso   1.00
N374   N     0.24163   0.92072   0.37570   0.00000  Uiso   1.00
C375   C     0.32813   0.90936   0.12857   0.00000  Uiso   1.00
N376   N     0.02967   0.92929   0.14925   0.00000  Uiso   1.00
C377   C     0.00521   0.75731   0.37143   0.00000  Uiso   1.00
N378   N     0.30366   0.73738   0.35075   0.00000  Uiso   1.00
C379   C     0.51508   0.93342   0.25130   0.00000  Uiso   1.00
C380   C     0.48492   0.73325   0.24870   0.00000  Uiso   1.00
C381   C     0.46235   0.76566   0.02040   0.00000  Uiso   1.00
C382   C     0.53765   0.90100   0.47960   0.00000  Uiso   1.00
C383   C     0.41724   0.74950   0.49673   0.00000  Uiso   1.00
C384   C     0.58276   0.91717   0.00327   0.00000  Uiso   1.00
C385   C     0.52355   0.98941   0.25196   0.00000  Uiso   1.00
C386   C     0.47645   0.67726   0.24804   0.00000  Uiso   1.00
C387   C     0.46101   0.82980   0.33320   0.00000  Uiso   1.00
C388   C     0.53899   0.83687   0.16680   0.00000  Uiso   1.00
C389   C     0.43654   0.82209   0.38093   0.00000  Uiso   1.00
C390   C     0.56346   0.84457   0.11907   0.00000  Uiso   1.00
C391   C     0.37328   0.76096   0.43790   0.00000  Uiso   1.00
C392   C     0.62672   0.90570   0.06210   0.00000  Uiso   1.00
C393   C     0.38200   0.78214   0.39736   0.00000  Uiso   1.00
C394   C     0.61800   0.88453   0.10264   0.00000  Uiso   1.00
C395   C     0.47490   0.84747   0.40908   0.00000  Uiso   1.00
C396   C     0.52510   0.81920   0.09092   0.00000  Uiso   1.00
C397   C     0.46345   0.82768   0.45190   0.00000  Uiso   1.00
C398   C     0.53655   0.83898   0.04810   0.00000  Uiso   1.00
C399   C     0.41659   0.78030   0.46304   0.00000  Uiso   1.00
C400   C     0.58341   0.88637   0.03696   0.00000  Uiso   1.00
C401   C     0.50057   0.84908   0.48238   0.00000  Uiso   1.00
C402   C     0.49943   0.81758   0.01762   0.00000  Uiso   1.00
Cu403  Cu    0.44071   0.82775   0.24516   0.00000  Uiso   1.00
Cu404  Cu    0.55929   0.83892   0.25483   0.00000  Uiso   1.00
H405   H     0.38613   0.71061   0.00244   0.00000  Uiso   1.00
H406   H     0.61387   0.95605   0.49756   0.00000  Uiso   1.00
H407   H     0.33521   0.72653   0.44845   0.00000  Uiso   1.00
H408   H     0.66479   0.94014   0.05155   0.00000  Uiso   1.00
H409   H     0.46830   0.73609   0.03990   0.00000  Uiso   1.00
H410   H     0.53169   0.93057   0.46010   0.00000  Uiso   1.00
H411   H     0.56889   0.67997   0.25567   0.00000  Uiso   1.00
H412   H     0.43111   0.98670   0.24433   0.00000  Uiso   1.00
H413   H     0.33454   0.87142   0.28447   0.00000  Uiso   1.00
H414   H     0.66546   0.79525   0.21553   0.00000  Uiso   1.00
N415   N     0.64839   0.84735   0.26212   0.00000  Uiso   1.00
N416   N     0.35161   0.81932   0.23788   0.00000  Uiso   1.00
O417   O     0.46148   0.90476   0.24686   0.00000  Uiso   1.00
O418   O     0.53852   0.76191   0.25314   0.00000  Uiso   1.00
O419   O     0.56163   0.91420   0.25502   0.00000  Uiso   1.00
O420   O     0.43837   0.75247   0.24497   0.00000  Uiso   1.00
O421   O     0.42185   0.82597   0.30854   0.00000  Uiso   1.00
O422   O     0.57815   0.84070   0.19145   0.00000  Uiso   1.00
O423   O     0.52199   0.83540   0.31671   0.00000  Uiso   1.00
O424   O     0.47801   0.83126   0.18329   0.00000  Uiso   1.00
C425   C     0.46940   0.77831   0.10924   0.00000  Uiso   1.00
N426   N     0.42504   0.74594   0.12430   0.00000  Uiso   1.00
C427   C     0.53060   0.88835   0.39076   0.00000  Uiso   1.00
N428   N     0.57497   0.92072   0.37570   0.00000  Uiso   1.00
C429   C     0.66146   0.90936   0.12857   0.00000  Uiso   1.00
N430   N     0.36301   0.92929   0.14925   0.00000  Uiso   1.00
C431   C     0.33854   0.75731   0.37143   0.00000  Uiso   1.00
N432   N     0.63699   0.73738   0.35075   0.00000  Uiso   1.00
C433   C     0.84841   0.93342   0.25130   0.00000  Uiso   1.00
C434   C     0.81825   0.73325   0.24870   0.00000  Uiso   1.00
C435   C     0.79568   0.76566   0.02040   0.00000  Uiso   1.00
C436   C     0.87098   0.90100   0.47960   0.00000  Uiso   1.00
C437   C     0.75057   0.74950   0.49673   0.00000  Uiso   1.00
C438   C     0.91609   0.91717   0.00327   0.00000  Uiso   1.00
C439   C     0.85689   0.98941   0.25196   0.00000  Uiso   1.00
C440   C     0.80978   0.67726   0.24804   0.00000  Uiso   1.00
C441   C     0.79434   0.82980   0.33320   0.00000  Uiso   1.00
C442   C     0.87233   0.83687   0.16680   0.00000  Uiso   1.00
C443   C     0.76987   0.82209   0.38093   0.00000  Uiso   1.00
C444   C     0.89679   0.84457   0.11907   0.00000  Uiso   1.00
C445   C     0.70662   0.76096   0.43790   0.00000  Uiso   1.00
C446   C     0.96005   0.90570   0.06210   0.00000  Uiso   1.00
C447   C     0.71533   0.78214   0.39736   0.00000  Uiso   1.00
C448   C     0.95134   0.88453   0.10264   0.00000  Uiso   1.00
C449   C     0.80823   0.84747   0.40908   0.00000  Uiso   1.00
C450   C     0.85844   0.81920   0.09092   0.00000  Uiso   1.00
C451   C     0.79678   0.82768   0.45190   0.00000  Uiso   1.00
C452   C     0.86989   0.83898   0.04810   0.00000  Uiso   1.00
C453   C     0.74992   0.78030   0.46304   0.00000  Uiso   1.00
C454   C     0.91674   0.88637   0.03696   0.00000  Uiso   1.00
C455   C     0.83390   0.84908   0.48238   0.00000  Uiso   1.00
C456   C     0.83276   0.81758   0.01762   0.00000  Uiso   1.00
Cu457  Cu    0.77404   0.82775   0.24516   0.00000  Uiso   1.00
Cu458  Cu    0.89263   0.83892   0.25483   0.00000  Uiso   1.00
H459   H     0.71946   0.71061   0.00244   0.00000  Uiso   1.00
H460   H     0.94720   0.95605   0.49756   0.00000  Uiso   1.00
H461   H     0.66854   0.72653   0.44845   0.00000  Uiso   1.00
H462   H     0.99812   0.94014   0.05155   0.00000  Uiso   1.00
H463   H     0.80164   0.73609   0.03990   0.00000  Uiso   1.00
H464   H     0.86503   0.93057   0.46010   0.00000  Uiso   1.00
H465   H     0.90223   0.67997   0.25567   0.00000  Uiso   1.00
H466   H     0.76444   0.98670   0.24433   0.00000  Uiso   1.00
H467   H     0.66787   0.87142   0.28447   0.00000  Uiso   1.00
H468   H     0.99879   0.79525   0.21553   0.00000  Uiso   1.00
N469   N     0.98173   0.84735   0.26212   0.00000  Uiso   1.00
N470   N     0.68494   0.81932   0.23788   0.00000  Uiso   1.00
O471   O     0.79482   0.90476   0.24686   0.00000  Uiso   1.00
O472   O     0.87185   0.76191   0.25314   0.00000  Uiso   1.00
O473   O     0.89496   0.91420   0.25502   0.00000  Uiso   1.00
O474   O     0.77171   0.75247   0.24497   0.00000  Uiso   1.00
O475   O     0.75518   0.82597   0.30854   0.00000  Uiso   1.00
O476   O     0.91149   0.84070   0.19145   0.00000  Uiso   1.00
O477   O     0.85532   0.83540   0.31671   0.00000  Uiso   1.00
O478   O     0.81134   0.83126   0.18329   0.00000  Uiso   1.00
C479   C     0.80274   0.77831   0.10924   0.00000  Uiso   1.00
N480   N     0.75837   0.74594   0.12430   0.00000  Uiso   1.00
C481   C     0.86393   0.88835   0.39076   0.00000  Uiso   1.00
N482   N     0.90830   0.92072   0.37570   0.00000  Uiso   1.00
C483   C     0.99479   0.90936   0.12857   0.00000  Uiso   1.00
N484   N     0.69634   0.92929   0.14925   0.00000  Uiso   1.00
C485   C     0.67187   0.75731   0.37143   0.00000  Uiso   1.00
N486   N     0.97033   0.73738   0.35075   0.00000  Uiso   1.00
C487   C     0.18174   0.26675   0.75130   0.00000  Uiso   1.00
C488   C     0.15159   0.06658   0.74870   0.00000  Uiso   1.00
C489   C     0.12901   0.09900   0.52040   0.00000  Uiso   1.00
C490   C     0.20432   0.23434   0.97960   0.00000  Uiso   1.00
C491   C     0.08390   0.08283   0.99673   0.00000  Uiso   1.00
C492   C     0.24943   0.25050   0.50327   0.00000  Uiso   1.00
C493   C     0.19022   0.32274   0.75196   0.00000  Uiso   1.00
C494   C     0.14311   0.01059   0.74804   0.00000  Uiso   1.00
C495   C     0.12767   0.16313   0.83320   0.00000  Uiso   1.00
C496   C     0.20566   0.17020   0.66680   0.00000  Uiso   1.00
C497   C     0.10321   0.15543   0.88093   0.00000  Uiso   1.00
C498   C     0.23013   0.17791   0.61907   0.00000  Uiso   1.00
C499   C     0.03995   0.09430   0.93790   0.00000  Uiso   1.00
C500   C     0.29338   0.23904   0.56210   0.00000  Uiso   1.00
C501   C     0.04866   0.11548   0.89736   0.00000  Uiso   1.00
C502   C     0.28467   0.21786   0.60264   0.00000  Uiso   1.00
C503   C     0.14156   0.18080   0.90908   0.00000  Uiso   1.00
C504   C     0.19177   0.15253   0.59092   0.00000  Uiso   1.00
C505   C     0.13011   0.16102   0.95190   0.00000  Uiso   1.00
C506   C     0.20322   0.17232   0.54810   0.00000  Uiso   1.00
C507   C     0.08326   0.11363   0.96304   0.00000  Uiso   1.00
C508   C     0.25007   0.21970   0.53696   0.00000  Uiso   1.00
C509   C     0.16723   0.18242   0.98238   0.00000  Uiso   1.00
C510   C     0.16610   0.15092   0.51762   0.00000  Uiso   1.00
Cu511  Cu    0.10737   0.16108   0.74516   0.00000  Uiso   1.00
Cu512  Cu    0.22596   0.17225   0.75483   0.00000  Uiso   1.00
H513   H     0.05279   0.04395   0.50244   0.00000  Uiso   1.00
H514   H     0.28054   0.28939   0.99756   0.00000  Uiso   1.00
H515   H     0.00188   0.05987   0.94845   0.00000  Uiso   1.00
H516   H     0.33145   0.27347   0.55155   0.00000  Uiso   1.00
H517   H     0.13497   0.06943   0.53990   0.00000  Uiso   1.00
H518   H     0.19836   0.26390   0.96010   0.00000  Uiso   1.00
H519   H     0.23556   0.01331   0.75567   0.00000  Uiso   1.00
H520   H     0.09777   0.32003   0.74433   0.00000  Uiso   1.00
H521   H     0.00121   0.20475   0.78447   0.00000  Uiso   1.00
H522   H     0.33212   0.12858   0.71553   0.00000  Uiso   1.00
N523   N     0.31506   0.18068   0.76212   0.00000  Uiso   1.00
N524   N     0.01827   0.15265   0.73788   0.00000  Uiso   1.00
O525   O     0.12815   0.23809   0.74686   0.00000  Uiso   1.00
O526   O     0.20518   0.09524   0.75314   0.00000  Uiso   1.00
O527   O     0.22829   0.24753   0.75502   0.00000  Uiso   1.00
O528   O     0.10504   0.08580   0.74497   0.00000  Uiso   1.00
O529   O     0.08851   0.15930   0.80854   0.00000  Uiso   1.00
O530   O     0.24482   0.17403   0.69145   0.00000  Uiso   1.00
O531   O     0.18866   0.16874   0.81671   0.00000  Uiso   1.00
O532   O     0.14468   0.16460   0.68329   0.00000  Uiso   1.00
C533   C     0.13607   0.11165   0.60924   0.00000  Uiso   1.00
N534   N     0.09170   0.07928   0.62430   0.00000  Uiso   1.00
C535   C     0.19726   0.22168   0.89076   0.00000  Uiso   1.00
N536   N     0.24163   0.25405   0.87570   0.00000  Uiso   1.00
C537   C     0.32813   0.24270   0.62857   0.00000  Uiso   1.00
N538   N     0.02967   0.26262   0.64925   0.00000  Uiso   1.00
C539   C     0.00521   0.09064   0.87143   0.00000  Uiso   1.00
N540   N     0.30366   0.07072   0.85075   0.00000  Uiso   1.00
C541   C     0.51508   0.26675   0.75130   0.00000  Uiso   1.00
C542   C     0.48492   0.06658   0.74870   0.00000  Uiso   1.00
C543   C     0.46235   0.09900   0.52040   0.00000  Uiso   1.00
C544   C     0.53765   0.23434   0.97960   0.00000  Uiso   1.00
C545   C     0.41724   0.08283   0.99673   0.00000  Uiso   1.00
C546   C     0.58276   0.25050   0.50327   0.00000  Uiso   1.00
C547   C     0.52355   0.32274   0.75196   0.00000  Uiso   1.00
C548   C     0.47645   0.01059   0.74804   0.00000  Uiso   1.00
C549   C     0.46101   0.16313   0.83320   0.00000  Uiso   1.00
C550   C     0.53899   0.17020   0.66680   0.00000  Uiso   1.00
C551   C     0.43654   0.15543   0.88093   0.00000  Uiso   1.00
C552   C     0.56346   0.17791   0.61907   0.00000  Uiso   1.00
C553   C     0.37328   0.09430   0.93790   0.00000  Uiso   1.00
C554   C     0.62672   0.23904   0.56210   0.00000  Uiso   1.00
C555   C     0.38200   0.11548   0.89736   0.00000  Uiso   1.00
C556   C     0.61800   0.21786   0.60264   0.00000  Uiso   1.00
C557   C     0.47490   0.18080   0.90908   0.00000  Uiso   1.00
C558   C     0.52510   0.15253   0.59092   0.00000  Uiso   1.00
C559   C     0.46345   0.16102   0.95190   0.00000  Uiso   1.00
C560   C     0.53655   0.17232   0.54810   0.00000  Uiso   1.00
C561   C     0.41659   0.11363   0.96304   0.00000  Uiso   1.00
C562   C     0.58341   0.21970   0.53696   0.00000  Uiso   1.00
C563   C     0.50057   0.18242   0.98238   0.00000  Uiso   1.00
C564   C     0.49943   0.15092   0.51762   0.00000  Uiso   1.00
Cu565  Cu    0.44071   0.16108   0.74516   0.00000  Uiso   1.00
Cu566  Cu    0.55929   0.17225   0.75483   0.00000  Uiso   1.00
H567   H     0.38613   0.04395   0.50244   0.00000  Uiso   1.00
H568   H     0.61387   0.28939   0.99756   0.00000  Uiso   1.00
H569   H     0.33521   0.05987   0.94845   0.00000  Uiso   1.00
H570   H     0.66479   0.27347   0.55155   0.00000  Uiso   1.00
H571   H     0.46830   0.06943   0.53990   0.00000  Uiso   1.00
H572   H     0.53169   0.26390   0.96010   0.00000  Uiso   1.00
H573   H     0.56889   0.01331   0.75567   0.00000  Uiso   1.00
H574   H     0.43111   0.32003   0.74433   0.00000  Uiso   1.00
H575   H     0.33454   0.20475   0.78447   0.00000  Uiso   1.00
H576   H     0.66546   0.12858   0.71553   0.00000  Uiso   1.00
N577   N     0.64839   0.18068   0.76212   0.00000  Uiso   1.00
N578   N     0.35161   0.15265   0.73788   0.00000  Uiso   1.00
O579   O     0.46148   0.23809   0.74686   0.00000  Uiso   1.00
O580   O     0.53852   0.09524   0.75314   0.00000  Uiso   1.00
O581   O     0.56163   0.24753   0.75502   0.00000  Uiso   1.00
O582   O     0.43837   0.08580   0.74497   0.00000  Uiso   1.00
O583   O     0.42185   0.15930   0.80854   0.00000  Uiso   1.00
O584   O     0.57815   0.17403   0.69145   0.00000  Uiso   1.00
O585   O     0.52199   0.16874   0.81671   0.00000  Uiso   1.00
O586   O     0.47801   0.16460   0.68329   0.00000  Uiso   1.00
C587   C     0.46940   0.11165   0.60924   0.00000  Uiso   1.00
N588   N     0.42504   0.07928   0.62430   0.00000  Uiso   1.00
C589   C     0.53060   0.22168   0.89076   0.00000  Uiso   1.00
N590   N     0.57497   0.25405   0.87570   0.00000  Uiso   1.00
C591   C     0.66146   0.24270   0.62857   0.00000  Uiso   1.00
N592   N     0.36301   0.26262   0.64925   0.00000  Uiso   1.00
C593   C     0.33854   0.09064   0.87143   0.00000  Uiso   1.00
N594   N     0.63699   0.07072   0.85075   0.00000  Uiso   1.00
C595   C     0.84841   0.26675   0.75130   0.00000  Uiso   1.00
C596   C     0.81825   0.06658   0.74870   0.00000  Uiso   1.00
C597   C     0.79568   0.09900   0.52040   0.00000  Uiso   1.00
C598   C     0.87098   0.23434   0.97960   0.00000  Uiso   1.00
C599   C     0.75057   0.08283   0.99673   0.00000  Uiso   1.00
C600   C     0.91609   0.25050   0.50327   0.00000  Uiso   1.00
C601   C     0.85689   0.32274   0.75196   0.00000  Uiso   1.00
C602   C     0.80978   0.01059   0.74804   0.00000  Uiso   1.00
C603   C     0.79434   0.16313   0.83320   0.00000  Uiso   1.00
C604   C     0.87233   0.17020   0.66680   0.00000  Uiso   1.00
C605   C     0.76987   0.15543   0.88093   0.00000  Uiso   1.00
C606   C     0.89679   0.17791   0.61907   0.00000  Uiso   1.00
C607   C     0.70662   0.09430   0.93790   0.00000  Uiso   1.00
C608   C     0.96005   0.23904   0.56210   0.00000  Uiso   1.00
C609   C     0.71533   0.11548   0.89736   0.00000  Uiso   1.00
C610   C     0.95134   0.21786   0.60264   0.00000  Uiso   1.00
C611   C     0.80823   0.18080   0.90908   0.00000  Uiso   1.00
C612   C     0.85844   0.15253   0.59092   0.00000  Uiso   1.00
C613   C     0.79678   0.16102   0.95190   0.00000  Uiso   1.00
C614   C     0.86989   0.17232   0.54810   0.00000  Uiso   1.00
C615   C     0.74992   0.11363   0.96304   0.00000  Uiso   1.00
C616   C     0.91674   0.21970   0.53696   0.00000  Uiso   1.00
C617   C     0.83390   0.18242   0.98238   0.00000  Uiso   1.00
C618   C     0.83276   0.15092   0.51762   0.00000  Uiso   1.00
Cu619  Cu    0.77404   0.16108   0.74516   0.00000  Uiso   1.00
Cu620  Cu    0.89263   0.17225   0.75483   0.00000  Uiso   1.00
H621   H     0.71946   0.04395   0.50244   0.00000  Uiso   1.00
H622   H     0.94720   0.28939   0.99756   0.00000  Uiso   1.00
H623   H     0.66854   0.05987   0.94845   0.00000  Uiso   1.00
H624   H     0.99812   0.27347   0.55155   0.00000  Uiso   1.00
H625   H     0.80164   0.06943   0.53990   0.00000  Uiso   1.00
H626   H     0.86503   0.26390   0.96010   0.00000  Uiso   1.00
H627   H     0.90223   0.01331   0.75567   0.00000  Uiso   1.00
H628   H     0.76444   0.32003   0.74433   0.00000  Uiso   1.00
H629   H     0.66787   0.20475   0.78447   0.00000  Uiso   1.00
H630   H     0.99879   0.12858   0.71553   0.00000  Uiso   1.00
N631   N     0.98173   0.18068   0.76212   0.00000  Uiso   1.00
N632   N     0.68494   0.15265   0.73788   0.00000  Uiso   1.00
O633   O     0.79482   0.23809   0.74686   0.00000  Uiso   1.00
O634   O     0.87185   0.09524   0.75314   0.00000  Uiso   1.00
O635   O     0.89496   0.24753   0.75502   0.00000  Uiso   1.00
O636   O     0.77171   0.08580   0.74497   0.00000  Uiso   1.00
O637   O     0.75518   0.15930   0.80854   0.00000  Uiso   1.00
O638   O     0.91149   0.17403   0.69145   0.00000  Uiso   1.00
O639   O     0.85532   0.16874   0.81671   0.00000  Uiso   1.00
O640   O     0.81134   0.16460   0.68329   0.00000  Uiso   1.00
C641   C     0.80274   0.11165   0.60924   0.00000  Uiso   1.00
N642   N     0.75837   0.07928   0.62430   0.00000  Uiso   1.00
C643   C     0.86393   0.22168   0.89076   0.00000  Uiso   1.00
N644   N     0.90830   0.25405   0.87570   0.00000  Uiso   1.00
C645   C     0.99479   0.24270   0.62857   0.00000  Uiso   1.00
N646   N     0.69634   0.26262   0.64925   0.00000  Uiso   1.00
C647   C     0.67187   0.09064   0.87143   0.00000  Uiso   1.00
N648   N     0.97033   0.07072   0.85075   0.00000  Uiso   1.00
C649   C     0.18174   0.60008   0.75130   0.00000  Uiso   1.00
C650   C     0.15159   0.39992   0.74870   0.00000  Uiso   1.00
C651   C     0.12901   0.43233   0.52040   0.00000  Uiso   1.00
C652   C     0.20432   0.56767   0.97960   0.00000  Uiso   1.00
C653   C     0.08390   0.41617   0.99673   0.00000  Uiso   1.00
C654   C     0.24943   0.58383   0.50327   0.00000  Uiso   1.00
C655   C     0.19022   0.65608   0.75196   0.00000  Uiso   1.00
C656   C     0.14311   0.34392   0.74804   0.00000  Uiso   1.00
C657   C     0.12767   0.49647   0.83320   0.00000  Uiso   1.00
C658   C     0.20566   0.50353   0.66680   0.00000  Uiso   1.00
C659   C     0.10321   0.48876   0.88093   0.00000  Uiso   1.00
C660   C     0.23013   0.51124   0.61907   0.00000  Uiso   1.00
C661   C     0.03995   0.42763   0.93790   0.00000  Uiso   1.00
C662   C     0.29338   0.57237   0.56210   0.00000  Uiso   1.00
C663   C     0.04866   0.44881   0.89736   0.00000  Uiso   1.00
C664   C     0.28467   0.55119   0.60264   0.00000  Uiso   1.00
C665   C     0.14156   0.51413   0.90908   0.00000  Uiso   1.00
C666   C     0.19177   0.48587   0.59092   0.00000  Uiso   1.00
C667   C     0.13011   0.49435   0.95190   0.00000  Uiso   1.00
C668   C     0.20322   0.50565   0.54810   0.00000  Uiso   1.00
C669   C     0.08326   0.44697   0.96304   0.00000  Uiso   1.00
C670   C     0.25007   0.55303   0.53696   0.00000  Uiso   1.00
C671   C     0.16723   0.51575   0.98238   0.00000  Uiso   1.00
C672   C     0.16610   0.48425   0.51762   0.00000  Uiso   1.00
Cu673  Cu    0.10737   0.49441   0.74516   0.00000  Uiso   1.00
Cu674  Cu    0.22596   0.50559   0.75483   0.00000  Uiso   1.00
H675   H     0.05279   0.37728   0.50244   0.00000  Uiso   1.00
H676   H     0.28054   0.62272   0.99756   0.00000  Uiso   1.00
H677   H     0.00188   0.39320   0.94845   0.00000  Uiso   1.00
H678   H     0.33145   0.60680   0.55155   0.00000  Uiso   1.00
H679   H     0.13497   0.40276   0.53990   0.00000  Uiso   1.00
H680   H     0.19836   0.59724   0.96010   0.00000  Uiso   1.00
H681   H     0.23556   0.34664   0.75567   0.00000  Uiso   1.00
H682   H     0.09777   0.65336   0.74433   0.00000  Uiso   1.00
H683   H     0.00121   0.53809   0.78447   0.00000  Uiso   1.00
H684   H     0.33212   0.46191   0.71553   0.00000  Uiso   1.00
N685   N     0.31506   0.51401   0.76212   0.00000  Uiso   1.00
N686   N     0.01827   0.48599   0.73788   0.00000  Uiso   1.00
O687   O     0.12815   0.57142   0.74686   0.00000  Uiso   1.00
O688   O     0.20518   0.42858   0.75314   0.00000  Uiso   1.00
O689   O     0.22829   0.58086   0.75502   0.00000  Uiso   1.00
O690   O     0.10504   0.41914   0.74497   0.00000  Uiso   1.00
O691   O     0.08851   0.49263   0.80854   0.00000  Uiso   1.00
O692   O     0.24482   0.50737   0.69145   0.00000  Uiso   1.00
O693   O     0.18866   0.50207   0.81671   0.00000  Uiso   1.00
O694   O     0.14468   0.49793   0.68329   0.00000  Uiso   1.00
C695   C     0.13607   0.44498   0.60924   0.00000  Uiso   1.00
N696   N     0.09170   0.41261   0.62430   0.00000  Uiso   1.00
C697   C     0.19726   0.55502   0.89076   0.00000  Uiso   1.00
N698   N     0.24163   0.58739   0.87570   0.00000  Uiso   1.00
C699   C     0.32813   0.57603   0.62857   0.00000  Uiso   1.00
N700   N     0.02967   0.59595   0.64925   0.00000  Uiso   1.00
C701   C     0.00521   0.42397   0.87143   0.00000  Uiso   1.00
N702   N     0.30366   0.40405   0.85075   0.00000  Uiso   1.00
C703   C     0.51508   0.60008   0.75130   0.00000  Uiso   1.00
C704   C     0.48492   0.39992   0.74870   0.00000  Uiso   1.00
C705   C     0.46235   0.43233   0.52040   0.00000  Uiso   1.00
C706   C     0.53765   0.56767   0.97960   0.00000  Uiso   1.00
C707   C     0.41724   0.41617   0.99673   0.00000  Uiso   1.00
C708   C     0.58276   0.58383   0.50327   0.00000  Uiso   1.00
C709   C     0.52355   0.65608   0.75196   0.00000  Uiso   1.00
C710   C     0.47645   0.34392   0.74804   0.00000  Uiso   1.00
C711   C     0.46101   0.49647   0.83320   0.00000  Uiso   1.00
C712   C     0.53899   0.50353   0.66680   0.00000  Uiso   1.00
C713   C     0.43654   0.48876   0.88093   0.00000  Uiso   1.00
C714   C     0.56346   0.51124   0.61907   0.00000  Uiso   1.00
C715   C     0.37328   0.42763   0.93790   0.00000  Uiso   1.00
C716   C     0.62672   0.57237   0.56210   0.00000  Uiso   1.00
C717   C     0.38200   0.44881   0.89736   0.00000  Uiso   1.00
C718   C     0.61800   0.55119   0.60264   0.00000  Uiso   1.00
C719   C     0.47490   0.51413   0.90908   0.00000  Uiso   1.00
C720   C     0.52510   0.48587   0.59092   0.00000  Uiso   1.00
C721   C     0.46345   0.49435   0.95190   0.00000  Uiso   1.00
C722   C     0.53655   0.50565   0.54810   0.00000  Uiso   1.00
C723   C     0.41659   0.44697   0.96304   0.00000  Uiso   1.00
C724   C     0.58341   0.55303   0.53696   0.00000  Uiso   1.00
C725   C     0.50057   0.51575   0.98238   0.00000  Uiso   1.00
C726   C     0.49943   0.48425   0.51762   0.00000  Uiso   1.00
Cu727  Cu    0.44071   0.49441   0.74516   0.00000  Uiso   1.00
Cu728  Cu    0.55929   0.50559   0.75483   0.00000  Uiso   1.00
H729   H     0.38613   0.37728   0.50244   0.00000  Uiso   1.00
H730   H     0.61387   0.62272   0.99756   0.00000  Uiso   1.00
H731   H     0.33521   0.39320   0.94845   0.00000  Uiso   1.00
H732   H     0.66479   0.60680   0.55155   0.00000  Uiso   1.00
H733   H     0.46830   0.40276   0.53990   0.00000  Uiso   1.00
H734   H     0.53169   0.59724   0.96010   0.00000  Uiso   1.00
H735   H     0.56889   0.34664   0.75567   0.00000  Uiso   1.00
H736   H     0.43111   0.65336   0.74433   0.00000  Uiso   1.00
H737   H     0.33454   0.53809   0.78447   0.00000  Uiso   1.00
H738   H     0.66546   0.46191   0.71553   0.00000  Uiso   1.00
N739   N     0.64839   0.51401   0.76212   0.00000  Uiso   1.00
N740   N     0.35161   0.48599   0.73788   0.00000  Uiso   1.00
O741   O     0.46148   0.57142   0.74686   0.00000  Uiso   1.00
O742   O     0.53852   0.42858   0.75314   0.00000  Uiso   1.00
O743   O     0.56163   0.58086   0.75502   0.00000  Uiso   1.00
O744   O     0.43837   0.41914   0.74497   0.00000  Uiso   1.00
O745   O     0.42185   0.49263   0.80854   0.00000  Uiso   1.00
O746   O     0.57815   0.50737   0.69145   0.00000  Uiso   1.00
O747   O     0.52199   0.50207   0.81671   0.00000  Uiso   1.00
O748   O     0.47801   0.49793   0.68329   0.00000  Uiso   1.00
C749   C     0.46940   0.44498   0.60924   0.00000  Uiso   1.00
N750   N     0.42504   0.41261   0.62430   0.00000  Uiso   1.00
C751   C     0.53060   0.55502   0.89076   0.00000  Uiso   1.00
N752   N     0.57497   0.58739   0.87570   0.00000  Uiso   1.00
C753   C     0.66146   0.57603   0.62857   0.00000  Uiso   1.00
N754   N     0.36301   0.59595   0.64925   0.00000  Uiso   1.00
C755   C     0.33854   0.42397   0.87143   0.00000  Uiso   1.00
N756   N     0.63699   0.40405   0.85075   0.00000  Uiso   1.00
C757   C     0.84841   0.60008   0.75130   0.00000  Uiso   1.00
C758   C     0.81825   0.39992   0.74870   0.00000  Uiso   1.00
C759   C     0.79568   0.43233   0.52040   0.00000  Uiso   1.00
C760   C     0.87098   0.56767   0.97960   0.00000  Uiso   1.00
C761   C     0.75057   0.41617   0.99673   0.00000  Uiso   1.00
C762   C     0.91609   0.58383   0.50327   0.00000  Uiso   1.00
C763   C     0.85689   0.65608   0.75196   0.00000  Uiso   1.00
C764   C     0.80978   0.34392   0.74804   0.00000  Uiso   1.00
C765   C     0.79434   0.49647   0.83320   0.00000  Uiso   1.00
C766   C     0.87233   0.50353   0.66680   0.00000  Uiso   1.00
C767   C     0.76987   0.48876   0.88093   0.00000  Uiso   1.00
C768   C     0.89679   0.51124   0.61907   0.00000  Uiso   1.00
C769   C     0.70662   0.42763   0.93790   0.00000  Uiso   1.00
C770   C     0.96005   0.57237   0.56210   0.00000  Uiso   1.00
C771   C     0.71533   0.44881   0.89736   0.00000  Uiso   1.00
C772   C     0.95134   0.55119   0.60264   0.00000  Uiso   1.00
C773   C     0.80823   0.51413   0.90908   0.00000  Uiso   1.00
C774   C     0.85844   0.48587   0.59092   0.00000  Uiso   1.00
C775   C     0.79678   0.49435   0.95190   0.00000  Uiso   1.00
C776   C     0.86989   0.50565   0.54810   0.00000  Uiso   1.00
C777   C     0.74992   0.44697   0.96304   0.00000  Uiso   1.00
C778   C     0.91674   0.55303   0.53696   0.00000  Uiso   1.00
C779   C     0.83390   0.51575   0.98238   0.00000  Uiso   1.00
C780   C     0.83276   0.48425   0.51762   0.00000  Uiso   1.00
Cu781  Cu    0.77404   0.49441   0.74516   0.00000  Uiso   1.00
Cu782  Cu    0.89263   0.50559   0.75483   0.00000  Uiso   1.00
H783   H     0.71946   0.37728   0.50244   0.00000  Uiso   1.00
H784   H     0.94720   0.62272   0.99756   0.00000  Uiso   1.00
H785   H     0.66854   0.39320   0.94845   0.00000  Uiso   1.00
H786   H     0.99812   0.60680   0.55155   0.00000  Uiso   1.00
H787   H     0.80164   0.40276   0.53990   0.00000  Uiso   1.00
H788   H     0.86503   0.59724   0.96010   0.00000  Uiso   1.00
H789   H     0.90223   0.34664   0.75567   0.00000  Uiso   1.00
H790   H     0.76444   0.65336   0.74433   0.00000  Uiso   1.00
H791   H     0.66787   0.53809   0.78447   0.00000  Uiso   1.00
H792   H     0.99879   0.46191   0.71553   0.00000  Uiso   1.00
N793   N     0.98173   0.51401   0.76212   0.00000  Uiso   1.00
N794   N     0.68494   0.48599   0.73788   0.00000  Uiso   1.00
O795   O     0.79482   0.57142   0.74686   0.00000  Uiso   1.00
O796   O     0.87185   0.42858   0.75314   0.00000  Uiso   1.00
O797   O     0.89496   0.58086   0.75502   0.00000  Uiso   1.00
O798   O     0.77171   0.41914   0.74497   0.00000  Uiso   1.00
O799   O     0.75518   0.49263   0.80854   0.00000  Uiso   1.00
O800   O     0.91149   0.50737   0.69145   0.00000  Uiso   1.00
O801   O     0.85532   0.50207   0.81671   0.00000  Uiso   1.00
O802   O     0.81134   0.49793   0.68329   0.00000  Uiso   1.00
C803   C     0.80274   0.44498   0.60924   0.00000  Uiso   1.00
N804   N     0.75837   0.41261   0.62430   0.00000  Uiso   1.00
C805   C     0.86393   0.55502   0.89076   0.00000  Uiso   1.00
N806   N     0.90830   0.58739   0.87570   0.00000  Uiso   1.00
C807   C     0.99479   0.57603   0.62857   0.00000  Uiso   1.00
N808   N     0.69634   0.59595   0.64925   0.00000  Uiso   1.00
C809   C     0.67187   0.42397   0.87143   0.00000  Uiso   1.00
N810   N     0.97033   0.40405   0.85075   0.00000  Uiso   1.00
C811   C     0.18174   0.93342   0.75130   0.00000  Uiso   1.00
C812   C     0.15159   0.73325   0.74870   0.00000  Uiso   1.00
C813   C     0.12901   0.76566   0.52040   0.00000  Uiso   1.00
C814   C     0.20432   0.90100   0.97960   0.00000  Uiso   1.00
C815   C     0.08390   0.74950   0.99673   0.00000  Uiso   1.00
C816   C     0.24943   0.91717   0.50327   0.00000  Uiso   1.00
C817   C     0.19022   0.98941   0.75196   0.00000  Uiso   1.00
C818   C     0.14311   0.67726   0.74804   0.00000  Uiso   1.00
C819   C     0.12767   0.82980   0.83320   0.00000  Uiso   1.00
C820   C     0.20566   0.83687   0.66680   0.00000  Uiso   1.00
C821   C     0.10321   0.82209   0.88093   0.00000  Uiso   1.00
C822   C     0.23013   0.84457   0.61907   0.00000  Uiso   1.00
C823   C     0.03995   0.76096   0.93790   0.00000  Uiso   1.00
C824   C     0.29338   0.90570   0.56210   0.00000  Uiso   1.00
C825   C     0.04866   0.78214   0.89736   0.00000  Uiso   1.00
C826   C     0.28467   0.88453   0.60264   0.00000  Uiso   1.00
C827   C     0.14156   0.84747   0.90908   0.00000  Uiso   1.00
C828   C     0.19177   0.81920   0.59092   0.00000  Uiso   1.00
C829   C     0.13011   0.82768   0.95190   0.00000  Uiso   1.00
C830   C     0.20322   0.83898   0.54810   0.00000  Uiso   1.00
C831   C     0.08326   0.78030   0.96304   0.00000  Uiso   1.00
C832   C     0.25007   0.88637   0.53696   0.00000  Uiso   1.00
C833   C     0.16723   0.84908   0.98238   0.00000  Uiso   1.00
C834   C     0.16610   0.81758   0.51762   0.00000  Uiso   1.00
Cu835  Cu    0.10737   0.82775   0.74516   0.00000  Uiso   1.00
Cu836  Cu    0.22596   0.83892   0.75483   0.00000  Uiso   1.00
H837   H     0.05279   0.71061   0.50244   0.00000  Uiso   1.00
H838   H     0.28054   0.95605   0.99756   0.00000  Uiso   1.00
H839   H     0.00188   0.72653   0.94845   0.00000  Uiso   1.00
H840   H     0.33145   0.94014   0.55155   0.00000  Uiso   1.00
H841   H     0.13497   0.73609   0.53990   0.00000  Uiso   1.00
H842   H     0.19836   0.93057   0.96010   0.00000  Uiso   1.00
H843   H     0.23556   0.67997   0.75567   0.00000  Uiso   1.00
H844   H     0.09777   0.98670   0.74433   0.00000  Uiso   1.00
H845   H     0.00121   0.87142   0.78447   0.00000  Uiso   1.00
H846   H     0.33212   0.79525   0.71553   0.00000  Uiso   1.00
N847   N     0.31506   0.84735   0.76212   0.00000  Uiso   1.00
N848   N     0.01827   0.81932   0.73788   0.00000  Uiso   1.00
O849   O     0.12815   0.90476   0.74686   0.00000  Uiso   1.00
O850   O     0.20518   0.76191   0.75314   0.00000  Uiso   1.00
O851   O     0.22829   0.91420   0.75502   0.00000  Uiso   1.00
O852   O     0.10504   0.75247   0.74497   0.00000  Uiso   1.00
O853   O     0.08851   0.82597   0.80854   0.00000  Uiso   1.00
O854   O     0.24482   0.84070   0.69145   0.00000  Uiso   1.00
O855   O     0.18866   0.83540   0.81671   0.00000  Uiso   1.00
O856   O     0.14468   0.83126   0.68329   0.00000  Uiso   1.00
C857   C     0.13607   0.77831   0.60924   0.00000  Uiso   1.00
N858   N     0.09170   0.74594   0.62430   0.00000  Uiso   1.00
C859   C     0.19726   0.88835   0.89076   0.00000  Uiso   1.00
N860   N     0.24163   0.92072   0.87570   0.00000  Uiso   1.00
C861   C     0.32813   0.90936   0.62857   0.00000  Uiso   1.00
N862   N     0.02967   0.92929   0.64925   0.00000  Uiso   1.00
C863   C     0.00521   0.75731   0.87143   0.00000  Uiso   1.00
N864   N     0.30366   0.73738   0.85075   0.00000  Uiso   1.00
C865   C     0.51508   0.93342   0.75130   0.00000  Uiso   1.00
C866   C     0.48492   0.73325   0.74870   0.00000  Uiso   1.00
C867   C     0.46235   0.76566   0.52040   0.00000  Uiso   1.00
C868   C     0.53765   0.90100   0.97960   0.00000  Uiso   1.00
C869   C     0.41724   0.74950   0.99673   0.00000  Uiso   1.00
C870   C     0.58276   0.91717   0.50327   0.00000  Uiso   1.00
C871   C     0.52355   0.98941   0.75196   0.00000  Uiso   1.00
C872   C     0.47645   0.67726   0.74804   0.00000  Uiso   1.00
C873   C     0.46101   0.82980   0.83320   0.00000  Uiso   1.00
C874   C     0.53899   0.83687   0.66680   0.00000  Uiso   1.00
C875   C     0.43654   0.82209   0.88093   0.00000  Uiso   1.00
C876   C     0.56346   0.84457   0.61907   0.00000  Uiso   1.00
C877   C     0.37328   0.76096   0.93790   0.00000  Uiso   1.00
C878   C     0.62672   0.90570   0.56210   0.00000  Uiso   1.00
C879   C     0.38200   0.78214   0.89736   0.00000  Uiso   1.00
C880   C     0.61800   0.88453   0.60264   0.00000  Uiso   1.00
C881   C     0.47490   0.84747   0.90908   0.00000  Uiso   1.00
C882   C     0.52510   0.81920   0.59092   0.00000  Uiso   1.00
C883   C     0.46345   0.82768   0.95190   0.00000  Uiso   1.00
C884   C     0.53655   0.83898   0.54810   0.00000  Uiso   1.00
C885   C     0.41659   0.78030   0.96304   0.00000  Uiso   1.00
C886   C     0.58341   0.88637   0.53696   0.00000  Uiso   1.00
C887   C     0.50057   0.84908   0.98238   0.00000  Uiso   1.00
C888   C     0.49943   0.81758   0.51762   0.00000  Uiso   1.00
Cu889  Cu    0.44071   0.82775   0.74516   0.00000  Uiso   1.00
Cu890  Cu    0.55929   0.83892   0.75483   0.00000  Uiso   1.00
H891   H     0.38613   0.71061   0.50244   0.00000  Uiso   1.00
H892   H     0.61387   0.95605   0.99756   0.00000  Uiso   1.00
H893   H     0.33521   0.72653   0.94845   0.00000  Uiso   1.00
H894   H     0.66479   0.94014   0.55155   0.00000  Uiso   1.00
H895   H     0.46830   0.73609   0.53990   0.00000  Uiso   1.00
H896   H     0.53169   0.93057   0.96010   0.00000  Uiso   1.00
H897   H     0.56889   0.67997   0.75567   0.00000  Uiso   1.00
H898   H     0.43111   0.98670   0.74433   0.00000  Uiso   1.00
H899   H     0.33454   0.87142   0.78447   0.00000  Uiso   1.00
H900   H     0.66546   0.79525   0.71553   0.00000  Uiso   1.00
N901   N     0.64839   0.84735   0.76212   0.00000  Uiso   1.00
N902   N     0.35161   0.81932   0.73788   0.00000  Uiso   1.00
O903   O     0.46148   0.90476   0.74686   0.00000  Uiso   1.00
O904   O     0.53852   0.76191   0.75314   0.00000  Uiso   1.00
O905   O     0.56163   0.91420   0.75502   0.00000  Uiso   1.00
O906   O     0.43837   0.75247   0.74497   0.00000  Uiso   1.00
O907   O     0.42185   0.82597   0.80854   0.00000  Uiso   1.00
O908   O     0.57815   0.84070   0.69145   0.00000  Uiso   1.00
O909   O     0.52199   0.83540   0.81671   0.00000  Uiso   1.00
O910   O     0.47801   0.83126   0.68329   0.00000  Uiso   1.00
C911   C     0.46940   0.77831   0.60924   0.00000  Uiso   1.00
N912   N     0.42504   0.74594   0.62430   0.00000  Uiso   1.00
C913   C     0.53060   0.88835   0.89076   0.00000  Uiso   1.00
N914   N     0.57497   0.92072   0.87570   0.00000  Uiso   1.00
C915   C     0.66146   0.90936   0.62857   0.00000  Uiso   1.00
N916   N     0.36301   0.92929   0.64925   0.00000  Uiso   1.00
C917   C     0.33854   0.75731   0.87143   0.00000  Uiso   1.00
N918   N     0.63699   0.73738   0.85075   0.00000  Uiso   1.00
C919   C     0.84841   0.93342   0.75130   0.00000  Uiso   1.00
C920   C     0.81825   0.73325   0.74870   0.00000  Uiso   1.00
C921   C     0.79568   0.76566   0.52040   0.00000  Uiso   1.00
C922   C     0.87098   0.90100   0.97960   0.00000  Uiso   1.00
C923   C     0.75057   0.74950   0.99673   0.00000  Uiso   1.00
C924   C     0.91609   0.91717   0.50327   0.00000  Uiso   1.00
C925   C     0.85689   0.98941   0.75196   0.00000  Uiso   1.00
C926   C     0.80978   0.67726   0.74804   0.00000  Uiso   1.00
C927   C     0.79434   0.82980   0.83320   0.00000  Uiso   1.00
C928   C     0.87233   0.83687   0.66680   0.00000  Uiso   1.00
C929   C     0.76987   0.82209   0.88093   0.00000  Uiso   1.00
C930   C     0.89679   0.84457   0.61907   0.00000  Uiso   1.00
C931   C     0.70662   0.76096   0.93790   0.00000  Uiso   1.00
C932   C     0.96005   0.90570   0.56210   0.00000  Uiso   1.00
C933   C     0.71533   0.78214   0.89736   0.00000  Uiso   1.00
C934   C     0.95134   0.88453   0.60264   0.00000  Uiso   1.00
C935   C     0.80823   0.84747   0.90908   0.00000  Uiso   1.00
C936   C     0.85844   0.81920   0.59092   0.00000  Uiso   1.00
C937   C     0.79678   0.82768   0.95190   0.00000  Uiso   1.00
C938   C     0.86989   0.83898   0.54810   0.00000  Uiso   1.00
C939   C     0.74992   0.78030   0.96304   0.00000  Uiso   1.00
C940   C     0.91674   0.88637   0.53696   0.00000  Uiso   1.00
C941   C     0.83390   0.84908   0.98238   0.00000  Uiso   1.00
C942   C     0.83276   0.81758   0.51762   0.00000  Uiso   1.00
Cu943  Cu    0.77404   0.82775   0.74516   0.00000  Uiso   1.00
Cu944  Cu    0.89263   0.83892   0.75483   0.00000  Uiso   1.00
H945   H     0.71946   0.71061   0.50244   0.00000  Uiso   1.00
H946   H     0.94720   0.95605   0.99756   0.00000  Uiso   1.00
H947   H     0.66854   0.72653   0.94845   0.00000  Uiso   1.00
H948   H     0.99812   0.94014   0.55155   0.00000  Uiso   1.00
H949   H     0.80164   0.73609   0.53990   0.00000  Uiso   1.00
H950   H     0.86503   0.93057   0.96010   0.00000  Uiso   1.00
H951   H     0.90223   0.67997   0.75567   0.00000  Uiso   1.00
H952   H     0.76444   0.98670   0.74433   0.00000  Uiso   1.00
H953   H     0.66787   0.87142   0.78447   0.00000  Uiso   1.00
H954   H     0.99879   0.79525   0.71553   0.00000  Uiso   1.00
N955   N     0.98173   0.84735   0.76212   0.00000  Uiso   1.00
N956   N     0.68494   0.81932   0.73788   0.00000  Uiso   1.00
O957   O     0.79482   0.90476   0.74686   0.00000  Uiso   1.00
O958   O     0.87185   0.76191   0.75314   0.00000  Uiso   1.00
O959   O     0.89496   0.91420   0.75502   0.00000  Uiso   1.00
O960   O     0.77171   0.75247   0.74497   0.00000  Uiso   1.00
O961   O     0.75518   0.82597   0.80854   0.00000  Uiso   1.00
O962   O     0.91149   0.84070   0.69145   0.00000  Uiso   1.00
O963   O     0.85532   0.83540   0.81671   0.00000  Uiso   1.00
O964   O     0.81134   0.83126   0.68329   0.00000  Uiso   1.00
C965   C     0.80274   0.77831   0.60924   0.00000  Uiso   1.00
N966   N     0.75837   0.74594   0.62430   0.00000  Uiso   1.00
C967   C     0.86393   0.88835   0.89076   0.00000  Uiso   1.00
N968   N     0.90830   0.92072   0.87570   0.00000  Uiso   1.00
C969   C     0.99479   0.90936   0.62857   0.00000  Uiso   1.00
N970   N     0.69634   0.92929   0.64925   0.00000  Uiso   1.00
C971   C     0.67187   0.75731   0.87143   0.00000  Uiso   1.00
N972   N     0.97033   0.73738   0.85075   0.00000  Uiso   1.00
loop_
_geom_bond_atom_site_label_1
_geom_bond_atom_site_label_2
_geom_bond_distance
_geom_bond_site_symmetry_2
_ccdc_geom_bond_type
C1     O41     1.285   .     A
C1     O39     1.290   .     A
C1     C7      1.426   .     S
C2     O42     1.285   .     A
C2     O40     1.290   .     A
C2     C8      1.426   .     S
C3     H31     1.076   .     S
C3     C24     1.408   .     A
C3     C491    1.383   1_554 S
C4     H32     1.076   .     S
C4     C23     1.408   .     A
C4     C492    1.383   .     S
C5     C21     1.391   .     A
C5     C489    1.383   .     S
C5     H513    1.085   .     S
C6     C22     1.391   .     A
C6     C490    1.383   1_554 S
C6     H514    1.085   1_554 S
C7     C170    1.328   .     S
C7     H195    1.088   .     S
C8     C331    1.328   1_545 S
C8     H358    1.088   1_545 S
C9     O45     1.296   .     A
C9     C11     1.483   .     S
C9     O43     1.302   .     A
C10    O46     1.296   .     A
C10    C12     1.483   .     S
C10    O44     1.302   .     A
C11    C15     1.412   .     A
C11    C17     1.423   .     A
C12    C16     1.412   .     A
C12    C18     1.423   .     A
C13    C21     1.396   .     A
C13    C15     1.389   .     A
C13    H29     1.086   .     S
C14    H30     1.086   .     S
C14    C22     1.396   .     A
C14    C16     1.389   .     A
C15    C53     1.446   .     S
C16    C51     1.446   .     S
C17    C19     1.431   .     A
C17    C49     1.454   .     S
C18    C47     1.454   .     S
C18    C20     1.431   .     A
C19    C23     1.438   .     A
C19    C21     1.419   .     A
C20    C24     1.438   .     A
C20    C22     1.419   .     A
C23    C510    1.430   .     S
C24    C509    1.430   1_554 S
Cu25   O42     1.949   .     S
Cu25   N38     2.018   .     S
Cu25   O43     1.950   .     S
Cu25   O39     1.952   .     S
Cu25   Cu26    2.685   .     S
Cu25   O46     1.923   .     S
Cu26   N37     2.018   .     S
Cu26   O40     1.952   .     S
Cu26   O44     1.950   .     S
Cu26   O45     1.923   .     S
Cu26   O41     1.949   .     S
H27    C491    1.085   1_554 S
H28    C492    1.085   .     S
H33    C331    1.088   1_545 S
H34    C170    1.088   .     S
H35    N145    1.029   1_455 S
H36    N92     1.029   .     S
N37    H89     1.029   .     S
N37    N92     1.283   .     S
N38    H144    1.029   1_455 S
N38    N145    1.283   1_455 S
C47    N48     1.158   .     T
C49    N50     1.158   .     T
C51    N106    1.158   .     S
N52    C159    1.158   1_455 S
C53    N162    1.158   1_455 S
N54    C107    1.158   .     S
C55    O95     1.285   .     A
C55    O93     1.290   .     A
C55    C61     1.426   .     S
C56    O96     1.285   .     A
C56    O94     1.290   .     A
C56    C62     1.426   .     S
C57    H85     1.076   .     S
C57    C78     1.408   .     A
C57    C545    1.383   1_554 S
C58    H86     1.076   .     S
C58    C77     1.408   .     A
C58    C546    1.383   .     S
C59    C75     1.391   .     A
C59    C543    1.383   .     S
C59    H567    1.085   .     S
C60    C76     1.391   .     A
C60    C544    1.383   1_554 S
C60    H568    1.085   1_554 S
C61    C224    1.328   .     S
C61    H249    1.088   .     S
C62    C385    1.328   1_545 S
C62    H412    1.088   1_545 S
C63    O99     1.296   .     A
C63    C65     1.483   .     S
C63    O97     1.302   .     A
C64    O100    1.296   .     A
C64    C66     1.483   .     S
C64    O98     1.302   .     A
C65    C69     1.412   .     A
C65    C71     1.423   .     A
C66    C70     1.412   .     A
C66    C72     1.423   .     A
C67    C75     1.396   .     A
C67    C69     1.389   .     A
C67    H83     1.086   .     S
C68    H84     1.086   .     S
C68    C76     1.396   .     A
C68    C70     1.389   .     A
C69    C107    1.446   .     S
C70    C105    1.446   .     S
C71    C73     1.431   .     A
C71    C103    1.454   .     S
C72    C101    1.454   .     S
C72    C74     1.431   .     A
C73    C77     1.438   .     A
C73    C75     1.419   .     A
C74    C78     1.438   .     A
C74    C76     1.419   .     A
C77    C564    1.430   .     S
C78    C563    1.430   1_554 S
Cu79   O96     1.949   .     S
Cu79   N92     2.018   .     S
Cu79   O97     1.950   .     S
Cu79   O93     1.952   .     S
Cu79   Cu80    2.685   .     S
Cu79   O100    1.923   .     S
Cu80   N91     2.018   .     S
Cu80   O94     1.952   .     S
Cu80   O98     1.950   .     S
Cu80   O99     1.923   .     S
Cu80   O95     1.949   .     S
H81    C545    1.085   1_554 S
H82    C546    1.085   .     S
H87    C385    1.088   1_545 S
H88    C224    1.088   .     S
H90    N146    1.029   .     S
N91    H143    1.029   .     S
N91    N146    1.283   .     S
C101   N102    1.158   .     T
C103   N104    1.158   .     T
C105   N160    1.158   .     S
N108   C161    1.158   .     S
C109   O149    1.285   .     A
C109   O147    1.290   .     A
C109   C115    1.426   .     S
C110   O150    1.285   .     A
C110   O148    1.290   .     A
C110   C116    1.426   .     S
C111   H139    1.076   .     S
C111   C132    1.408   .     A
C111   C599    1.383   1_554 S
C112   H140    1.076   .     S
C112   C131    1.408   .     A
C112   C600    1.383   .     S
C113   C129    1.391   .     A
C113   C597    1.383   .     S
C113   H621    1.085   .     S
C114   C130    1.391   .     A
C114   C598    1.383   1_554 S
C114   H622    1.085   1_554 S
C115   C278    1.328   .     S
C115   H303    1.088   .     S
C116   C439    1.328   1_545 S
C116   H466    1.088   1_545 S
C117   O153    1.296   .     A
C117   C119    1.483   .     S
C117   O151    1.302   .     A
C118   O154    1.296   .     A
C118   C120    1.483   .     S
C118   O152    1.302   .     A
C119   C123    1.412   .     A
C119   C125    1.423   .     A
C120   C124    1.412   .     A
C120   C126    1.423   .     A
C121   C129    1.396   .     A
C121   C123    1.389   .     A
C121   H137    1.086   .     S
C122   H138    1.086   .     S
C122   C130    1.396   .     A
C122   C124    1.389   .     A
C123   C161    1.446   .     S
C124   C159    1.446   .     S
C125   C127    1.431   .     A
C125   C157    1.454   .     S
C126   C155    1.454   .     S
C126   C128    1.431   .     A
C127   C131    1.438   .     A
C127   C129    1.419   .     A
C128   C132    1.438   .     A
C128   C130    1.419   .     A
C131   C618    1.430   .     S
C132   C617    1.430   1_554 S
Cu133  O150    1.949   .     S
Cu133  N146    2.018   .     S
Cu133  O151    1.950   .     S
Cu133  O147    1.952   .     S
Cu133  Cu134   2.685   .     S
Cu133  O154    1.923   .     S
Cu134  N145    2.018   .     S
Cu134  O148    1.952   .     S
Cu134  O152    1.950   .     S
Cu134  O153    1.923   .     S
Cu134  O149    1.949   .     S
H135   C599    1.085   1_554 S
H136   C600    1.085   .     S
H141   C439    1.088   1_545 S
H142   C278    1.088   .     S
H144   N38     1.029   1_655 S
N145   H35     1.029   1_655 S
N145   N38     1.283   1_655 S
C155   N156    1.158   .     T
C157   N158    1.158   .     T
C159   N52     1.158   1_655 S
N162   C53     1.158   1_655 S
C163   O203    1.285   .     A
C163   O201    1.290   .     A
C163   C169    1.426   .     S
C164   O204    1.285   .     A
C164   O202    1.290   .     A
C164   C170    1.426   .     S
C165   H193    1.076   .     S
C165   C186    1.408   .     A
C165   C653    1.383   1_554 S
C166   H194    1.076   .     S
C166   C185    1.408   .     A
C166   C654    1.383   .     S
C167   C183    1.391   .     A
C167   C651    1.383   .     S
C167   H675    1.085   .     S
C168   C184    1.391   .     A
C168   C652    1.383   1_554 S
C168   H676    1.085   1_554 S
C169   C332    1.328   .     S
C169   H357    1.088   .     S
C171   O207    1.296   .     A
C171   C173    1.483   .     S
C171   O205    1.302   .     A
C172   O208    1.296   .     A
C172   C174    1.483   .     S
C172   O206    1.302   .     A
C173   C177    1.412   .     A
C173   C179    1.423   .     A
C174   C178    1.412   .     A
C174   C180    1.423   .     A
C175   C183    1.396   .     A
C175   C177    1.389   .     A
C175   H191    1.086   .     S
C176   H192    1.086   .     S
C176   C184    1.396   .     A
C176   C178    1.389   .     A
C177   C215    1.446   .     S
C178   C213    1.446   .     S
C179   C181    1.431   .     A
C179   C211    1.454   .     S
C180   C209    1.454   .     S
C180   C182    1.431   .     A
C181   C185    1.438   .     A
C181   C183    1.419   .     A
C182   C186    1.438   .     A
C182   C184    1.419   .     A
C185   C672    1.430   .     S
C186   C671    1.430   1_554 S
Cu187  O204    1.949   .     S
Cu187  N200    2.018   .     S
Cu187  O205    1.950   .     S
Cu187  O201    1.952   .     S
Cu187  Cu188   2.685   .     S
Cu187  O208    1.923   .     S
Cu188  N199    2.018   .     S
Cu188  O202    1.952   .     S
Cu188  O206    1.950   .     S
Cu188  O207    1.923   .     S
Cu188  O203    1.949   .     S
H189   C653    1.085   1_554 S
H190   C654    1.085   .     S
H196   C332    1.088   .     S
H197   N307    1.029   1_455 S
H198   N254    1.029   .     S
N199   H251    1.029   .     S
N199   N254    1.283   .     S
N200   H306    1.029   1_455 S
N200   N307    1.283   1_455 S
C209   N210    1.158   .     T
C211   N212    1.158   .     T
C213   N268    1.158   .     S
N214   C321    1.158   1_455 S
C215   N324    1.158   1_455 S
N216   C269    1.158   .     S
C217   O257    1.285   .     A
C217   O255    1.290   .     A
C217   C223    1.426   .     S
C218   O258    1.285   .     A
C218   O256    1.290   .     A
C218   C224    1.426   .     S
C219   H247    1.076   .     S
C219   C240    1.408   .     A
C219   C707    1.383   1_554 S
C220   H248    1.076   .     S
C220   C239    1.408   .     A
C220   C708    1.383   .     S
C221   C237    1.391   .     A
C221   C705    1.383   .     S
C221   H729    1.085   .     S
C222   C238    1.391   .     A
C222   C706    1.383   1_554 S
C222   H730    1.085   1_554 S
C223   C386    1.328   .     S
C223   H411    1.088   .     S
C225   O261    1.296   .     A
C225   C227    1.483   .     S
C225   O259    1.302   .     A
C226   O262    1.296   .     A
C226   C228    1.483   .     S
C226   O260    1.302   .     A
C227   C231    1.412   .     A
C227   C233    1.423   .     A
C228   C232    1.412   .     A
C228   C234    1.423   .     A
C229   C237    1.396   .     A
C229   C231    1.389   .     A
C229   H245    1.086   .     S
C230   H246    1.086   .     S
C230   C238    1.396   .     A
C230   C232    1.389   .     A
C231   C269    1.446   .     S
C232   C267    1.446   .     S
C233   C235    1.431   .     A
C233   C265    1.454   .     S
C234   C263    1.454   .     S
C234   C236    1.431   .     A
C235   C239    1.438   .     A
C235   C237    1.419   .     A
C236   C240    1.438   .     A
C236   C238    1.419   .     A
C239   C726    1.430   .     S
C240   C725    1.430   1_554 S
Cu241  O258    1.949   .     S
Cu241  N254    2.018   .     S
Cu241  O259    1.950   .     S
Cu241  O255    1.952   .     S
Cu241  Cu242   2.685   .     S
Cu241  O262    1.923   .     S
Cu242  N253    2.018   .     S
Cu242  O256    1.952   .     S
Cu242  O260    1.950   .     S
Cu242  O261    1.923   .     S
Cu242  O257    1.949   .     S
H243   C707    1.085   1_554 S
H244   C708    1.085   .     S
H250   C386    1.088   .     S
H252   N308    1.029   .     S
N253   H305    1.029   .     S
N253   N308    1.283   .     S
C263   N264    1.158   .     T
C265   N266    1.158   .     T
C267   N322    1.158   .     S
N270   C323    1.158   .     S
C271   O311    1.285   .     A
C271   O309    1.290   .     A
C271   C277    1.426   .     S
C272   O312    1.285   .     A
C272   O310    1.290   .     A
C272   C278    1.426   .     S
C273   H301    1.076   .     S
C273   C294    1.408   .     A
C273   C761    1.383   1_554 S
C274   H302    1.076   .     S
C274   C293    1.408   .     A
C274   C762    1.383   .     S
C275   C291    1.391   .     A
C275   C759    1.383   .     S
C275   H783    1.085   .     S
C276   C292    1.391   .     A
C276   C760    1.383   1_554 S
C276   H784    1.085   1_554 S
C277   C440    1.328   .     S
C277   H465    1.088   .     S
C279   O315    1.296   .     A
C279   C281    1.483   .     S
C279   O313    1.302   .     A
C280   O316    1.296   .     A
C280   C282    1.483   .     S
C280   O314    1.302   .     A
C281   C285    1.412   .     A
C281   C287    1.423   .     A
C282   C286    1.412   .     A
C282   C288    1.423   .     A
C283   C291    1.396   .     A
C283   C285    1.389   .     A
C283   H299    1.086   .     S
C284   H300    1.086   .     S
C284   C292    1.396   .     A
C284   C286    1.389   .     A
C285   C323    1.446   .     S
C286   C321    1.446   .     S
C287   C289    1.431   .     A
C287   C319    1.454   .     S
C288   C317    1.454   .     S
C288   C290    1.431   .     A
C289   C293    1.438   .     A
C289   C291    1.419   .     A
C290   C294    1.438   .     A
C290   C292    1.419   .     A
C293   C780    1.430   .     S
C294   C779    1.430   1_554 S
Cu295  O312    1.949   .     S
Cu295  N308    2.018   .     S
Cu295  O313    1.950   .     S
Cu295  O309    1.952   .     S
Cu295  Cu296   2.685   .     S
Cu295  O316    1.923   .     S
Cu296  N307    2.018   .     S
Cu296  O310    1.952   .     S
Cu296  O314    1.950   .     S
Cu296  O315    1.923   .     S
Cu296  O311    1.949   .     S
H297   C761    1.085   1_554 S
H298   C762    1.085   .     S
H304   C440    1.088   .     S
H306   N200    1.029   1_655 S
N307   H197    1.029   1_655 S
N307   N200    1.283   1_655 S
C317   N318    1.158   .     T
C319   N320    1.158   .     T
C321   N214    1.158   1_655 S
N324   C215    1.158   1_655 S
C325   O365    1.285   .     A
C325   O363    1.290   .     A
C325   C331    1.426   .     S
C326   O366    1.285   .     A
C326   O364    1.290   .     A
C326   C332    1.426   .     S
C327   H355    1.076   .     S
C327   C348    1.408   .     A
C327   C815    1.383   1_554 S
C328   H356    1.076   .     S
C328   C347    1.408   .     A
C328   C816    1.383   .     S
C329   C345    1.391   .     A
C329   C813    1.383   .     S
C329   H837    1.085   .     S
C330   C346    1.391   .     A
C330   C814    1.383   1_554 S
C330   H838    1.085   1_554 S
C331   C8      1.328   1_565 S
C331   H33     1.088   1_565 S
C333   O369    1.296   .     A
C333   C335    1.483   .     S
C333   O367    1.302   .     A
C334   O370    1.296   .     A
C334   C336    1.483   .     S
C334   O368    1.302   .     A
C335   C339    1.412   .     A
C335   C341    1.423   .     A
C336   C340    1.412   .     A
C336   C342    1.423   .     A
C337   C345    1.396   .     A
C337   C339    1.389   .     A
C337   H353    1.086   .     S
C338   H354    1.086   .     S
C338   C346    1.396   .     A
C338   C340    1.389   .     A
C339   C377    1.446   .     S
C340   C375    1.446   .     S
C341   C343    1.431   .     A
C341   C373    1.454   .     S
C342   C371    1.454   .     S
C342   C344    1.431   .     A
C343   C347    1.438   .     A
C343   C345    1.419   .     A
C344   C348    1.438   .     A
C344   C346    1.419   .     A
C347   C834    1.430   .     S
C348   C833    1.430   1_554 S
Cu349  O366    1.949   .     S
Cu349  N362    2.018   .     S
Cu349  O367    1.950   .     S
Cu349  O363    1.952   .     S
Cu349  Cu350   2.685   .     S
Cu349  O370    1.923   .     S
Cu350  N361    2.018   .     S
Cu350  O364    1.952   .     S
Cu350  O368    1.950   .     S
Cu350  O369    1.923   .     S
Cu350  O365    1.949   .     S
H351   C815    1.085   1_554 S
H352   C816    1.085   .     S
H358   C8      1.088   1_565 S
H359   N469    1.029   1_455 S
H360   N416    1.029   .     S
N361   H413    1.029   .     S
N361   N416    1.283   .     S
N362   H468    1.029   1_455 S
N362   N469    1.283   1_455 S
C371   N372    1.158   .     T
C373   N374    1.158   .     T
C375   N430    1.158   .     S
N376   C483    1.158   1_455 S
C377   N486    1.158   1_455 S
N378   C431    1.158   .     S
C379   O419    1.285   .     A
C379   O417    1.290   .     A
C379   C385    1.426   .     S
C380   O420    1.285   .     A
C380   O418    1.290   .     A
C380   C386    1.426   .     S
C381   H409    1.076   .     S
C381   C402    1.408   .     A
C381   C869    1.383   1_554 S
C382   H410    1.076   .     S
C382   C401    1.408   .     A
C382   C870    1.383   .     S
C383   C399    1.391   .     A
C383   C867    1.383   .     S
C383   H891    1.085   .     S
C384   C400    1.391   .     A
C384   C868    1.383   1_554 S
C384   H892    1.085   1_554 S
C385   C62     1.328   1_565 S
C385   H87     1.088   1_565 S
C387   O423    1.296   .     A
C387   C389    1.483   .     S
C387   O421    1.302   .     A
C388   O424    1.296   .     A
C388   C390    1.483   .     S
C388   O422    1.302   .     A
C389   C393    1.412   .     A
C389   C395    1.423   .     A
C390   C394    1.412   .     A
C390   C396    1.423   .     A
C391   C399    1.396   .     A
C391   C393    1.389   .     A
C391   H407    1.086   .     S
C392   H408    1.086   .     S
C392   C400    1.396   .     A
C392   C394    1.389   .     A
C393   C431    1.446   .     S
C394   C429    1.446   .     S
C395   C397    1.431   .     A
C395   C427    1.454   .     S
C396   C425    1.454   .     S
C396   C398    1.431   .     A
C397   C401    1.438   .     A
C397   C399    1.419   .     A
C398   C402    1.438   .     A
C398   C400    1.419   .     A
C401   C888    1.430   .     S
C402   C887    1.430   1_554 S
Cu403  O420    1.949   .     S
Cu403  N416    2.018   .     S
Cu403  O421    1.950   .     S
Cu403  O417    1.952   .     S
Cu403  Cu404   2.685   .     S
Cu403  O424    1.923   .     S
Cu404  N415    2.018   .     S
Cu404  O418    1.952   .     S
Cu404  O422    1.950   .     S
Cu404  O423    1.923   .     S
Cu404  O419    1.949   .     S
H405   C869    1.085   1_554 S
H406   C870    1.085   .     S
H412   C62     1.088   1_565 S
H414   N470    1.029   .     S
N415   H467    1.029   .     S
N415   N470    1.283   .     S
C425   N426    1.158   .     T
C427   N428    1.158   .     T
C429   N484    1.158   .     S
N432   C485    1.158   .     S
C433   O473    1.285   .     A
C433   O471    1.290   .     A
C433   C439    1.426   .     S
C434   O474    1.285   .     A
C434   O472    1.290   .     A
C434   C440    1.426   .     S
C435   H463    1.076   .     S
C435   C456    1.408   .     A
C435   C923    1.383   1_554 S
C436   H464    1.076   .     S
C436   C455    1.408   .     A
C436   C924    1.383   .     S
C437   C453    1.391   .     A
C437   C921    1.383   .     S
C437   H945    1.085   .     S
C438   C454    1.391   .     A
C438   C922    1.383   1_554 S
C438   H946    1.085   1_554 S
C439   C116    1.328   1_565 S
C439   H141    1.088   1_565 S
C441   O477    1.296   .     A
C441   C443    1.483   .     S
C441   O475    1.302   .     A
C442   O478    1.296   .     A
C442   C444    1.483   .     S
C442   O476    1.302   .     A
C443   C447    1.412   .     A
C443   C449    1.423   .     A
C444   C448    1.412   .     A
C444   C450    1.423   .     A
C445   C453    1.396   .     A
C445   C447    1.389   .     A
C445   H461    1.086   .     S
C446   H462    1.086   .     S
C446   C454    1.396   .     A
C446   C448    1.389   .     A
C447   C485    1.446   .     S
C448   C483    1.446   .     S
C449   C451    1.431   .     A
C449   C481    1.454   .     S
C450   C479    1.454   .     S
C450   C452    1.431   .     A
C451   C455    1.438   .     A
C451   C453    1.419   .     A
C452   C456    1.438   .     A
C452   C454    1.419   .     A
C455   C942    1.430   .     S
C456   C941    1.430   1_554 S
Cu457  O474    1.949   .     S
Cu457  N470    2.018   .     S
Cu457  O475    1.950   .     S
Cu457  O471    1.952   .     S
Cu457  Cu458   2.685   .     S
Cu457  O478    1.923   .     S
Cu458  N469    2.018   .     S
Cu458  O472    1.952   .     S
Cu458  O476    1.950   .     S
Cu458  O477    1.923   .     S
Cu458  O473    1.949   .     S
H459   C923    1.085   1_554 S
H460   C924    1.085   .     S
H466   C116    1.088   1_565 S
H468   N362    1.029   1_655 S
N469   H359    1.029   1_655 S
N469   N362    1.283   1_655 S
C479   N480    1.158   .     T
C481   N482    1.158   .     T
C483   N376    1.158   1_655 S
N486   C377    1.158   1_655 S
C487   O527    1.285   .     A
C487   O525    1.290   .     A
C487   C493    1.426   .     S
C488   O528    1.285   .     A
C488   O526    1.290   .     A
C488   C494    1.426   .     S
C489   H517    1.076   .     S
C489   C510    1.408   .     A
C490   H518    1.076   .     S
C490   C509    1.408   .     A
C490   C6      1.383   1_556 S
C491   C507    1.391   .     A
C491   C3      1.383   1_556 S
C491   H27     1.085   1_556 S
C492   C508    1.391   .     A
C493   C656    1.328   .     S
C493   H681    1.088   .     S
C494   C817    1.328   1_545 S
C494   H844    1.088   1_545 S
C495   O531    1.296   .     A
C495   C497    1.483   .     S
C495   O529    1.302   .     A
C496   O532    1.296   .     A
C496   C498    1.483   .     S
C496   O530    1.302   .     A
C497   C501    1.412   .     A
C497   C503    1.423   .     A
C498   C502    1.412   .     A
C498   C504    1.423   .     A
C499   C507    1.396   .     A
C499   C501    1.389   .     A
C499   H515    1.086   .     S
C500   H516    1.086   .     S
C500   C508    1.396   .     A
C500   C502    1.389   .     A
C501   C539    1.446   .     S
C502   C537    1.446   .     S
C503   C505    1.431   .     A
C503   C535    1.454   .     S
C504   C533    1.454   .     S
C504   C506    1.431   .     A
C505   C509    1.438   .     A
C505   C507    1.419   .     A
C506   C510    1.438   .     A
C506   C508    1.419   .     A
C509   C24     1.430   1_556 S
Cu511  O528    1.949   .     S
Cu511  N524    2.018   .     S
Cu511  O529    1.950   .     S
Cu511  O525    1.952   .     S
Cu511  Cu512   2.685   .     S
Cu511  O532    1.923   .     S
Cu512  N523    2.018   .     S
Cu512  O526    1.952   .     S
Cu512  O530    1.950   .     S
Cu512  O531    1.923   .     S
Cu512  O527    1.949   .     S
H514   C6      1.085   1_556 S
H519   C817    1.088   1_545 S
H520   C656    1.088   .     S
H521   N631    1.029   1_455 S
H522   N578    1.029   .     S
N523   H575    1.029   .     S
N523   N578    1.283   .     S
N524   H630    1.029   1_455 S
N524   N631    1.283   1_455 S
C533   N534    1.158   .     T
C535   N536    1.158   .     T
C537   N592    1.158   .     S
N538   C645    1.158   1_455 S
C539   N648    1.158   1_455 S
N540   C593    1.158   .     S
C541   O581    1.285   .     A
C541   O579    1.290   .     A
C541   C547    1.426   .     S
C542   O582    1.285   .     A
C542   O580    1.290   .     A
C542   C548    1.426   .     S
C543   H571    1.076   .     S
C543   C564    1.408   .     A
C544   H572    1.076   .     S
C544   C563    1.408   .     A
C544   C60     1.383   1_556 S
C545   C561    1.391   .     A
C545   C57     1.383   1_556 S
C545   H81     1.085   1_556 S
C546   C562    1.391   .     A
C547   C710    1.328   .     S
C547   H735    1.088   .     S
C548   C871    1.328   1_545 S
C548   H898    1.088   1_545 S
C549   O585    1.296   .     A
C549   C551    1.483   .     S
C549   O583    1.302   .     A
C550   O586    1.296   .     A
C550   C552    1.483   .     S
C550   O584    1.302   .     A
C551   C555    1.412   .     A
C551   C557    1.423   .     A
C552   C556    1.412   .     A
C552   C558    1.423   .     A
C553   C561    1.396   .     A
C553   C555    1.389   .     A
C553   H569    1.086   .     S
C554   H570    1.086   .     S
C554   C562    1.396   .     A
C554   C556    1.389   .     A
C555   C593    1.446   .     S
C556   C591    1.446   .     S
C557   C559    1.431   .     A
C557   C589    1.454   .     S
C558   C587    1.454   .     S
C558   C560    1.431   .     A
C559   C563    1.438   .     A
C559   C561    1.419   .     A
C560   C564    1.438   .     A
C560   C562    1.419   .     A
C563   C78     1.430   1_556 S
Cu565  O582    1.949   .     S
Cu565  N578    2.018   .     S
Cu565  O583    1.950   .     S
Cu565  O579    1.952   .     S
Cu565  Cu566   2.685   .     S
Cu565  O586    1.923   .     S
Cu566  N577    2.018   .     S
Cu566  O580    1.952   .     S
Cu566  O584    1.950   .     S
Cu566  O585    1.923   .     S
Cu566  O581    1.949   .     S
H568   C60     1.085   1_556 S
H573   C871    1.088   1_545 S
H574   C710    1.088   .     S
H576   N632    1.029   .     S
N577   H629    1.029   .     S
N577   N632    1.283   .     S
C587   N588    1.158   .     T
C589   N590    1.158   .     T
C591   N646    1.158   .     S
N594   C647    1.158   .     S
C595   O635    1.285   .     A
C595   O633    1.290   .     A
C595   C601    1.426   .     S
C596   O636    1.285   .     A
C596   O634    1.290   .     A
C596   C602    1.426   .     S
C597   H625    1.076   .     S
C597   C618    1.408   .     A
C598   H626    1.076   .     S
C598   C617    1.408   .     A
C598   C114    1.383   1_556 S
C599   C615    1.391   .     A
C599   C111    1.383   1_556 S
C599   H135    1.085   1_556 S
C600   C616    1.391   .     A
C601   C764    1.328   .     S
C601   H789    1.088   .     S
C602   C925    1.328   1_545 S
C602   H952    1.088   1_545 S
C603   O639    1.296   .     A
C603   C605    1.483   .     S
C603   O637    1.302   .     A
C604   O640    1.296   .     A
C604   C606    1.483   .     S
C604   O638    1.302   .     A
C605   C609    1.412   .     A
C605   C611    1.423   .     A
C606   C610    1.412   .     A
C606   C612    1.423   .     A
C607   C615    1.396   .     A
C607   C609    1.389   .     A
C607   H623    1.086   .     S
C608   H624    1.086   .     S
C608   C616    1.396   .     A
C608   C610    1.389   .     A
C609   C647    1.446   .     S
C610   C645    1.446   .     S
C611   C613    1.431   .     A
C611   C643    1.454   .     S
C612   C641    1.454   .     S
C612   C614    1.431   .     A
C613   C617    1.438   .     A
C613   C615    1.419   .     A
C614   C618    1.438   .     A
C614   C616    1.419   .     A
C617   C132    1.430   1_556 S
Cu619  O636    1.949   .     S
Cu619  N632    2.018   .     S
Cu619  O637    1.950   .     S
Cu619  O633    1.952   .     S
Cu619  Cu620   2.685   .     S
Cu619  O640    1.923   .     S
Cu620  N631    2.018   .     S
Cu620  O634    1.952   .     S
Cu620  O638    1.950   .     S
Cu620  O639    1.923   .     S
Cu620  O635    1.949   .     S
H622   C114    1.085   1_556 S
H627   C925    1.088   1_545 S
H628   C764    1.088   .     S
H630   N524    1.029   1_655 S
N631   H521    1.029   1_655 S
N631   N524    1.283   1_655 S
C641   N642    1.158   .     T
C643   N644    1.158   .     T
C645   N538    1.158   1_655 S
N648   C539    1.158   1_655 S
C649   O689    1.285   .     A
C649   O687    1.290   .     A
C649   C655    1.426   .     S
C650   O690    1.285   .     A
C650   O688    1.290   .     A
C650   C656    1.426   .     S
C651   H679    1.076   .     S
C651   C672    1.408   .     A
C652   H680    1.076   .     S
C652   C671    1.408   .     A
C652   C168    1.383   1_556 S
C653   C669    1.391   .     A
C653   C165    1.383   1_556 S
C653   H189    1.085   1_556 S
C654   C670    1.391   .     A
C655   C818    1.328   .     S
C655   H843    1.088   .     S
C657   O693    1.296   .     A
C657   C659    1.483   .     S
C657   O691    1.302   .     A
C658   O694    1.296   .     A
C658   C660    1.483   .     S
C658   O692    1.302   .     A
C659   C663    1.412   .     A
C659   C665    1.423   .     A
C660   C664    1.412   .     A
C660   C666    1.423   .     A
C661   C669    1.396   .     A
C661   C663    1.389   .     A
C661   H677    1.086   .     S
C662   H678    1.086   .     S
C662   C670    1.396   .     A
C662   C664    1.389   .     A
C663   C701    1.446   .     S
C664   C699    1.446   .     S
C665   C667    1.431   .     A
C665   C697    1.454   .     S
C666   C695    1.454   .     S
C666   C668    1.431   .     A
C667   C671    1.438   .     A
C667   C669    1.419   .     A
C668   C672    1.438   .     A
C668   C670    1.419   .     A
C671   C186    1.430   1_556 S
Cu673  O690    1.949   .     S
Cu673  N686    2.018   .     S
Cu673  O691    1.950   .     S
Cu673  O687    1.952   .     S
Cu673  Cu674   2.685   .     S
Cu673  O694    1.923   .     S
Cu674  N685    2.018   .     S
Cu674  O688    1.952   .     S
Cu674  O692    1.950   .     S
Cu674  O693    1.923   .     S
Cu674  O689    1.949   .     S
H676   C168    1.085   1_556 S
H682   C818    1.088   .     S
H683   N793    1.029   1_455 S
H684   N740    1.029   .     S
N685   H737    1.029   .     S
N685   N740    1.283   .     S
N686   H792    1.029   1_455 S
N686   N793    1.283   1_455 S
C695   N696    1.158   .     T
C697   N698    1.158   .     T
C699   N754    1.158   .     S
N700   C807    1.158   1_455 S
C701   N810    1.158   1_455 S
N702   C755    1.158   .     S
C703   O743    1.285   .     A
C703   O741    1.290   .     A
C703   C709    1.426   .     S
C704   O744    1.285   .     A
C704   O742    1.290   .     A
C704   C710    1.426   .     S
C705   H733    1.076   .     S
C705   C726    1.408   .     A
C706   H734    1.076   .     S
C706   C725    1.408   .     A
C706   C222    1.383   1_556 S
C707   C723    1.391   .     A
C707   C219    1.383   1_556 S
C707   H243    1.085   1_556 S
C708   C724    1.391   .     A
C709   C872    1.328   .     S
C709   H897    1.088   .     S
C711   O747    1.296   .     A
C711   C713    1.483   .     S
C711   O745    1.302   .     A
C712   O748    1.296   .     A
C712   C714    1.483   .     S
C712   O746    1.302   .     A
C713   C717    1.412   .     A
C713   C719    1.423   .     A
C714   C718    1.412   .     A
C714   C720    1.423   .     A
C715   C723    1.396   .     A
C715   C717    1.389   .     A
C715   H731    1.086   .     S
C716   H732    1.086   .     S
C716   C724    1.396   .     A
C716   C718    1.389   .     A
C717   C755    1.446   .     S
C718   C753    1.446   .     S
C719   C721    1.431   .     A
C719   C751    1.454   .     S
C720   C749    1.454   .     S
C720   C722    1.431   .     A
C721   C725    1.438   .     A
C721   C723    1.419   .     A
C722   C726    1.438   .     A
C722   C724    1.419   .     A
C725   C240    1.430   1_556 S
Cu727  O744    1.949   .     S
Cu727  N740    2.018   .     S
Cu727  O745    1.950   .     S
Cu727  O741    1.952   .     S
Cu727  Cu728   2.685   .     S
Cu727  O748    1.923   .     S
Cu728  N739    2.018   .     S
Cu728  O742    1.952   .     S
Cu728  O746    1.950   .     S
Cu728  O747    1.923   .     S
Cu728  O743    1.949   .     S
H730   C222    1.085   1_556 S
H736   C872    1.088   .     S
H738   N794    1.029   .     S
N739   H791    1.029   .     S
N739   N794    1.283   .     S
C749   N750    1.158   .     T
C751   N752    1.158   .     T
C753   N808    1.158   .     S
N756   C809    1.158   .     S
C757   O797    1.285   .     A
C757   O795    1.290   .     A
C757   C763    1.426   .     S
C758   O798    1.285   .     A
C758   O796    1.290   .     A
C758   C764    1.426   .     S
C759   H787    1.076   .     S
C759   C780    1.408   .     A
C760   H788    1.076   .     S
C760   C779    1.408   .     A
C760   C276    1.383   1_556 S
C761   C777    1.391   .     A
C761   C273    1.383   1_556 S
C761   H297    1.085   1_556 S
C762   C778    1.391   .     A
C763   C926    1.328   .     S
C763   H951    1.088   .     S
C765   O801    1.296   .     A
C765   C767    1.483   .     S
C765   O799    1.302   .     A
C766   O802    1.296   .     A
C766   C768    1.483   .     S
C766   O800    1.302   .     A
C767   C771    1.412   .     A
C767   C773    1.423   .     A
C768   C772    1.412   .     A
C768   C774    1.423   .     A
C769   C777    1.396   .     A
C769   C771    1.389   .     A
C769   H785    1.086   .     S
C770   H786    1.086   .     S
C770   C778    1.396   .     A
C770   C772    1.389   .     A
C771   C809    1.446   .     S
C772   C807    1.446   .     S
C773   C775    1.431   .     A
C773   C805    1.454   .     S
C774   C803    1.454   .     S
C774   C776    1.431   .     A
C775   C779    1.438   .     A
C775   C777    1.419   .     A
C776   C780    1.438   .     A
C776   C778    1.419   .     A
C779   C294    1.430   1_556 S
Cu781  O798    1.949   .     S
Cu781  N794    2.018   .     S
Cu781  O799    1.950   .     S
Cu781  O795    1.952   .     S
Cu781  Cu782   2.685   .     S
Cu781  O802    1.923   .     S
Cu782  N793    2.018   .     S
Cu782  O796    1.952   .     S
Cu782  O800    1.950   .     S
Cu782  O801    1.923   .     S
Cu782  O797    1.949   .     S
H784   C276    1.085   1_556 S
H790   C926    1.088   .     S
H792   N686    1.029   1_655 S
N793   H683    1.029   1_655 S
N793   N686    1.283   1_655 S
C803   N804    1.158   .     T
C805   N806    1.158   .     T
C807   N700    1.158   1_655 S
N810   C701    1.158   1_655 S
C811   O851    1.285   .     A
C811   O849    1.290   .     A
C811   C817    1.426   .     S
C812   O852    1.285   .     A
C812   O850    1.290   .     A
C812   C818    1.426   .     S
C813   H841    1.076   .     S
C813   C834    1.408   .     A
C814   H842    1.076   .     S
C814   C833    1.408   .     A
C814   C330    1.383   1_556 S
C815   C831    1.391   .     A
C815   C327    1.383   1_556 S
C815   H351    1.085   1_556 S
C816   C832    1.391   .     A
C817   C494    1.328   1_565 S
C817   H519    1.088   1_565 S
C819   O855    1.296   .     A
C819   C821    1.483   .     S
C819   O853    1.302   .     A
C820   O856    1.296   .     A
C820   C822    1.483   .     S
C820   O854    1.302   .     A
C821   C825    1.412   .     A
C821   C827    1.423   .     A
C822   C826    1.412   .     A
C822   C828    1.423   .     A
C823   C831    1.396   .     A
C823   C825    1.389   .     A
C823   H839    1.086   .     S
C824   H840    1.086   .     S
C824   C832    1.396   .     A
C824   C826    1.389   .     A
C825   C863    1.446   .     S
C826   C861    1.446   .     S
C827   C829    1.431   .     A
C827   C859    1.454   .     S
C828   C857    1.454   .     S
C828   C830    1.431   .     A
C829   C833    1.438   .     A
C829   C831    1.419   .     A
C830   C834    1.438   .     A
C830   C832    1.419   .     A
C833   C348    1.430   1_556 S
Cu835  O852    1.949   .     S
Cu835  N848    2.018   .     S
Cu835  O853    1.950   .     S
Cu835  O849    1.952   .     S
Cu835  Cu836   2.685   .     S
Cu835  O856    1.923   .     S
Cu836  N847    2.018   .     S
Cu836  O850    1.952   .     S
Cu836  O854    1.950   .     S
Cu836  O855    1.923   .     S
Cu836  O851    1.949   .     S
H838   C330    1.085   1_556 S
H844   C494    1.088   1_565 S
H845   N955    1.029   1_455 S
H846   N902    1.029   .     S
N847   H899    1.029   .     S
N847   N902    1.283   .     S
N848   H954    1.029   1_455 S
N848   N955    1.283   1_455 S
C857   N858    1.158   .     T
C859   N860    1.158   .     T
C861   N916    1.158   .     S
N862   C969    1.158   1_455 S
C863   N972    1.158   1_455 S
N864   C917    1.158   .     S
C865   O905    1.285   .     A
C865   O903    1.290   .     A
C865   C871    1.426   .     S
C866   O906    1.285   .     A
C866   O904    1.290   .     A
C866   C872    1.426   .     S
C867   H895    1.076   .     S
C867   C888    1.408   .     A
C868   H896    1.076   .     S
C868   C887    1.408   .     A
C868   C384    1.383   1_556 S
C869   C885    1.391   .     A
C869   C381    1.383   1_556 S
C869   H405    1.085   1_556 S
C870   C886    1.391   .     A
C871   C548    1.328   1_565 S
C871   H573    1.088   1_565 S
C873   O909    1.296   .     A
C873   C875    1.483   .     S
C873   O907    1.302   .     A
C874   O910    1.296   .     A
C874   C876    1.483   .     S
C874   O908    1.302   .     A
C875   C879    1.412   .     A
C875   C881    1.423   .     A
C876   C880    1.412   .     A
C876   C882    1.423   .     A
C877   C885    1.396   .     A
C877   C879    1.389   .     A
C877   H893    1.086   .     S
C878   H894    1.086   .     S
C878   C886    1.396   .     A
C878   C880    1.389   .     A
C879   C917    1.446   .     S
C880   C915    1.446   .     S
C881   C883    1.431   .     A
C881   C913    1.454   .     S
C882   C911    1.454   .     S
C882   C884    1.431   .     A
C883   C887    1.438   .     A
C883   C885    1.419   .     A
C884   C888    1.438   .     A
C884   C886    1.419   .     A
C887   C402    1.430   1_556 S
Cu889  O906    1.949   .     S
Cu889  N902    2.018   .     S
Cu889  O907    1.950   .     S
Cu889  O903    1.952   .     S
Cu889  Cu890   2.685   .     S
Cu889  O910    1.923   .     S
Cu890  N901    2.018   .     S
Cu890  O904    1.952   .     S
Cu890  O908    1.950   .     S
Cu890  O909    1.923   .     S
Cu890  O905    1.949   .     S
H892   C384    1.085   1_556 S
H898   C548    1.088   1_565 S
H900   N956    1.029   .     S
N901   H953    1.029   .     S
N901   N956    1.283   .     S
C911   N912    1.158   .     T
C913   N914    1.158   .     T
C915   N970    1.158   .     S
N918   C971    1.158   .     S
C919   O959    1.285   .     A
C919   O957    1.290   .     A
C919   C925    1.426   .     S
C920   O960    1.285   .     A
C920   O958    1.290   .     A
C920   C926    1.426   .     S
C921   H949    1.076   .     S
C921   C942    1.408   .     A
C922   H950    1.076   .     S
C922   C941    1.408   .     A
C922   C438    1.383   1_556 S
C923   C939    1.391   .     A
C923   C435    1.383   1_556 S
C923   H459    1.085   1_556 S
C924   C940    1.391   .     A
C925   C602    1.328   1_565 S
C925   H627    1.088   1_565 S
C927   O963    1.296   .     A
C927   C929    1.483   .     S
C927   O961    1.302   .     A
C928   O964    1.296   .     A
C928   C930    1.483   .     S
C928   O962    1.302   .     A
C929   C933    1.412   .     A
C929   C935    1.423   .     A
C930   C934    1.412   .     A
C930   C936    1.423   .     A
C931   C939    1.396   .     A
C931   C933    1.389   .     A
C931   H947    1.086   .     S
C932   H948    1.086   .     S
C932   C940    1.396   .     A
C932   C934    1.389   .     A
C933   C971    1.446   .     S
C934   C969    1.446   .     S
C935   C937    1.431   .     A
C935   C967    1.454   .     S
C936   C965    1.454   .     S
C936   C938    1.431   .     A
C937   C941    1.438   .     A
C937   C939    1.419   .     A
C938   C942    1.438   .     A
C938   C940    1.419   .     A
C941   C456    1.430   1_556 S
Cu943  O960    1.949   .     S
Cu943  N956    2.018   .     S
Cu943  O961    1.950   .     S
Cu943  O957    1.952   .     S
Cu943  Cu944   2.685   .     S
Cu943  O964    1.923   .     S
Cu944  N955    2.018   .     S
Cu944  O958    1.952   .     S
Cu944  O962    1.950   .     S
Cu944  O963    1.923   .     S
Cu944  O959    1.949   .     S
H946   C438    1.085   1_556 S
H952   C602    1.088   1_565 S
H954   N848    1.029   1_655 S
N955   H845    1.029   1_655 S
N955   N848    1.283   1_655 S
C965   N966    1.158   .     T
C967   N968    1.158   .     T
C969   N862    1.158   1_655 S
N972   C863    1.158   1_655 S
