data_str_m2_o10_o17_pcu_sym.154
_audit_creation_date              2020-01-03
_audit_creation_method            'Materials Studio'
_symmetry_space_group_name_H-M    'P1'
_symmetry_Int_Tables_number       1
_symmetry_cell_setting            triclinic
loop_
_symmetry_equiv_pos_as_xyz
  x,y,z
_cell_length_a                    30.0394
_cell_length_b                    26.0249
_cell_length_c                    22.3386
_cell_angle_alpha                 103.1024
_cell_angle_beta                  93.7450
_cell_angle_gamma                 92.5270
loop_
_atom_site_label
_atom_site_type_symbol
_atom_site_fract_x
_atom_site_fract_y
_atom_site_fract_z
_atom_site_U_iso_or_equiv
_atom_site_adp_type
_atom_site_occupancy
C1     C     0.24862   0.06655   0.15105   0.00000  Uiso   1.00
C2     C     0.25138   0.26678   0.18229   0.00000  Uiso   1.00
C3     C     0.02240   0.07479   0.11966   0.00000  Uiso   1.00
C4     C     0.47760   0.25854   0.21356   0.00000  Uiso   1.00
C5     C     0.24806   0.01055   0.14228   0.00000  Uiso   1.00
C6     C     0.25194   0.32279   0.19105   0.00000  Uiso   1.00
C7     C     0.16480   0.16916   0.16809   0.00000  Uiso   1.00
C8     C     0.33520   0.16417   0.16524   0.00000  Uiso   1.00
C9     C     0.40825   0.20771   0.19076   0.00000  Uiso   1.00
C10    C     0.09175   0.12562   0.14253   0.00000  Uiso   1.00
C11    C     0.38318   0.16168   0.16277   0.00000  Uiso   1.00
C12    C     0.11682   0.17164   0.17056   0.00000  Uiso   1.00
C13    C     0.40360   0.11503   0.13510   0.00000  Uiso   1.00
C14    C     0.09639   0.21829   0.19823   0.00000  Uiso   1.00
C15    C     0.45149   0.11511   0.14001   0.00000  Uiso   1.00
C16    C     0.04850   0.21820   0.19326   0.00000  Uiso   1.00
C17    C     0.47640   0.16456   0.16575   0.00000  Uiso   1.00
C18    C     0.02359   0.16876   0.16751   0.00000  Uiso   1.00
C19    C     0.45421   0.21006   0.19049   0.00000  Uiso   1.00
C20    C     0.04579   0.12326   0.14277   0.00000  Uiso   1.00
C21    C     0.47611   0.06901   0.12055   0.00000  Uiso   1.00
C22    C     0.02389   0.26431   0.21267   0.00000  Uiso   1.00
Cu23   Cu    0.25501   0.17246   0.22813   0.00000  Uiso   1.00
Cu24   Cu    0.24500   0.16087   0.10521   0.00000  Uiso   1.00
H25    H     0.04098   0.04030   0.10268   0.00000  Uiso   1.00
H26    H     0.45903   0.29304   0.23052   0.00000  Uiso   1.00
N27    N     0.23745   0.15214   0.01284   0.00000  Uiso   1.00
N28    N     0.26256   0.18119   0.32049   0.00000  Uiso   1.00
O29    O     0.25326   0.09538   0.20659   0.00000  Uiso   1.00
O30    O     0.24675   0.23796   0.12674   0.00000  Uiso   1.00
O31    O     0.24480   0.08559   0.10279   0.00000  Uiso   1.00
O32    O     0.25520   0.24774   0.23055   0.00000  Uiso   1.00
O33    O     0.18936   0.17155   0.21857   0.00000  Uiso   1.00
O34    O     0.31065   0.16179   0.11476   0.00000  Uiso   1.00
O35    O     0.18090   0.16176   0.11477   0.00000  Uiso   1.00
O36    O     0.31910   0.17157   0.21857   0.00000  Uiso   1.00
H37    H     0.39136   0.24283   0.21106   0.00000  Uiso   1.00
H38    H     0.10865   0.09050   0.12222   0.00000  Uiso   1.00
C39    C     0.37416   0.06809   0.09799   0.00000  Uiso   1.00
H40    H     0.37315   0.03534   0.12201   0.00000  Uiso   1.00
H41    H     0.33881   0.07628   0.09043   0.00000  Uiso   1.00
H42    H     0.38553   0.05595   0.05092   0.00000  Uiso   1.00
C43    C     0.12581   0.26521   0.23542   0.00000  Uiso   1.00
H44    H     0.12690   0.29796   0.21141   0.00000  Uiso   1.00
H45    H     0.11435   0.27736   0.28244   0.00000  Uiso   1.00
H46    H     0.16114   0.25699   0.24311   0.00000  Uiso   1.00
C47    C     0.45673   0.01247   0.10645   0.00000  Uiso   1.00
H48    H     0.43718   0.00589   0.14470   0.00000  Uiso   1.00
H49    H     0.43707   0.00180   0.06132   0.00000  Uiso   1.00
H50    H     0.48316   0.31694   0.10310   0.00000  Uiso   1.00
C51    C     0.04327   0.32084   0.22665   0.00000  Uiso   1.00
H52    H     0.06290   0.33160   0.27180   0.00000  Uiso   1.00
H53    H     0.06287   0.32734   0.18840   0.00000  Uiso   1.00
H54    H     0.01685   0.01637   0.22986   0.00000  Uiso   1.00
H55    H     0.24448   0.31991   0.09534   0.00000  Uiso   1.00
H56    H     0.25552   0.01343   0.23799   0.00000  Uiso   1.00
H57    H     0.21502   0.12598   0.31623   0.00000  Uiso   1.00
H58    H     0.28498   0.20736   0.01710   0.00000  Uiso   1.00
C59    C     0.74862   0.06655   0.15105   0.00000  Uiso   1.00
C60    C     0.75138   0.26678   0.18229   0.00000  Uiso   1.00
C61    C     0.52240   0.07479   0.11966   0.00000  Uiso   1.00
C62    C     0.97760   0.25854   0.21356   0.00000  Uiso   1.00
C63    C     0.74806   0.01055   0.14228   0.00000  Uiso   1.00
C64    C     0.75194   0.32279   0.19105   0.00000  Uiso   1.00
C65    C     0.66480   0.16916   0.16809   0.00000  Uiso   1.00
C66    C     0.83520   0.16417   0.16524   0.00000  Uiso   1.00
C67    C     0.90825   0.20771   0.19076   0.00000  Uiso   1.00
C68    C     0.59175   0.12562   0.14253   0.00000  Uiso   1.00
C69    C     0.88318   0.16168   0.16277   0.00000  Uiso   1.00
C70    C     0.61682   0.17164   0.17056   0.00000  Uiso   1.00
C71    C     0.90360   0.11503   0.13510   0.00000  Uiso   1.00
C72    C     0.59639   0.21829   0.19823   0.00000  Uiso   1.00
C73    C     0.95149   0.11511   0.14001   0.00000  Uiso   1.00
C74    C     0.54850   0.21820   0.19326   0.00000  Uiso   1.00
C75    C     0.97640   0.16456   0.16575   0.00000  Uiso   1.00
C76    C     0.52359   0.16876   0.16751   0.00000  Uiso   1.00
C77    C     0.95421   0.21006   0.19049   0.00000  Uiso   1.00
C78    C     0.54579   0.12326   0.14277   0.00000  Uiso   1.00
C79    C     0.97611   0.06901   0.12055   0.00000  Uiso   1.00
C80    C     0.52389   0.26431   0.21267   0.00000  Uiso   1.00
Cu81   Cu    0.75501   0.17246   0.22813   0.00000  Uiso   1.00
Cu82   Cu    0.74500   0.16087   0.10521   0.00000  Uiso   1.00
H83    H     0.54098   0.04030   0.10268   0.00000  Uiso   1.00
H84    H     0.95903   0.29304   0.23052   0.00000  Uiso   1.00
N85    N     0.73745   0.15214   0.01284   0.00000  Uiso   1.00
N86    N     0.76256   0.18119   0.32049   0.00000  Uiso   1.00
O87    O     0.75326   0.09538   0.20659   0.00000  Uiso   1.00
O88    O     0.74675   0.23796   0.12674   0.00000  Uiso   1.00
O89    O     0.74480   0.08559   0.10279   0.00000  Uiso   1.00
O90    O     0.75520   0.24774   0.23055   0.00000  Uiso   1.00
O91    O     0.68936   0.17155   0.21857   0.00000  Uiso   1.00
O92    O     0.81065   0.16179   0.11476   0.00000  Uiso   1.00
O93    O     0.68090   0.16176   0.11477   0.00000  Uiso   1.00
O94    O     0.81910   0.17157   0.21857   0.00000  Uiso   1.00
H95    H     0.89136   0.24283   0.21106   0.00000  Uiso   1.00
H96    H     0.60865   0.09050   0.12222   0.00000  Uiso   1.00
C97    C     0.87416   0.06809   0.09799   0.00000  Uiso   1.00
H98    H     0.87315   0.03534   0.12201   0.00000  Uiso   1.00
H99    H     0.83881   0.07628   0.09043   0.00000  Uiso   1.00
H100   H     0.88553   0.05595   0.05092   0.00000  Uiso   1.00
C101   C     0.62581   0.26521   0.23542   0.00000  Uiso   1.00
H102   H     0.62690   0.29796   0.21141   0.00000  Uiso   1.00
H103   H     0.61435   0.27736   0.28244   0.00000  Uiso   1.00
H104   H     0.66114   0.25699   0.24311   0.00000  Uiso   1.00
C105   C     0.95673   0.01247   0.10645   0.00000  Uiso   1.00
H106   H     0.93718   0.00589   0.14470   0.00000  Uiso   1.00
H107   H     0.93707   0.00180   0.06132   0.00000  Uiso   1.00
H108   H     0.98316   0.31694   0.10310   0.00000  Uiso   1.00
C109   C     0.54327   0.32084   0.22665   0.00000  Uiso   1.00
H110   H     0.56290   0.33160   0.27180   0.00000  Uiso   1.00
H111   H     0.56287   0.32734   0.18840   0.00000  Uiso   1.00
H112   H     0.51685   0.01637   0.22986   0.00000  Uiso   1.00
H113   H     0.74448   0.31991   0.09534   0.00000  Uiso   1.00
H114   H     0.75552   0.01343   0.23799   0.00000  Uiso   1.00
H115   H     0.71502   0.12598   0.31623   0.00000  Uiso   1.00
H116   H     0.78498   0.20736   0.01710   0.00000  Uiso   1.00
C117   C     0.24862   0.39989   0.15105   0.00000  Uiso   1.00
C118   C     0.25138   0.60011   0.18229   0.00000  Uiso   1.00
C119   C     0.02240   0.40813   0.11966   0.00000  Uiso   1.00
C120   C     0.47760   0.59187   0.21356   0.00000  Uiso   1.00
C121   C     0.24806   0.34388   0.14228   0.00000  Uiso   1.00
C122   C     0.25194   0.65612   0.19105   0.00000  Uiso   1.00
C123   C     0.16480   0.50250   0.16809   0.00000  Uiso   1.00
C124   C     0.33520   0.49751   0.16524   0.00000  Uiso   1.00
C125   C     0.40825   0.54104   0.19076   0.00000  Uiso   1.00
C126   C     0.09175   0.45895   0.14253   0.00000  Uiso   1.00
C127   C     0.38318   0.49502   0.16277   0.00000  Uiso   1.00
C128   C     0.11682   0.50497   0.17056   0.00000  Uiso   1.00
C129   C     0.40360   0.44836   0.13510   0.00000  Uiso   1.00
C130   C     0.09639   0.55162   0.19823   0.00000  Uiso   1.00
C131   C     0.45149   0.44845   0.14001   0.00000  Uiso   1.00
C132   C     0.04850   0.55154   0.19326   0.00000  Uiso   1.00
C133   C     0.47640   0.49789   0.16575   0.00000  Uiso   1.00
C134   C     0.02359   0.50210   0.16751   0.00000  Uiso   1.00
C135   C     0.45421   0.54340   0.19049   0.00000  Uiso   1.00
C136   C     0.04579   0.45660   0.14277   0.00000  Uiso   1.00
C137   C     0.47611   0.40235   0.12055   0.00000  Uiso   1.00
C138   C     0.02389   0.59764   0.21267   0.00000  Uiso   1.00
Cu139  Cu    0.25501   0.50579   0.22813   0.00000  Uiso   1.00
Cu140  Cu    0.24500   0.49421   0.10521   0.00000  Uiso   1.00
H141   H     0.04098   0.37364   0.10268   0.00000  Uiso   1.00
H142   H     0.45903   0.62637   0.23052   0.00000  Uiso   1.00
N143   N     0.23745   0.48547   0.01284   0.00000  Uiso   1.00
N144   N     0.26256   0.51453   0.32049   0.00000  Uiso   1.00
O145   O     0.25326   0.42871   0.20659   0.00000  Uiso   1.00
O146   O     0.24675   0.57129   0.12674   0.00000  Uiso   1.00
O147   O     0.24480   0.41892   0.10279   0.00000  Uiso   1.00
O148   O     0.25520   0.58108   0.23055   0.00000  Uiso   1.00
O149   O     0.18936   0.50488   0.21857   0.00000  Uiso   1.00
O150   O     0.31065   0.49512   0.11476   0.00000  Uiso   1.00
O151   O     0.18090   0.49510   0.11477   0.00000  Uiso   1.00
O152   O     0.31910   0.50490   0.21857   0.00000  Uiso   1.00
H153   H     0.39136   0.57616   0.21106   0.00000  Uiso   1.00
H154   H     0.10865   0.42384   0.12222   0.00000  Uiso   1.00
C155   C     0.37416   0.40142   0.09799   0.00000  Uiso   1.00
H156   H     0.37315   0.36868   0.12201   0.00000  Uiso   1.00
H157   H     0.33881   0.40961   0.09043   0.00000  Uiso   1.00
H158   H     0.38553   0.38929   0.05092   0.00000  Uiso   1.00
C159   C     0.12581   0.59855   0.23542   0.00000  Uiso   1.00
H160   H     0.12690   0.63129   0.21141   0.00000  Uiso   1.00
H161   H     0.11435   0.61070   0.28244   0.00000  Uiso   1.00
H162   H     0.16114   0.59032   0.24311   0.00000  Uiso   1.00
C163   C     0.45673   0.34581   0.10645   0.00000  Uiso   1.00
H164   H     0.43718   0.33922   0.14470   0.00000  Uiso   1.00
H165   H     0.43707   0.33513   0.06132   0.00000  Uiso   1.00
H166   H     0.48316   0.65027   0.10310   0.00000  Uiso   1.00
C167   C     0.04327   0.65418   0.22665   0.00000  Uiso   1.00
H168   H     0.06290   0.66493   0.27180   0.00000  Uiso   1.00
H169   H     0.06287   0.66067   0.18840   0.00000  Uiso   1.00
H170   H     0.01685   0.34970   0.22986   0.00000  Uiso   1.00
H171   H     0.24448   0.65324   0.09534   0.00000  Uiso   1.00
H172   H     0.25552   0.34676   0.23799   0.00000  Uiso   1.00
H173   H     0.21502   0.45931   0.31623   0.00000  Uiso   1.00
H174   H     0.28498   0.54069   0.01710   0.00000  Uiso   1.00
C175   C     0.74862   0.39989   0.15105   0.00000  Uiso   1.00
C176   C     0.75138   0.60011   0.18229   0.00000  Uiso   1.00
C177   C     0.52240   0.40813   0.11966   0.00000  Uiso   1.00
C178   C     0.97760   0.59187   0.21356   0.00000  Uiso   1.00
C179   C     0.74806   0.34388   0.14228   0.00000  Uiso   1.00
C180   C     0.75194   0.65612   0.19105   0.00000  Uiso   1.00
C181   C     0.66480   0.50250   0.16809   0.00000  Uiso   1.00
C182   C     0.83520   0.49751   0.16524   0.00000  Uiso   1.00
C183   C     0.90825   0.54104   0.19076   0.00000  Uiso   1.00
C184   C     0.59175   0.45895   0.14253   0.00000  Uiso   1.00
C185   C     0.88318   0.49502   0.16277   0.00000  Uiso   1.00
C186   C     0.61682   0.50497   0.17056   0.00000  Uiso   1.00
C187   C     0.90360   0.44836   0.13510   0.00000  Uiso   1.00
C188   C     0.59639   0.55162   0.19823   0.00000  Uiso   1.00
C189   C     0.95149   0.44845   0.14001   0.00000  Uiso   1.00
C190   C     0.54850   0.55154   0.19326   0.00000  Uiso   1.00
C191   C     0.97640   0.49789   0.16575   0.00000  Uiso   1.00
C192   C     0.52359   0.50210   0.16751   0.00000  Uiso   1.00
C193   C     0.95421   0.54340   0.19049   0.00000  Uiso   1.00
C194   C     0.54579   0.45660   0.14277   0.00000  Uiso   1.00
C195   C     0.97611   0.40235   0.12055   0.00000  Uiso   1.00
C196   C     0.52389   0.59764   0.21267   0.00000  Uiso   1.00
Cu197  Cu    0.75501   0.50579   0.22813   0.00000  Uiso   1.00
Cu198  Cu    0.74500   0.49421   0.10521   0.00000  Uiso   1.00
H199   H     0.54098   0.37364   0.10268   0.00000  Uiso   1.00
H200   H     0.95903   0.62637   0.23052   0.00000  Uiso   1.00
N201   N     0.73745   0.48547   0.01284   0.00000  Uiso   1.00
N202   N     0.76256   0.51453   0.32049   0.00000  Uiso   1.00
O203   O     0.75326   0.42871   0.20659   0.00000  Uiso   1.00
O204   O     0.74675   0.57129   0.12674   0.00000  Uiso   1.00
O205   O     0.74480   0.41892   0.10279   0.00000  Uiso   1.00
O206   O     0.75520   0.58108   0.23055   0.00000  Uiso   1.00
O207   O     0.68936   0.50488   0.21857   0.00000  Uiso   1.00
O208   O     0.81065   0.49512   0.11476   0.00000  Uiso   1.00
O209   O     0.68090   0.49510   0.11477   0.00000  Uiso   1.00
O210   O     0.81910   0.50490   0.21857   0.00000  Uiso   1.00
H211   H     0.89136   0.57616   0.21106   0.00000  Uiso   1.00
H212   H     0.60865   0.42384   0.12222   0.00000  Uiso   1.00
C213   C     0.87416   0.40142   0.09799   0.00000  Uiso   1.00
H214   H     0.87315   0.36868   0.12201   0.00000  Uiso   1.00
H215   H     0.83881   0.40961   0.09043   0.00000  Uiso   1.00
H216   H     0.88553   0.38929   0.05092   0.00000  Uiso   1.00
C217   C     0.62581   0.59855   0.23542   0.00000  Uiso   1.00
H218   H     0.62690   0.63129   0.21141   0.00000  Uiso   1.00
H219   H     0.61435   0.61070   0.28244   0.00000  Uiso   1.00
H220   H     0.66114   0.59032   0.24311   0.00000  Uiso   1.00
C221   C     0.95673   0.34581   0.10645   0.00000  Uiso   1.00
H222   H     0.93718   0.33922   0.14470   0.00000  Uiso   1.00
H223   H     0.93707   0.33513   0.06132   0.00000  Uiso   1.00
H224   H     0.98316   0.65027   0.10310   0.00000  Uiso   1.00
C225   C     0.54327   0.65418   0.22665   0.00000  Uiso   1.00
H226   H     0.56290   0.66493   0.27180   0.00000  Uiso   1.00
H227   H     0.56287   0.66067   0.18840   0.00000  Uiso   1.00
H228   H     0.51685   0.34970   0.22986   0.00000  Uiso   1.00
H229   H     0.74448   0.65324   0.09534   0.00000  Uiso   1.00
H230   H     0.75552   0.34676   0.23799   0.00000  Uiso   1.00
H231   H     0.71502   0.45931   0.31623   0.00000  Uiso   1.00
H232   H     0.78498   0.54069   0.01710   0.00000  Uiso   1.00
C233   C     0.24862   0.73322   0.15105   0.00000  Uiso   1.00
C234   C     0.25138   0.93345   0.18229   0.00000  Uiso   1.00
C235   C     0.02240   0.74146   0.11966   0.00000  Uiso   1.00
C236   C     0.47760   0.92520   0.21356   0.00000  Uiso   1.00
C237   C     0.24806   0.67721   0.14228   0.00000  Uiso   1.00
C238   C     0.25194   0.98945   0.19105   0.00000  Uiso   1.00
C239   C     0.16480   0.83583   0.16809   0.00000  Uiso   1.00
C240   C     0.33520   0.83084   0.16524   0.00000  Uiso   1.00
C241   C     0.40825   0.87437   0.19076   0.00000  Uiso   1.00
C242   C     0.09175   0.79229   0.14253   0.00000  Uiso   1.00
C243   C     0.38318   0.82835   0.16277   0.00000  Uiso   1.00
C244   C     0.11682   0.83831   0.17056   0.00000  Uiso   1.00
C245   C     0.40360   0.78170   0.13510   0.00000  Uiso   1.00
C246   C     0.09639   0.88495   0.19823   0.00000  Uiso   1.00
C247   C     0.45149   0.78178   0.14001   0.00000  Uiso   1.00
C248   C     0.04850   0.88487   0.19326   0.00000  Uiso   1.00
C249   C     0.47640   0.83122   0.16575   0.00000  Uiso   1.00
C250   C     0.02359   0.83543   0.16751   0.00000  Uiso   1.00
C251   C     0.45421   0.87673   0.19049   0.00000  Uiso   1.00
C252   C     0.04579   0.78993   0.14277   0.00000  Uiso   1.00
C253   C     0.47611   0.73568   0.12055   0.00000  Uiso   1.00
C254   C     0.02389   0.93098   0.21267   0.00000  Uiso   1.00
Cu255  Cu    0.25501   0.83913   0.22813   0.00000  Uiso   1.00
Cu256  Cu    0.24500   0.82754   0.10521   0.00000  Uiso   1.00
H257   H     0.04098   0.70697   0.10268   0.00000  Uiso   1.00
H258   H     0.45903   0.95970   0.23052   0.00000  Uiso   1.00
N259   N     0.23745   0.81881   0.01284   0.00000  Uiso   1.00
N260   N     0.26256   0.84786   0.32049   0.00000  Uiso   1.00
O261   O     0.25326   0.76204   0.20659   0.00000  Uiso   1.00
O262   O     0.24675   0.90462   0.12674   0.00000  Uiso   1.00
O263   O     0.24480   0.75226   0.10279   0.00000  Uiso   1.00
O264   O     0.25520   0.91441   0.23055   0.00000  Uiso   1.00
O265   O     0.18936   0.83821   0.21857   0.00000  Uiso   1.00
O266   O     0.31065   0.82845   0.11476   0.00000  Uiso   1.00
O267   O     0.18090   0.82843   0.11477   0.00000  Uiso   1.00
O268   O     0.31910   0.83824   0.21857   0.00000  Uiso   1.00
H269   H     0.39136   0.90950   0.21106   0.00000  Uiso   1.00
H270   H     0.10865   0.75717   0.12222   0.00000  Uiso   1.00
C271   C     0.37416   0.73475   0.09799   0.00000  Uiso   1.00
H272   H     0.37315   0.70201   0.12201   0.00000  Uiso   1.00
H273   H     0.33881   0.74295   0.09043   0.00000  Uiso   1.00
H274   H     0.38553   0.72262   0.05092   0.00000  Uiso   1.00
C275   C     0.12581   0.93188   0.23542   0.00000  Uiso   1.00
H276   H     0.12690   0.96462   0.21141   0.00000  Uiso   1.00
H277   H     0.11435   0.94403   0.28244   0.00000  Uiso   1.00
H278   H     0.16114   0.92366   0.24311   0.00000  Uiso   1.00
C279   C     0.45673   0.67914   0.10645   0.00000  Uiso   1.00
H280   H     0.43718   0.67256   0.14470   0.00000  Uiso   1.00
H281   H     0.43707   0.66846   0.06132   0.00000  Uiso   1.00
H282   H     0.48316   0.98361   0.10310   0.00000  Uiso   1.00
C283   C     0.04327   0.98751   0.22665   0.00000  Uiso   1.00
H284   H     0.06290   0.99826   0.27180   0.00000  Uiso   1.00
H285   H     0.06287   0.99400   0.18840   0.00000  Uiso   1.00
H286   H     0.01685   0.68304   0.22986   0.00000  Uiso   1.00
H287   H     0.24448   0.98657   0.09534   0.00000  Uiso   1.00
H288   H     0.25552   0.68010   0.23799   0.00000  Uiso   1.00
H289   H     0.21502   0.79265   0.31623   0.00000  Uiso   1.00
H290   H     0.28498   0.87402   0.01710   0.00000  Uiso   1.00
C291   C     0.74862   0.73322   0.15105   0.00000  Uiso   1.00
C292   C     0.75138   0.93345   0.18229   0.00000  Uiso   1.00
C293   C     0.52240   0.74146   0.11966   0.00000  Uiso   1.00
C294   C     0.97760   0.92520   0.21356   0.00000  Uiso   1.00
C295   C     0.74806   0.67721   0.14228   0.00000  Uiso   1.00
C296   C     0.75194   0.98945   0.19105   0.00000  Uiso   1.00
C297   C     0.66480   0.83583   0.16809   0.00000  Uiso   1.00
C298   C     0.83520   0.83084   0.16524   0.00000  Uiso   1.00
C299   C     0.90825   0.87437   0.19076   0.00000  Uiso   1.00
C300   C     0.59175   0.79229   0.14253   0.00000  Uiso   1.00
C301   C     0.88318   0.82835   0.16277   0.00000  Uiso   1.00
C302   C     0.61682   0.83831   0.17056   0.00000  Uiso   1.00
C303   C     0.90360   0.78170   0.13510   0.00000  Uiso   1.00
C304   C     0.59639   0.88495   0.19823   0.00000  Uiso   1.00
C305   C     0.95149   0.78178   0.14001   0.00000  Uiso   1.00
C306   C     0.54850   0.88487   0.19326   0.00000  Uiso   1.00
C307   C     0.97640   0.83122   0.16575   0.00000  Uiso   1.00
C308   C     0.52359   0.83543   0.16751   0.00000  Uiso   1.00
C309   C     0.95421   0.87673   0.19049   0.00000  Uiso   1.00
C310   C     0.54579   0.78993   0.14277   0.00000  Uiso   1.00
C311   C     0.97611   0.73568   0.12055   0.00000  Uiso   1.00
C312   C     0.52389   0.93098   0.21267   0.00000  Uiso   1.00
Cu313  Cu    0.75501   0.83913   0.22813   0.00000  Uiso   1.00
Cu314  Cu    0.74500   0.82754   0.10521   0.00000  Uiso   1.00
H315   H     0.54098   0.70697   0.10268   0.00000  Uiso   1.00
H316   H     0.95903   0.95970   0.23052   0.00000  Uiso   1.00
N317   N     0.73745   0.81881   0.01284   0.00000  Uiso   1.00
N318   N     0.76256   0.84786   0.32049   0.00000  Uiso   1.00
O319   O     0.75326   0.76204   0.20659   0.00000  Uiso   1.00
O320   O     0.74675   0.90462   0.12674   0.00000  Uiso   1.00
O321   O     0.74480   0.75226   0.10279   0.00000  Uiso   1.00
O322   O     0.75520   0.91441   0.23055   0.00000  Uiso   1.00
O323   O     0.68936   0.83821   0.21857   0.00000  Uiso   1.00
O324   O     0.81065   0.82845   0.11476   0.00000  Uiso   1.00
O325   O     0.68090   0.82843   0.11477   0.00000  Uiso   1.00
O326   O     0.81910   0.83824   0.21857   0.00000  Uiso   1.00
H327   H     0.89136   0.90950   0.21106   0.00000  Uiso   1.00
H328   H     0.60865   0.75717   0.12222   0.00000  Uiso   1.00
C329   C     0.87416   0.73475   0.09799   0.00000  Uiso   1.00
H330   H     0.87315   0.70201   0.12201   0.00000  Uiso   1.00
H331   H     0.83881   0.74295   0.09043   0.00000  Uiso   1.00
H332   H     0.88553   0.72262   0.05092   0.00000  Uiso   1.00
C333   C     0.62581   0.93188   0.23542   0.00000  Uiso   1.00
H334   H     0.62690   0.96462   0.21141   0.00000  Uiso   1.00
H335   H     0.61435   0.94403   0.28244   0.00000  Uiso   1.00
H336   H     0.66114   0.92366   0.24311   0.00000  Uiso   1.00
C337   C     0.95673   0.67914   0.10645   0.00000  Uiso   1.00
H338   H     0.93718   0.67256   0.14470   0.00000  Uiso   1.00
H339   H     0.93707   0.66846   0.06132   0.00000  Uiso   1.00
H340   H     0.98316   0.98361   0.10310   0.00000  Uiso   1.00
C341   C     0.54327   0.98751   0.22665   0.00000  Uiso   1.00
H342   H     0.56290   0.99826   0.27180   0.00000  Uiso   1.00
H343   H     0.56287   0.99400   0.18840   0.00000  Uiso   1.00
H344   H     0.51685   0.68304   0.22986   0.00000  Uiso   1.00
H345   H     0.74448   0.98657   0.09534   0.00000  Uiso   1.00
H346   H     0.75552   0.68010   0.23799   0.00000  Uiso   1.00
H347   H     0.71502   0.79265   0.31623   0.00000  Uiso   1.00
H348   H     0.78498   0.87402   0.01710   0.00000  Uiso   1.00
C349   C     0.24862   0.06655   0.48438   0.00000  Uiso   1.00
C350   C     0.25138   0.26678   0.51562   0.00000  Uiso   1.00
C351   C     0.02240   0.07479   0.45300   0.00000  Uiso   1.00
C352   C     0.47760   0.25854   0.54690   0.00000  Uiso   1.00
C353   C     0.24806   0.01055   0.47562   0.00000  Uiso   1.00
C354   C     0.25194   0.32279   0.52438   0.00000  Uiso   1.00
C355   C     0.16480   0.16916   0.50143   0.00000  Uiso   1.00
C356   C     0.33520   0.16417   0.49857   0.00000  Uiso   1.00
C357   C     0.40825   0.20771   0.52410   0.00000  Uiso   1.00
C358   C     0.09175   0.12562   0.47586   0.00000  Uiso   1.00
C359   C     0.38318   0.16168   0.49610   0.00000  Uiso   1.00
C360   C     0.11682   0.17164   0.50389   0.00000  Uiso   1.00
C361   C     0.40360   0.11503   0.46843   0.00000  Uiso   1.00
C362   C     0.09639   0.21829   0.53156   0.00000  Uiso   1.00
C363   C     0.45149   0.11511   0.47334   0.00000  Uiso   1.00
C364   C     0.04850   0.21820   0.52659   0.00000  Uiso   1.00
C365   C     0.47640   0.16456   0.49909   0.00000  Uiso   1.00
C366   C     0.02359   0.16876   0.50085   0.00000  Uiso   1.00
C367   C     0.45421   0.21006   0.52382   0.00000  Uiso   1.00
C368   C     0.04579   0.12326   0.47611   0.00000  Uiso   1.00
C369   C     0.47611   0.06901   0.45388   0.00000  Uiso   1.00
C370   C     0.02389   0.26431   0.54600   0.00000  Uiso   1.00
Cu371  Cu    0.25501   0.17246   0.56146   0.00000  Uiso   1.00
Cu372  Cu    0.24500   0.16087   0.43854   0.00000  Uiso   1.00
H373   H     0.04098   0.04030   0.43602   0.00000  Uiso   1.00
H374   H     0.45903   0.29304   0.56385   0.00000  Uiso   1.00
N375   N     0.23745   0.15214   0.34617   0.00000  Uiso   1.00
N376   N     0.26256   0.18119   0.65383   0.00000  Uiso   1.00
O377   O     0.25326   0.09538   0.53992   0.00000  Uiso   1.00
O378   O     0.24675   0.23796   0.46008   0.00000  Uiso   1.00
O379   O     0.24480   0.08559   0.43612   0.00000  Uiso   1.00
O380   O     0.25520   0.24774   0.56388   0.00000  Uiso   1.00
O381   O     0.18936   0.17155   0.55191   0.00000  Uiso   1.00
O382   O     0.31065   0.16179   0.44809   0.00000  Uiso   1.00
O383   O     0.18090   0.16176   0.44810   0.00000  Uiso   1.00
O384   O     0.31910   0.17157   0.55190   0.00000  Uiso   1.00
H385   H     0.39136   0.24283   0.54439   0.00000  Uiso   1.00
H386   H     0.10865   0.09050   0.45556   0.00000  Uiso   1.00
C387   C     0.37416   0.06809   0.43132   0.00000  Uiso   1.00
H388   H     0.37315   0.03534   0.45534   0.00000  Uiso   1.00
H389   H     0.33881   0.07628   0.42377   0.00000  Uiso   1.00
H390   H     0.38553   0.05595   0.38425   0.00000  Uiso   1.00
C391   C     0.12581   0.26521   0.56875   0.00000  Uiso   1.00
H392   H     0.12690   0.29796   0.54474   0.00000  Uiso   1.00
H393   H     0.11435   0.27736   0.61577   0.00000  Uiso   1.00
H394   H     0.16114   0.25699   0.57644   0.00000  Uiso   1.00
C395   C     0.45673   0.01247   0.43978   0.00000  Uiso   1.00
H396   H     0.43718   0.00589   0.47803   0.00000  Uiso   1.00
H397   H     0.43707   0.00180   0.39465   0.00000  Uiso   1.00
H398   H     0.48316   0.31694   0.43643   0.00000  Uiso   1.00
C399   C     0.04327   0.32084   0.55999   0.00000  Uiso   1.00
H400   H     0.06290   0.33160   0.60514   0.00000  Uiso   1.00
H401   H     0.06287   0.32734   0.52173   0.00000  Uiso   1.00
H402   H     0.01685   0.01637   0.56320   0.00000  Uiso   1.00
H403   H     0.24448   0.31991   0.42868   0.00000  Uiso   1.00
H404   H     0.25552   0.01343   0.57132   0.00000  Uiso   1.00
H405   H     0.21502   0.12598   0.64956   0.00000  Uiso   1.00
H406   H     0.28498   0.20736   0.35044   0.00000  Uiso   1.00
C407   C     0.74862   0.06655   0.48438   0.00000  Uiso   1.00
C408   C     0.75138   0.26678   0.51562   0.00000  Uiso   1.00
C409   C     0.52240   0.07479   0.45300   0.00000  Uiso   1.00
C410   C     0.97760   0.25854   0.54690   0.00000  Uiso   1.00
C411   C     0.74806   0.01055   0.47562   0.00000  Uiso   1.00
C412   C     0.75194   0.32279   0.52438   0.00000  Uiso   1.00
C413   C     0.66480   0.16916   0.50143   0.00000  Uiso   1.00
C414   C     0.83520   0.16417   0.49857   0.00000  Uiso   1.00
C415   C     0.90825   0.20771   0.52410   0.00000  Uiso   1.00
C416   C     0.59175   0.12562   0.47586   0.00000  Uiso   1.00
C417   C     0.88318   0.16168   0.49610   0.00000  Uiso   1.00
C418   C     0.61682   0.17164   0.50389   0.00000  Uiso   1.00
C419   C     0.90360   0.11503   0.46843   0.00000  Uiso   1.00
C420   C     0.59639   0.21829   0.53156   0.00000  Uiso   1.00
C421   C     0.95149   0.11511   0.47334   0.00000  Uiso   1.00
C422   C     0.54850   0.21820   0.52659   0.00000  Uiso   1.00
C423   C     0.97640   0.16456   0.49909   0.00000  Uiso   1.00
C424   C     0.52359   0.16876   0.50085   0.00000  Uiso   1.00
C425   C     0.95421   0.21006   0.52382   0.00000  Uiso   1.00
C426   C     0.54579   0.12326   0.47611   0.00000  Uiso   1.00
C427   C     0.97611   0.06901   0.45388   0.00000  Uiso   1.00
C428   C     0.52389   0.26431   0.54600   0.00000  Uiso   1.00
Cu429  Cu    0.75501   0.17246   0.56146   0.00000  Uiso   1.00
Cu430  Cu    0.74500   0.16087   0.43854   0.00000  Uiso   1.00
H431   H     0.54098   0.04030   0.43602   0.00000  Uiso   1.00
H432   H     0.95903   0.29304   0.56385   0.00000  Uiso   1.00
N433   N     0.73745   0.15214   0.34617   0.00000  Uiso   1.00
N434   N     0.76256   0.18119   0.65383   0.00000  Uiso   1.00
O435   O     0.75326   0.09538   0.53992   0.00000  Uiso   1.00
O436   O     0.74675   0.23796   0.46008   0.00000  Uiso   1.00
O437   O     0.74480   0.08559   0.43612   0.00000  Uiso   1.00
O438   O     0.75520   0.24774   0.56388   0.00000  Uiso   1.00
O439   O     0.68936   0.17155   0.55191   0.00000  Uiso   1.00
O440   O     0.81065   0.16179   0.44809   0.00000  Uiso   1.00
O441   O     0.68090   0.16176   0.44810   0.00000  Uiso   1.00
O442   O     0.81910   0.17157   0.55190   0.00000  Uiso   1.00
H443   H     0.89136   0.24283   0.54439   0.00000  Uiso   1.00
H444   H     0.60865   0.09050   0.45556   0.00000  Uiso   1.00
C445   C     0.87416   0.06809   0.43132   0.00000  Uiso   1.00
H446   H     0.87315   0.03534   0.45534   0.00000  Uiso   1.00
H447   H     0.83881   0.07628   0.42377   0.00000  Uiso   1.00
H448   H     0.88553   0.05595   0.38425   0.00000  Uiso   1.00
C449   C     0.62581   0.26521   0.56875   0.00000  Uiso   1.00
H450   H     0.62690   0.29796   0.54474   0.00000  Uiso   1.00
H451   H     0.61435   0.27736   0.61577   0.00000  Uiso   1.00
H452   H     0.66114   0.25699   0.57644   0.00000  Uiso   1.00
C453   C     0.95673   0.01247   0.43978   0.00000  Uiso   1.00
H454   H     0.93718   0.00589   0.47803   0.00000  Uiso   1.00
H455   H     0.93707   0.00180   0.39465   0.00000  Uiso   1.00
H456   H     0.98316   0.31694   0.43643   0.00000  Uiso   1.00
C457   C     0.54327   0.32084   0.55999   0.00000  Uiso   1.00
H458   H     0.56290   0.33160   0.60514   0.00000  Uiso   1.00
H459   H     0.56287   0.32734   0.52173   0.00000  Uiso   1.00
H460   H     0.51685   0.01637   0.56320   0.00000  Uiso   1.00
H461   H     0.74448   0.31991   0.42868   0.00000  Uiso   1.00
H462   H     0.75552   0.01343   0.57132   0.00000  Uiso   1.00
H463   H     0.71502   0.12598   0.64956   0.00000  Uiso   1.00
H464   H     0.78498   0.20736   0.35044   0.00000  Uiso   1.00
C465   C     0.24862   0.39989   0.48438   0.00000  Uiso   1.00
C466   C     0.25138   0.60011   0.51562   0.00000  Uiso   1.00
C467   C     0.02240   0.40813   0.45300   0.00000  Uiso   1.00
C468   C     0.47760   0.59187   0.54690   0.00000  Uiso   1.00
C469   C     0.24806   0.34388   0.47562   0.00000  Uiso   1.00
C470   C     0.25194   0.65612   0.52438   0.00000  Uiso   1.00
C471   C     0.16480   0.50250   0.50143   0.00000  Uiso   1.00
C472   C     0.33520   0.49751   0.49857   0.00000  Uiso   1.00
C473   C     0.40825   0.54104   0.52410   0.00000  Uiso   1.00
C474   C     0.09175   0.45895   0.47586   0.00000  Uiso   1.00
C475   C     0.38318   0.49502   0.49610   0.00000  Uiso   1.00
C476   C     0.11682   0.50497   0.50389   0.00000  Uiso   1.00
C477   C     0.40360   0.44836   0.46843   0.00000  Uiso   1.00
C478   C     0.09639   0.55162   0.53156   0.00000  Uiso   1.00
C479   C     0.45149   0.44845   0.47334   0.00000  Uiso   1.00
C480   C     0.04850   0.55154   0.52659   0.00000  Uiso   1.00
C481   C     0.47640   0.49789   0.49909   0.00000  Uiso   1.00
C482   C     0.02359   0.50210   0.50085   0.00000  Uiso   1.00
C483   C     0.45421   0.54340   0.52382   0.00000  Uiso   1.00
C484   C     0.04579   0.45660   0.47611   0.00000  Uiso   1.00
C485   C     0.47611   0.40235   0.45388   0.00000  Uiso   1.00
C486   C     0.02389   0.59764   0.54600   0.00000  Uiso   1.00
Cu487  Cu    0.25501   0.50579   0.56146   0.00000  Uiso   1.00
Cu488  Cu    0.24500   0.49421   0.43854   0.00000  Uiso   1.00
H489   H     0.04098   0.37364   0.43602   0.00000  Uiso   1.00
H490   H     0.45903   0.62637   0.56385   0.00000  Uiso   1.00
N491   N     0.23745   0.48547   0.34617   0.00000  Uiso   1.00
N492   N     0.26256   0.51453   0.65383   0.00000  Uiso   1.00
O493   O     0.25326   0.42871   0.53992   0.00000  Uiso   1.00
O494   O     0.24675   0.57129   0.46008   0.00000  Uiso   1.00
O495   O     0.24480   0.41892   0.43612   0.00000  Uiso   1.00
O496   O     0.25520   0.58108   0.56388   0.00000  Uiso   1.00
O497   O     0.18936   0.50488   0.55191   0.00000  Uiso   1.00
O498   O     0.31065   0.49512   0.44809   0.00000  Uiso   1.00
O499   O     0.18090   0.49510   0.44810   0.00000  Uiso   1.00
O500   O     0.31910   0.50490   0.55190   0.00000  Uiso   1.00
H501   H     0.39136   0.57616   0.54439   0.00000  Uiso   1.00
H502   H     0.10865   0.42384   0.45556   0.00000  Uiso   1.00
C503   C     0.37416   0.40142   0.43132   0.00000  Uiso   1.00
H504   H     0.37315   0.36868   0.45534   0.00000  Uiso   1.00
H505   H     0.33881   0.40961   0.42377   0.00000  Uiso   1.00
H506   H     0.38553   0.38929   0.38425   0.00000  Uiso   1.00
C507   C     0.12581   0.59855   0.56875   0.00000  Uiso   1.00
H508   H     0.12690   0.63129   0.54474   0.00000  Uiso   1.00
H509   H     0.11435   0.61070   0.61577   0.00000  Uiso   1.00
H510   H     0.16114   0.59032   0.57644   0.00000  Uiso   1.00
C511   C     0.45673   0.34581   0.43978   0.00000  Uiso   1.00
H512   H     0.43718   0.33922   0.47803   0.00000  Uiso   1.00
H513   H     0.43707   0.33513   0.39465   0.00000  Uiso   1.00
H514   H     0.48316   0.65027   0.43643   0.00000  Uiso   1.00
C515   C     0.04327   0.65418   0.55999   0.00000  Uiso   1.00
H516   H     0.06290   0.66493   0.60514   0.00000  Uiso   1.00
H517   H     0.06287   0.66067   0.52173   0.00000  Uiso   1.00
H518   H     0.01685   0.34970   0.56320   0.00000  Uiso   1.00
H519   H     0.24448   0.65324   0.42868   0.00000  Uiso   1.00
H520   H     0.25552   0.34676   0.57132   0.00000  Uiso   1.00
H521   H     0.21502   0.45931   0.64956   0.00000  Uiso   1.00
H522   H     0.28498   0.54069   0.35044   0.00000  Uiso   1.00
C523   C     0.74862   0.39989   0.48438   0.00000  Uiso   1.00
C524   C     0.75138   0.60011   0.51562   0.00000  Uiso   1.00
C525   C     0.52240   0.40813   0.45300   0.00000  Uiso   1.00
C526   C     0.97760   0.59187   0.54690   0.00000  Uiso   1.00
C527   C     0.74806   0.34388   0.47562   0.00000  Uiso   1.00
C528   C     0.75194   0.65612   0.52438   0.00000  Uiso   1.00
C529   C     0.66480   0.50250   0.50143   0.00000  Uiso   1.00
C530   C     0.83520   0.49751   0.49857   0.00000  Uiso   1.00
C531   C     0.90825   0.54104   0.52410   0.00000  Uiso   1.00
C532   C     0.59175   0.45895   0.47586   0.00000  Uiso   1.00
C533   C     0.88318   0.49502   0.49610   0.00000  Uiso   1.00
C534   C     0.61682   0.50497   0.50389   0.00000  Uiso   1.00
C535   C     0.90360   0.44836   0.46843   0.00000  Uiso   1.00
C536   C     0.59639   0.55162   0.53156   0.00000  Uiso   1.00
C537   C     0.95149   0.44845   0.47334   0.00000  Uiso   1.00
C538   C     0.54850   0.55154   0.52659   0.00000  Uiso   1.00
C539   C     0.97640   0.49789   0.49909   0.00000  Uiso   1.00
C540   C     0.52359   0.50210   0.50085   0.00000  Uiso   1.00
C541   C     0.95421   0.54340   0.52382   0.00000  Uiso   1.00
C542   C     0.54579   0.45660   0.47611   0.00000  Uiso   1.00
C543   C     0.97611   0.40235   0.45388   0.00000  Uiso   1.00
C544   C     0.52389   0.59764   0.54600   0.00000  Uiso   1.00
Cu545  Cu    0.75501   0.50579   0.56146   0.00000  Uiso   1.00
Cu546  Cu    0.74500   0.49421   0.43854   0.00000  Uiso   1.00
H547   H     0.54098   0.37364   0.43602   0.00000  Uiso   1.00
H548   H     0.95903   0.62637   0.56385   0.00000  Uiso   1.00
N549   N     0.73745   0.48547   0.34617   0.00000  Uiso   1.00
N550   N     0.76256   0.51453   0.65383   0.00000  Uiso   1.00
O551   O     0.75326   0.42871   0.53992   0.00000  Uiso   1.00
O552   O     0.74675   0.57129   0.46008   0.00000  Uiso   1.00
O553   O     0.74480   0.41892   0.43612   0.00000  Uiso   1.00
O554   O     0.75520   0.58108   0.56388   0.00000  Uiso   1.00
O555   O     0.68936   0.50488   0.55191   0.00000  Uiso   1.00
O556   O     0.81065   0.49512   0.44809   0.00000  Uiso   1.00
O557   O     0.68090   0.49510   0.44810   0.00000  Uiso   1.00
O558   O     0.81910   0.50490   0.55190   0.00000  Uiso   1.00
H559   H     0.89136   0.57616   0.54439   0.00000  Uiso   1.00
H560   H     0.60865   0.42384   0.45556   0.00000  Uiso   1.00
C561   C     0.87416   0.40142   0.43132   0.00000  Uiso   1.00
H562   H     0.87315   0.36868   0.45534   0.00000  Uiso   1.00
H563   H     0.83881   0.40961   0.42377   0.00000  Uiso   1.00
H564   H     0.88553   0.38929   0.38425   0.00000  Uiso   1.00
C565   C     0.62581   0.59855   0.56875   0.00000  Uiso   1.00
H566   H     0.62690   0.63129   0.54474   0.00000  Uiso   1.00
H567   H     0.61435   0.61070   0.61577   0.00000  Uiso   1.00
H568   H     0.66114   0.59032   0.57644   0.00000  Uiso   1.00
C569   C     0.95673   0.34581   0.43978   0.00000  Uiso   1.00
H570   H     0.93718   0.33922   0.47803   0.00000  Uiso   1.00
H571   H     0.93707   0.33513   0.39465   0.00000  Uiso   1.00
H572   H     0.98316   0.65027   0.43643   0.00000  Uiso   1.00
C573   C     0.54327   0.65418   0.55999   0.00000  Uiso   1.00
H574   H     0.56290   0.66493   0.60514   0.00000  Uiso   1.00
H575   H     0.56287   0.66067   0.52173   0.00000  Uiso   1.00
H576   H     0.51685   0.34970   0.56320   0.00000  Uiso   1.00
H577   H     0.74448   0.65324   0.42868   0.00000  Uiso   1.00
H578   H     0.75552   0.34676   0.57132   0.00000  Uiso   1.00
H579   H     0.71502   0.45931   0.64956   0.00000  Uiso   1.00
H580   H     0.78498   0.54069   0.35044   0.00000  Uiso   1.00
C581   C     0.24862   0.73322   0.48438   0.00000  Uiso   1.00
C582   C     0.25138   0.93345   0.51562   0.00000  Uiso   1.00
C583   C     0.02240   0.74146   0.45300   0.00000  Uiso   1.00
C584   C     0.47760   0.92520   0.54690   0.00000  Uiso   1.00
C585   C     0.24806   0.67721   0.47562   0.00000  Uiso   1.00
C586   C     0.25194   0.98945   0.52438   0.00000  Uiso   1.00
C587   C     0.16480   0.83583   0.50143   0.00000  Uiso   1.00
C588   C     0.33520   0.83084   0.49857   0.00000  Uiso   1.00
C589   C     0.40825   0.87437   0.52410   0.00000  Uiso   1.00
C590   C     0.09175   0.79229   0.47586   0.00000  Uiso   1.00
C591   C     0.38318   0.82835   0.49610   0.00000  Uiso   1.00
C592   C     0.11682   0.83831   0.50389   0.00000  Uiso   1.00
C593   C     0.40360   0.78170   0.46843   0.00000  Uiso   1.00
C594   C     0.09639   0.88495   0.53156   0.00000  Uiso   1.00
C595   C     0.45149   0.78178   0.47334   0.00000  Uiso   1.00
C596   C     0.04850   0.88487   0.52659   0.00000  Uiso   1.00
C597   C     0.47640   0.83122   0.49909   0.00000  Uiso   1.00
C598   C     0.02359   0.83543   0.50085   0.00000  Uiso   1.00
C599   C     0.45421   0.87673   0.52382   0.00000  Uiso   1.00
C600   C     0.04579   0.78993   0.47611   0.00000  Uiso   1.00
C601   C     0.47611   0.73568   0.45388   0.00000  Uiso   1.00
C602   C     0.02389   0.93098   0.54600   0.00000  Uiso   1.00
Cu603  Cu    0.25501   0.83913   0.56146   0.00000  Uiso   1.00
Cu604  Cu    0.24500   0.82754   0.43854   0.00000  Uiso   1.00
H605   H     0.04098   0.70697   0.43602   0.00000  Uiso   1.00
H606   H     0.45903   0.95970   0.56385   0.00000  Uiso   1.00
N607   N     0.23745   0.81881   0.34617   0.00000  Uiso   1.00
N608   N     0.26256   0.84786   0.65383   0.00000  Uiso   1.00
O609   O     0.25326   0.76204   0.53992   0.00000  Uiso   1.00
O610   O     0.24675   0.90462   0.46008   0.00000  Uiso   1.00
O611   O     0.24480   0.75226   0.43612   0.00000  Uiso   1.00
O612   O     0.25520   0.91441   0.56388   0.00000  Uiso   1.00
O613   O     0.18936   0.83821   0.55191   0.00000  Uiso   1.00
O614   O     0.31065   0.82845   0.44809   0.00000  Uiso   1.00
O615   O     0.18090   0.82843   0.44810   0.00000  Uiso   1.00
O616   O     0.31910   0.83824   0.55190   0.00000  Uiso   1.00
H617   H     0.39136   0.90950   0.54439   0.00000  Uiso   1.00
H618   H     0.10865   0.75717   0.45556   0.00000  Uiso   1.00
C619   C     0.37416   0.73475   0.43132   0.00000  Uiso   1.00
H620   H     0.37315   0.70201   0.45534   0.00000  Uiso   1.00
H621   H     0.33881   0.74295   0.42377   0.00000  Uiso   1.00
H622   H     0.38553   0.72262   0.38425   0.00000  Uiso   1.00
C623   C     0.12581   0.93188   0.56875   0.00000  Uiso   1.00
H624   H     0.12690   0.96462   0.54474   0.00000  Uiso   1.00
H625   H     0.11435   0.94403   0.61577   0.00000  Uiso   1.00
H626   H     0.16114   0.92366   0.57644   0.00000  Uiso   1.00
C627   C     0.45673   0.67914   0.43978   0.00000  Uiso   1.00
H628   H     0.43718   0.67256   0.47803   0.00000  Uiso   1.00
H629   H     0.43707   0.66846   0.39465   0.00000  Uiso   1.00
H630   H     0.48316   0.98361   0.43643   0.00000  Uiso   1.00
C631   C     0.04327   0.98751   0.55999   0.00000  Uiso   1.00
H632   H     0.06290   0.99826   0.60514   0.00000  Uiso   1.00
H633   H     0.06287   0.99400   0.52173   0.00000  Uiso   1.00
H634   H     0.01685   0.68304   0.56320   0.00000  Uiso   1.00
H635   H     0.24448   0.98657   0.42868   0.00000  Uiso   1.00
H636   H     0.25552   0.68010   0.57132   0.00000  Uiso   1.00
H637   H     0.21502   0.79265   0.64956   0.00000  Uiso   1.00
H638   H     0.28498   0.87402   0.35044   0.00000  Uiso   1.00
C639   C     0.74862   0.73322   0.48438   0.00000  Uiso   1.00
C640   C     0.75138   0.93345   0.51562   0.00000  Uiso   1.00
C641   C     0.52240   0.74146   0.45300   0.00000  Uiso   1.00
C642   C     0.97760   0.92520   0.54690   0.00000  Uiso   1.00
C643   C     0.74806   0.67721   0.47562   0.00000  Uiso   1.00
C644   C     0.75194   0.98945   0.52438   0.00000  Uiso   1.00
C645   C     0.66480   0.83583   0.50143   0.00000  Uiso   1.00
C646   C     0.83520   0.83084   0.49857   0.00000  Uiso   1.00
C647   C     0.90825   0.87437   0.52410   0.00000  Uiso   1.00
C648   C     0.59175   0.79229   0.47586   0.00000  Uiso   1.00
C649   C     0.88318   0.82835   0.49610   0.00000  Uiso   1.00
C650   C     0.61682   0.83831   0.50389   0.00000  Uiso   1.00
C651   C     0.90360   0.78170   0.46843   0.00000  Uiso   1.00
C652   C     0.59639   0.88495   0.53156   0.00000  Uiso   1.00
C653   C     0.95149   0.78178   0.47334   0.00000  Uiso   1.00
C654   C     0.54850   0.88487   0.52659   0.00000  Uiso   1.00
C655   C     0.97640   0.83122   0.49909   0.00000  Uiso   1.00
C656   C     0.52359   0.83543   0.50085   0.00000  Uiso   1.00
C657   C     0.95421   0.87673   0.52382   0.00000  Uiso   1.00
C658   C     0.54579   0.78993   0.47611   0.00000  Uiso   1.00
C659   C     0.97611   0.73568   0.45388   0.00000  Uiso   1.00
C660   C     0.52389   0.93098   0.54600   0.00000  Uiso   1.00
Cu661  Cu    0.75501   0.83913   0.56146   0.00000  Uiso   1.00
Cu662  Cu    0.74500   0.82754   0.43854   0.00000  Uiso   1.00
H663   H     0.54098   0.70697   0.43602   0.00000  Uiso   1.00
H664   H     0.95903   0.95970   0.56385   0.00000  Uiso   1.00
N665   N     0.73745   0.81881   0.34617   0.00000  Uiso   1.00
N666   N     0.76256   0.84786   0.65383   0.00000  Uiso   1.00
O667   O     0.75326   0.76204   0.53992   0.00000  Uiso   1.00
O668   O     0.74675   0.90462   0.46008   0.00000  Uiso   1.00
O669   O     0.74480   0.75226   0.43612   0.00000  Uiso   1.00
O670   O     0.75520   0.91441   0.56388   0.00000  Uiso   1.00
O671   O     0.68936   0.83821   0.55191   0.00000  Uiso   1.00
O672   O     0.81065   0.82845   0.44809   0.00000  Uiso   1.00
O673   O     0.68090   0.82843   0.44810   0.00000  Uiso   1.00
O674   O     0.81910   0.83824   0.55190   0.00000  Uiso   1.00
H675   H     0.89136   0.90950   0.54439   0.00000  Uiso   1.00
H676   H     0.60865   0.75717   0.45556   0.00000  Uiso   1.00
C677   C     0.87416   0.73475   0.43132   0.00000  Uiso   1.00
H678   H     0.87315   0.70201   0.45534   0.00000  Uiso   1.00
H679   H     0.83881   0.74295   0.42377   0.00000  Uiso   1.00
H680   H     0.88553   0.72262   0.38425   0.00000  Uiso   1.00
C681   C     0.62581   0.93188   0.56875   0.00000  Uiso   1.00
H682   H     0.62690   0.96462   0.54474   0.00000  Uiso   1.00
H683   H     0.61435   0.94403   0.61577   0.00000  Uiso   1.00
H684   H     0.66114   0.92366   0.57644   0.00000  Uiso   1.00
C685   C     0.95673   0.67914   0.43978   0.00000  Uiso   1.00
H686   H     0.93718   0.67256   0.47803   0.00000  Uiso   1.00
H687   H     0.93707   0.66846   0.39465   0.00000  Uiso   1.00
H688   H     0.98316   0.98361   0.43643   0.00000  Uiso   1.00
C689   C     0.54327   0.98751   0.55999   0.00000  Uiso   1.00
H690   H     0.56290   0.99826   0.60514   0.00000  Uiso   1.00
H691   H     0.56287   0.99400   0.52173   0.00000  Uiso   1.00
H692   H     0.51685   0.68304   0.56320   0.00000  Uiso   1.00
H693   H     0.74448   0.98657   0.42868   0.00000  Uiso   1.00
H694   H     0.75552   0.68010   0.57132   0.00000  Uiso   1.00
H695   H     0.71502   0.79265   0.64956   0.00000  Uiso   1.00
H696   H     0.78498   0.87402   0.35044   0.00000  Uiso   1.00
C697   C     0.24862   0.06655   0.81771   0.00000  Uiso   1.00
C698   C     0.25138   0.26678   0.84895   0.00000  Uiso   1.00
C699   C     0.02240   0.07479   0.78633   0.00000  Uiso   1.00
C700   C     0.47760   0.25854   0.88023   0.00000  Uiso   1.00
C701   C     0.24806   0.01055   0.80895   0.00000  Uiso   1.00
C702   C     0.25194   0.32279   0.85772   0.00000  Uiso   1.00
C703   C     0.16480   0.16916   0.83476   0.00000  Uiso   1.00
C704   C     0.33520   0.16417   0.83191   0.00000  Uiso   1.00
C705   C     0.40825   0.20771   0.85743   0.00000  Uiso   1.00
C706   C     0.09175   0.12562   0.80919   0.00000  Uiso   1.00
C707   C     0.38318   0.16168   0.82944   0.00000  Uiso   1.00
C708   C     0.11682   0.17164   0.83722   0.00000  Uiso   1.00
C709   C     0.40360   0.11503   0.80177   0.00000  Uiso   1.00
C710   C     0.09639   0.21829   0.86489   0.00000  Uiso   1.00
C711   C     0.45149   0.11511   0.80667   0.00000  Uiso   1.00
C712   C     0.04850   0.21820   0.85993   0.00000  Uiso   1.00
C713   C     0.47640   0.16456   0.83242   0.00000  Uiso   1.00
C714   C     0.02359   0.16876   0.83418   0.00000  Uiso   1.00
C715   C     0.45421   0.21006   0.85716   0.00000  Uiso   1.00
C716   C     0.04579   0.12326   0.80944   0.00000  Uiso   1.00
C717   C     0.47611   0.06901   0.78721   0.00000  Uiso   1.00
C718   C     0.02389   0.26431   0.87934   0.00000  Uiso   1.00
Cu719  Cu    0.25501   0.17246   0.89479   0.00000  Uiso   1.00
Cu720  Cu    0.24500   0.16087   0.77187   0.00000  Uiso   1.00
H721   H     0.04098   0.04030   0.76935   0.00000  Uiso   1.00
H722   H     0.45903   0.29304   0.89719   0.00000  Uiso   1.00
N723   N     0.23745   0.15214   0.67951   0.00000  Uiso   1.00
N724   N     0.26256   0.18119   0.98716   0.00000  Uiso   1.00
O725   O     0.25326   0.09538   0.87326   0.00000  Uiso   1.00
O726   O     0.24675   0.23796   0.79341   0.00000  Uiso   1.00
O727   O     0.24480   0.08559   0.76945   0.00000  Uiso   1.00
O728   O     0.25520   0.24774   0.89721   0.00000  Uiso   1.00
O729   O     0.18936   0.17155   0.88524   0.00000  Uiso   1.00
O730   O     0.31065   0.16179   0.78143   0.00000  Uiso   1.00
O731   O     0.18090   0.16176   0.78143   0.00000  Uiso   1.00
O732   O     0.31910   0.17157   0.88523   0.00000  Uiso   1.00
H733   H     0.39136   0.24283   0.87773   0.00000  Uiso   1.00
H734   H     0.10865   0.09050   0.78889   0.00000  Uiso   1.00
C735   C     0.37416   0.06809   0.76466   0.00000  Uiso   1.00
H736   H     0.37315   0.03534   0.78867   0.00000  Uiso   1.00
H737   H     0.33881   0.07628   0.75710   0.00000  Uiso   1.00
H738   H     0.38553   0.05595   0.71759   0.00000  Uiso   1.00
C739   C     0.12581   0.26521   0.90209   0.00000  Uiso   1.00
H740   H     0.12690   0.29796   0.87807   0.00000  Uiso   1.00
H741   H     0.11435   0.27736   0.94911   0.00000  Uiso   1.00
H742   H     0.16114   0.25699   0.90978   0.00000  Uiso   1.00
C743   C     0.45673   0.01247   0.77311   0.00000  Uiso   1.00
H744   H     0.43718   0.00589   0.81137   0.00000  Uiso   1.00
H745   H     0.43707   0.00180   0.72799   0.00000  Uiso   1.00
H746   H     0.48316   0.31694   0.76976   0.00000  Uiso   1.00
C747   C     0.04327   0.32084   0.89332   0.00000  Uiso   1.00
H748   H     0.06290   0.33160   0.93847   0.00000  Uiso   1.00
H749   H     0.06287   0.32734   0.85507   0.00000  Uiso   1.00
H750   H     0.01685   0.01637   0.89653   0.00000  Uiso   1.00
H751   H     0.24448   0.31991   0.76201   0.00000  Uiso   1.00
H752   H     0.25552   0.01343   0.90466   0.00000  Uiso   1.00
H753   H     0.21502   0.12598   0.98290   0.00000  Uiso   1.00
H754   H     0.28498   0.20736   0.68377   0.00000  Uiso   1.00
C755   C     0.74862   0.06655   0.81771   0.00000  Uiso   1.00
C756   C     0.75138   0.26678   0.84895   0.00000  Uiso   1.00
C757   C     0.52240   0.07479   0.78633   0.00000  Uiso   1.00
C758   C     0.97760   0.25854   0.88023   0.00000  Uiso   1.00
C759   C     0.74806   0.01055   0.80895   0.00000  Uiso   1.00
C760   C     0.75194   0.32279   0.85772   0.00000  Uiso   1.00
C761   C     0.66480   0.16916   0.83476   0.00000  Uiso   1.00
C762   C     0.83520   0.16417   0.83191   0.00000  Uiso   1.00
C763   C     0.90825   0.20771   0.85743   0.00000  Uiso   1.00
C764   C     0.59175   0.12562   0.80919   0.00000  Uiso   1.00
C765   C     0.88318   0.16168   0.82944   0.00000  Uiso   1.00
C766   C     0.61682   0.17164   0.83722   0.00000  Uiso   1.00
C767   C     0.90360   0.11503   0.80177   0.00000  Uiso   1.00
C768   C     0.59639   0.21829   0.86489   0.00000  Uiso   1.00
C769   C     0.95149   0.11511   0.80667   0.00000  Uiso   1.00
C770   C     0.54850   0.21820   0.85993   0.00000  Uiso   1.00
C771   C     0.97640   0.16456   0.83242   0.00000  Uiso   1.00
C772   C     0.52359   0.16876   0.83418   0.00000  Uiso   1.00
C773   C     0.95421   0.21006   0.85716   0.00000  Uiso   1.00
C774   C     0.54579   0.12326   0.80944   0.00000  Uiso   1.00
C775   C     0.97611   0.06901   0.78721   0.00000  Uiso   1.00
C776   C     0.52389   0.26431   0.87934   0.00000  Uiso   1.00
Cu777  Cu    0.75501   0.17246   0.89479   0.00000  Uiso   1.00
Cu778  Cu    0.74500   0.16087   0.77187   0.00000  Uiso   1.00
H779   H     0.54098   0.04030   0.76935   0.00000  Uiso   1.00
H780   H     0.95903   0.29304   0.89719   0.00000  Uiso   1.00
N781   N     0.73745   0.15214   0.67951   0.00000  Uiso   1.00
N782   N     0.76256   0.18119   0.98716   0.00000  Uiso   1.00
O783   O     0.75326   0.09538   0.87326   0.00000  Uiso   1.00
O784   O     0.74675   0.23796   0.79341   0.00000  Uiso   1.00
O785   O     0.74480   0.08559   0.76945   0.00000  Uiso   1.00
O786   O     0.75520   0.24774   0.89721   0.00000  Uiso   1.00
O787   O     0.68936   0.17155   0.88524   0.00000  Uiso   1.00
O788   O     0.81065   0.16179   0.78143   0.00000  Uiso   1.00
O789   O     0.68090   0.16176   0.78143   0.00000  Uiso   1.00
O790   O     0.81910   0.17157   0.88523   0.00000  Uiso   1.00
H791   H     0.89136   0.24283   0.87773   0.00000  Uiso   1.00
H792   H     0.60865   0.09050   0.78889   0.00000  Uiso   1.00
C793   C     0.87416   0.06809   0.76466   0.00000  Uiso   1.00
H794   H     0.87315   0.03534   0.78867   0.00000  Uiso   1.00
H795   H     0.83881   0.07628   0.75710   0.00000  Uiso   1.00
H796   H     0.88553   0.05595   0.71759   0.00000  Uiso   1.00
C797   C     0.62581   0.26521   0.90209   0.00000  Uiso   1.00
H798   H     0.62690   0.29796   0.87807   0.00000  Uiso   1.00
H799   H     0.61435   0.27736   0.94911   0.00000  Uiso   1.00
H800   H     0.66114   0.25699   0.90978   0.00000  Uiso   1.00
C801   C     0.95673   0.01247   0.77311   0.00000  Uiso   1.00
H802   H     0.93718   0.00589   0.81137   0.00000  Uiso   1.00
H803   H     0.93707   0.00180   0.72799   0.00000  Uiso   1.00
H804   H     0.98316   0.31694   0.76976   0.00000  Uiso   1.00
C805   C     0.54327   0.32084   0.89332   0.00000  Uiso   1.00
H806   H     0.56290   0.33160   0.93847   0.00000  Uiso   1.00
H807   H     0.56287   0.32734   0.85507   0.00000  Uiso   1.00
H808   H     0.51685   0.01637   0.89653   0.00000  Uiso   1.00
H809   H     0.74448   0.31991   0.76201   0.00000  Uiso   1.00
H810   H     0.75552   0.01343   0.90466   0.00000  Uiso   1.00
H811   H     0.71502   0.12598   0.98290   0.00000  Uiso   1.00
H812   H     0.78498   0.20736   0.68377   0.00000  Uiso   1.00
C813   C     0.24862   0.39989   0.81771   0.00000  Uiso   1.00
C814   C     0.25138   0.60011   0.84895   0.00000  Uiso   1.00
C815   C     0.02240   0.40813   0.78633   0.00000  Uiso   1.00
C816   C     0.47760   0.59187   0.88023   0.00000  Uiso   1.00
C817   C     0.24806   0.34388   0.80895   0.00000  Uiso   1.00
C818   C     0.25194   0.65612   0.85772   0.00000  Uiso   1.00
C819   C     0.16480   0.50250   0.83476   0.00000  Uiso   1.00
C820   C     0.33520   0.49751   0.83191   0.00000  Uiso   1.00
C821   C     0.40825   0.54104   0.85743   0.00000  Uiso   1.00
C822   C     0.09175   0.45895   0.80919   0.00000  Uiso   1.00
C823   C     0.38318   0.49502   0.82944   0.00000  Uiso   1.00
C824   C     0.11682   0.50497   0.83722   0.00000  Uiso   1.00
C825   C     0.40360   0.44836   0.80177   0.00000  Uiso   1.00
C826   C     0.09639   0.55162   0.86489   0.00000  Uiso   1.00
C827   C     0.45149   0.44845   0.80667   0.00000  Uiso   1.00
C828   C     0.04850   0.55154   0.85993   0.00000  Uiso   1.00
C829   C     0.47640   0.49789   0.83242   0.00000  Uiso   1.00
C830   C     0.02359   0.50210   0.83418   0.00000  Uiso   1.00
C831   C     0.45421   0.54340   0.85716   0.00000  Uiso   1.00
C832   C     0.04579   0.45660   0.80944   0.00000  Uiso   1.00
C833   C     0.47611   0.40235   0.78721   0.00000  Uiso   1.00
C834   C     0.02389   0.59764   0.87934   0.00000  Uiso   1.00
Cu835  Cu    0.25501   0.50579   0.89479   0.00000  Uiso   1.00
Cu836  Cu    0.24500   0.49421   0.77187   0.00000  Uiso   1.00
H837   H     0.04098   0.37364   0.76935   0.00000  Uiso   1.00
H838   H     0.45903   0.62637   0.89719   0.00000  Uiso   1.00
N839   N     0.23745   0.48547   0.67951   0.00000  Uiso   1.00
N840   N     0.26256   0.51453   0.98716   0.00000  Uiso   1.00
O841   O     0.25326   0.42871   0.87326   0.00000  Uiso   1.00
O842   O     0.24675   0.57129   0.79341   0.00000  Uiso   1.00
O843   O     0.24480   0.41892   0.76945   0.00000  Uiso   1.00
O844   O     0.25520   0.58108   0.89721   0.00000  Uiso   1.00
O845   O     0.18936   0.50488   0.88524   0.00000  Uiso   1.00
O846   O     0.31065   0.49512   0.78143   0.00000  Uiso   1.00
O847   O     0.18090   0.49510   0.78143   0.00000  Uiso   1.00
O848   O     0.31910   0.50490   0.88523   0.00000  Uiso   1.00
H849   H     0.39136   0.57616   0.87773   0.00000  Uiso   1.00
H850   H     0.10865   0.42384   0.78889   0.00000  Uiso   1.00
C851   C     0.37416   0.40142   0.76466   0.00000  Uiso   1.00
H852   H     0.37315   0.36868   0.78867   0.00000  Uiso   1.00
H853   H     0.33881   0.40961   0.75710   0.00000  Uiso   1.00
H854   H     0.38553   0.38929   0.71759   0.00000  Uiso   1.00
C855   C     0.12581   0.59855   0.90209   0.00000  Uiso   1.00
H856   H     0.12690   0.63129   0.87807   0.00000  Uiso   1.00
H857   H     0.11435   0.61070   0.94911   0.00000  Uiso   1.00
H858   H     0.16114   0.59032   0.90978   0.00000  Uiso   1.00
C859   C     0.45673   0.34581   0.77311   0.00000  Uiso   1.00
H860   H     0.43718   0.33922   0.81137   0.00000  Uiso   1.00
H861   H     0.43707   0.33513   0.72799   0.00000  Uiso   1.00
H862   H     0.48316   0.65027   0.76976   0.00000  Uiso   1.00
C863   C     0.04327   0.65418   0.89332   0.00000  Uiso   1.00
H864   H     0.06290   0.66493   0.93847   0.00000  Uiso   1.00
H865   H     0.06287   0.66067   0.85507   0.00000  Uiso   1.00
H866   H     0.01685   0.34970   0.89653   0.00000  Uiso   1.00
H867   H     0.24448   0.65324   0.76201   0.00000  Uiso   1.00
H868   H     0.25552   0.34676   0.90466   0.00000  Uiso   1.00
H869   H     0.21502   0.45931   0.98290   0.00000  Uiso   1.00
H870   H     0.28498   0.54069   0.68377   0.00000  Uiso   1.00
C871   C     0.74862   0.39989   0.81771   0.00000  Uiso   1.00
C872   C     0.75138   0.60011   0.84895   0.00000  Uiso   1.00
C873   C     0.52240   0.40813   0.78633   0.00000  Uiso   1.00
C874   C     0.97760   0.59187   0.88023   0.00000  Uiso   1.00
C875   C     0.74806   0.34388   0.80895   0.00000  Uiso   1.00
C876   C     0.75194   0.65612   0.85772   0.00000  Uiso   1.00
C877   C     0.66480   0.50250   0.83476   0.00000  Uiso   1.00
C878   C     0.83520   0.49751   0.83191   0.00000  Uiso   1.00
C879   C     0.90825   0.54104   0.85743   0.00000  Uiso   1.00
C880   C     0.59175   0.45895   0.80919   0.00000  Uiso   1.00
C881   C     0.88318   0.49502   0.82944   0.00000  Uiso   1.00
C882   C     0.61682   0.50497   0.83722   0.00000  Uiso   1.00
C883   C     0.90360   0.44836   0.80177   0.00000  Uiso   1.00
C884   C     0.59639   0.55162   0.86489   0.00000  Uiso   1.00
C885   C     0.95149   0.44845   0.80667   0.00000  Uiso   1.00
C886   C     0.54850   0.55154   0.85993   0.00000  Uiso   1.00
C887   C     0.97640   0.49789   0.83242   0.00000  Uiso   1.00
C888   C     0.52359   0.50210   0.83418   0.00000  Uiso   1.00
C889   C     0.95421   0.54340   0.85716   0.00000  Uiso   1.00
C890   C     0.54579   0.45660   0.80944   0.00000  Uiso   1.00
C891   C     0.97611   0.40235   0.78721   0.00000  Uiso   1.00
C892   C     0.52389   0.59764   0.87934   0.00000  Uiso   1.00
Cu893  Cu    0.75501   0.50579   0.89479   0.00000  Uiso   1.00
Cu894  Cu    0.74500   0.49421   0.77187   0.00000  Uiso   1.00
H895   H     0.54098   0.37364   0.76935   0.00000  Uiso   1.00
H896   H     0.95903   0.62637   0.89719   0.00000  Uiso   1.00
N897   N     0.73745   0.48547   0.67951   0.00000  Uiso   1.00
N898   N     0.76256   0.51453   0.98716   0.00000  Uiso   1.00
O899   O     0.75326   0.42871   0.87326   0.00000  Uiso   1.00
O900   O     0.74675   0.57129   0.79341   0.00000  Uiso   1.00
O901   O     0.74480   0.41892   0.76945   0.00000  Uiso   1.00
O902   O     0.75520   0.58108   0.89721   0.00000  Uiso   1.00
O903   O     0.68936   0.50488   0.88524   0.00000  Uiso   1.00
O904   O     0.81065   0.49512   0.78143   0.00000  Uiso   1.00
O905   O     0.68090   0.49510   0.78143   0.00000  Uiso   1.00
O906   O     0.81910   0.50490   0.88523   0.00000  Uiso   1.00
H907   H     0.89136   0.57616   0.87773   0.00000  Uiso   1.00
H908   H     0.60865   0.42384   0.78889   0.00000  Uiso   1.00
C909   C     0.87416   0.40142   0.76466   0.00000  Uiso   1.00
H910   H     0.87315   0.36868   0.78867   0.00000  Uiso   1.00
H911   H     0.83881   0.40961   0.75710   0.00000  Uiso   1.00
H912   H     0.88553   0.38929   0.71759   0.00000  Uiso   1.00
C913   C     0.62581   0.59855   0.90209   0.00000  Uiso   1.00
H914   H     0.62690   0.63129   0.87807   0.00000  Uiso   1.00
H915   H     0.61435   0.61070   0.94911   0.00000  Uiso   1.00
H916   H     0.66114   0.59032   0.90978   0.00000  Uiso   1.00
C917   C     0.95673   0.34581   0.77311   0.00000  Uiso   1.00
H918   H     0.93718   0.33922   0.81137   0.00000  Uiso   1.00
H919   H     0.93707   0.33513   0.72799   0.00000  Uiso   1.00
H920   H     0.98316   0.65027   0.76976   0.00000  Uiso   1.00
C921   C     0.54327   0.65418   0.89332   0.00000  Uiso   1.00
H922   H     0.56290   0.66493   0.93847   0.00000  Uiso   1.00
H923   H     0.56287   0.66067   0.85507   0.00000  Uiso   1.00
H924   H     0.51685   0.34970   0.89653   0.00000  Uiso   1.00
H925   H     0.74448   0.65324   0.76201   0.00000  Uiso   1.00
H926   H     0.75552   0.34676   0.90466   0.00000  Uiso   1.00
H927   H     0.71502   0.45931   0.98290   0.00000  Uiso   1.00
H928   H     0.78498   0.54069   0.68377   0.00000  Uiso   1.00
C929   C     0.24862   0.73322   0.81771   0.00000  Uiso   1.00
C930   C     0.25138   0.93345   0.84895   0.00000  Uiso   1.00
C931   C     0.02240   0.74146   0.78633   0.00000  Uiso   1.00
C932   C     0.47760   0.92520   0.88023   0.00000  Uiso   1.00
C933   C     0.24806   0.67721   0.80895   0.00000  Uiso   1.00
C934   C     0.25194   0.98945   0.85772   0.00000  Uiso   1.00
C935   C     0.16480   0.83583   0.83476   0.00000  Uiso   1.00
C936   C     0.33520   0.83084   0.83191   0.00000  Uiso   1.00
C937   C     0.40825   0.87437   0.85743   0.00000  Uiso   1.00
C938   C     0.09175   0.79229   0.80919   0.00000  Uiso   1.00
C939   C     0.38318   0.82835   0.82944   0.00000  Uiso   1.00
C940   C     0.11682   0.83831   0.83722   0.00000  Uiso   1.00
C941   C     0.40360   0.78170   0.80177   0.00000  Uiso   1.00
C942   C     0.09639   0.88495   0.86489   0.00000  Uiso   1.00
C943   C     0.45149   0.78178   0.80667   0.00000  Uiso   1.00
C944   C     0.04850   0.88487   0.85993   0.00000  Uiso   1.00
C945   C     0.47640   0.83122   0.83242   0.00000  Uiso   1.00
C946   C     0.02359   0.83543   0.83418   0.00000  Uiso   1.00
C947   C     0.45421   0.87673   0.85716   0.00000  Uiso   1.00
C948   C     0.04579   0.78993   0.80944   0.00000  Uiso   1.00
C949   C     0.47611   0.73568   0.78721   0.00000  Uiso   1.00
C950   C     0.02389   0.93098   0.87934   0.00000  Uiso   1.00
Cu951  Cu    0.25501   0.83913   0.89479   0.00000  Uiso   1.00
Cu952  Cu    0.24500   0.82754   0.77187   0.00000  Uiso   1.00
H953   H     0.04098   0.70697   0.76935   0.00000  Uiso   1.00
H954   H     0.45903   0.95970   0.89719   0.00000  Uiso   1.00
N955   N     0.23745   0.81881   0.67951   0.00000  Uiso   1.00
N956   N     0.26256   0.84786   0.98716   0.00000  Uiso   1.00
O957   O     0.25326   0.76204   0.87326   0.00000  Uiso   1.00
O958   O     0.24675   0.90462   0.79341   0.00000  Uiso   1.00
O959   O     0.24480   0.75226   0.76945   0.00000  Uiso   1.00
O960   O     0.25520   0.91441   0.89721   0.00000  Uiso   1.00
O961   O     0.18936   0.83821   0.88524   0.00000  Uiso   1.00
O962   O     0.31065   0.82845   0.78143   0.00000  Uiso   1.00
O963   O     0.18090   0.82843   0.78143   0.00000  Uiso   1.00
O964   O     0.31910   0.83824   0.88523   0.00000  Uiso   1.00
H965   H     0.39136   0.90950   0.87773   0.00000  Uiso   1.00
H966   H     0.10865   0.75717   0.78889   0.00000  Uiso   1.00
C967   C     0.37416   0.73475   0.76466   0.00000  Uiso   1.00
H968   H     0.37315   0.70201   0.78867   0.00000  Uiso   1.00
H969   H     0.33881   0.74295   0.75710   0.00000  Uiso   1.00
H970   H     0.38553   0.72262   0.71759   0.00000  Uiso   1.00
C971   C     0.12581   0.93188   0.90209   0.00000  Uiso   1.00
H972   H     0.12690   0.96462   0.87807   0.00000  Uiso   1.00
H973   H     0.11435   0.94403   0.94911   0.00000  Uiso   1.00
H974   H     0.16114   0.92366   0.90978   0.00000  Uiso   1.00
C975   C     0.45673   0.67914   0.77311   0.00000  Uiso   1.00
H976   H     0.43718   0.67256   0.81137   0.00000  Uiso   1.00
H977   H     0.43707   0.66846   0.72799   0.00000  Uiso   1.00
H978   H     0.48316   0.98361   0.76976   0.00000  Uiso   1.00
C979   C     0.04327   0.98751   0.89332   0.00000  Uiso   1.00
H980   H     0.06290   0.99826   0.93847   0.00000  Uiso   1.00
H981   H     0.06287   0.99400   0.85507   0.00000  Uiso   1.00
H982   H     0.01685   0.68304   0.89653   0.00000  Uiso   1.00
H983   H     0.24448   0.98657   0.76201   0.00000  Uiso   1.00
H984   H     0.25552   0.68010   0.90466   0.00000  Uiso   1.00
H985   H     0.21502   0.79265   0.98290   0.00000  Uiso   1.00
H986   H     0.28498   0.87402   0.68377   0.00000  Uiso   1.00
C987   C     0.74862   0.73322   0.81771   0.00000  Uiso   1.00
C988   C     0.75138   0.93345   0.84895   0.00000  Uiso   1.00
C989   C     0.52240   0.74146   0.78633   0.00000  Uiso   1.00
C990   C     0.97760   0.92520   0.88023   0.00000  Uiso   1.00
C991   C     0.74806   0.67721   0.80895   0.00000  Uiso   1.00
C992   C     0.75194   0.98945   0.85772   0.00000  Uiso   1.00
C993   C     0.66480   0.83583   0.83476   0.00000  Uiso   1.00
C994   C     0.83520   0.83084   0.83191   0.00000  Uiso   1.00
C995   C     0.90825   0.87437   0.85743   0.00000  Uiso   1.00
C996   C     0.59175   0.79229   0.80919   0.00000  Uiso   1.00
C997   C     0.88318   0.82835   0.82944   0.00000  Uiso   1.00
C998   C     0.61682   0.83831   0.83722   0.00000  Uiso   1.00
C999   C     0.90360   0.78170   0.80177   0.00000  Uiso   1.00
C1000  C     0.59639   0.88495   0.86489   0.00000  Uiso   1.00
C1001  C     0.95149   0.78178   0.80667   0.00000  Uiso   1.00
C1002  C     0.54850   0.88487   0.85993   0.00000  Uiso   1.00
C1003  C     0.97640   0.83122   0.83242   0.00000  Uiso   1.00
C1004  C     0.52359   0.83543   0.83418   0.00000  Uiso   1.00
C1005  C     0.95421   0.87673   0.85716   0.00000  Uiso   1.00
C1006  C     0.54579   0.78993   0.80944   0.00000  Uiso   1.00
C1007  C     0.97611   0.73568   0.78721   0.00000  Uiso   1.00
C1008  C     0.52389   0.93098   0.87934   0.00000  Uiso   1.00
Cu1009 Cu    0.75501   0.83913   0.89479   0.00000  Uiso   1.00
Cu1010 Cu    0.74500   0.82754   0.77187   0.00000  Uiso   1.00
H1011  H     0.54098   0.70697   0.76935   0.00000  Uiso   1.00
H1012  H     0.95903   0.95970   0.89719   0.00000  Uiso   1.00
N1013  N     0.73745   0.81881   0.67951   0.00000  Uiso   1.00
N1014  N     0.76256   0.84786   0.98716   0.00000  Uiso   1.00
O1015  O     0.75326   0.76204   0.87326   0.00000  Uiso   1.00
O1016  O     0.74675   0.90462   0.79341   0.00000  Uiso   1.00
O1017  O     0.74480   0.75226   0.76945   0.00000  Uiso   1.00
O1018  O     0.75520   0.91441   0.89721   0.00000  Uiso   1.00
O1019  O     0.68936   0.83821   0.88524   0.00000  Uiso   1.00
O1020  O     0.81065   0.82845   0.78143   0.00000  Uiso   1.00
O1021  O     0.68090   0.82843   0.78143   0.00000  Uiso   1.00
O1022  O     0.81910   0.83824   0.88523   0.00000  Uiso   1.00
H1023  H     0.89136   0.90950   0.87773   0.00000  Uiso   1.00
H1024  H     0.60865   0.75717   0.78889   0.00000  Uiso   1.00
C1025  C     0.87416   0.73475   0.76466   0.00000  Uiso   1.00
H1026  H     0.87315   0.70201   0.78867   0.00000  Uiso   1.00
H1027  H     0.83881   0.74295   0.75710   0.00000  Uiso   1.00
H1028  H     0.88553   0.72262   0.71759   0.00000  Uiso   1.00
C1029  C     0.62581   0.93188   0.90209   0.00000  Uiso   1.00
H1030  H     0.62690   0.96462   0.87807   0.00000  Uiso   1.00
H1031  H     0.61435   0.94403   0.94911   0.00000  Uiso   1.00
H1032  H     0.66114   0.92366   0.90978   0.00000  Uiso   1.00
C1033  C     0.95673   0.67914   0.77311   0.00000  Uiso   1.00
H1034  H     0.93718   0.67256   0.81137   0.00000  Uiso   1.00
H1035  H     0.93707   0.66846   0.72799   0.00000  Uiso   1.00
H1036  H     0.98316   0.98361   0.76976   0.00000  Uiso   1.00
C1037  C     0.54327   0.98751   0.89332   0.00000  Uiso   1.00
H1038  H     0.56290   0.99826   0.93847   0.00000  Uiso   1.00
H1039  H     0.56287   0.99400   0.85507   0.00000  Uiso   1.00
H1040  H     0.51685   0.68304   0.89653   0.00000  Uiso   1.00
H1041  H     0.74448   0.98657   0.76201   0.00000  Uiso   1.00
H1042  H     0.75552   0.68010   0.90466   0.00000  Uiso   1.00
H1043  H     0.71502   0.79265   0.98290   0.00000  Uiso   1.00
H1044  H     0.78498   0.87402   0.68377   0.00000  Uiso   1.00
loop_
_geom_bond_atom_site_label_1
_geom_bond_atom_site_label_2
_geom_bond_distance
_geom_bond_site_symmetry_2
_ccdc_geom_bond_type
C1     O31     1.285   .     A
C1     C5      1.425   .     S
C1     O29     1.291   .     A
C2     C6      1.425   .     S
C2     O30     1.291   .     A
C2     O32     1.285   .     A
C3     C20     1.389   .     A
C3     H25     1.086   .     S
C3     C79     1.394   1_455 S
C4     H26     1.086   .     S
C4     C19     1.389   .     A
C4     C80     1.394   .     S
C5     C238    1.327   1_545 S
C5     H287    1.088   1_545 S
C6     C121    1.327   .     S
C6     H172    1.088   .     S
C7     C12     1.449   .     S
C7     O33     1.294   .     A
C7     O35     1.292   .     A
C8     O34     1.294   .     A
C8     C11     1.449   .     S
C8     O36     1.292   .     A
C9     H37     1.087   .     S
C9     C11     1.383   .     A
C9     C19     1.380   .     A
C10    H38     1.087   .     S
C10    C12     1.383   .     A
C10    C20     1.380   .     A
C11    C13     1.417   .     A
C12    C14     1.417   .     A
C13    C15     1.436   .     A
C13    C39     1.520   .     S
C14    C16     1.436   .     A
C14    C43     1.520   .     S
C15    C21     1.435   .     A
C15    C17     1.439   .     A
C16    C18     1.439   .     A
C16    C22     1.435   .     A
C17    C19     1.405   .     A
C17    C76     1.414   .     S
C18    C20     1.405   .     A
C18    C75     1.414   1_455 S
C21    C47     1.515   .     S
C21    C61     1.394   .     S
C22    C51     1.514   .     S
C22    C62     1.394   1_455 S
Cu23   Cu24    2.689   .     S
Cu23   O32     1.947   .     S
Cu23   N28     2.020   .     S
Cu23   O29     1.952   .     S
Cu23   O36     1.952   .     S
Cu23   O33     1.968   .     S
Cu24   N27     2.020   .     S
Cu24   O31     1.947   .     S
Cu24   O35     1.952   .     S
Cu24   O30     1.952   .     S
Cu24   O34     1.968   .     S
N27    N724    1.293   1_554 S
N27    H753    1.029   1_554 S
N28    N375    1.293   .     S
N28    H406    1.029   .     S
C39    H42     1.108   .     S
C39    H41     1.102   .     S
C39    H40     1.105   .     S
C43    H45     1.108   .     S
C43    H44     1.105   .     S
C43    H46     1.102   .     S
C47    H48     1.108   .     S
C47    H49     1.106   .     S
C47    H282    1.111   1_545 S
H50    C163    1.111   .     S
C51    H52     1.106   .     S
C51    H53     1.108   .     S
C51    H170    1.111   .     S
H54    C283    1.111   1_545 S
H55    C121    1.088   .     S
H56    C238    1.088   1_545 S
H57    N375    1.029   .     S
H58    N724    1.029   1_554 S
C59    O89     1.285   .     A
C59    C63     1.425   .     S
C59    O87     1.291   .     A
C60    C64     1.425   .     S
C60    O88     1.291   .     A
C60    O90     1.285   .     A
C61    C78     1.389   .     A
C61    H83     1.086   .     S
C62    H84     1.086   .     S
C62    C77     1.389   .     A
C62    C22     1.394   1_655 S
C63    C296    1.327   1_545 S
C63    H345    1.088   1_545 S
C64    C179    1.327   .     S
C64    H230    1.088   .     S
C65    C70     1.449   .     S
C65    O91     1.294   .     A
C65    O93     1.292   .     A
C66    O92     1.294   .     A
C66    C69     1.449   .     S
C66    O94     1.292   .     A
C67    H95     1.087   .     S
C67    C69     1.383   .     A
C67    C77     1.380   .     A
C68    H96     1.087   .     S
C68    C70     1.383   .     A
C68    C78     1.380   .     A
C69    C71     1.417   .     A
C70    C72     1.417   .     A
C71    C73     1.436   .     A
C71    C97     1.520   .     S
C72    C74     1.436   .     A
C72    C101    1.520   .     S
C73    C79     1.435   .     A
C73    C75     1.439   .     A
C74    C76     1.439   .     A
C74    C80     1.435   .     A
C75    C77     1.405   .     A
C75    C18     1.414   1_655 S
C76    C78     1.405   .     A
C79    C105    1.515   .     S
C79    C3      1.394   1_655 S
C80    C109    1.514   .     S
Cu81   Cu82    2.689   .     S
Cu81   O90     1.947   .     S
Cu81   N86     2.020   .     S
Cu81   O87     1.952   .     S
Cu81   O94     1.952   .     S
Cu81   O91     1.968   .     S
Cu82   N85     2.020   .     S
Cu82   O89     1.947   .     S
Cu82   O93     1.952   .     S
Cu82   O88     1.952   .     S
Cu82   O92     1.968   .     S
N85    N782    1.293   1_554 S
N85    H811    1.029   1_554 S
N86    N433    1.293   .     S
N86    H464    1.029   .     S
C97    H100    1.108   .     S
C97    H99     1.102   .     S
C97    H98     1.105   .     S
C101   H103    1.108   .     S
C101   H102    1.105   .     S
C101   H104    1.102   .     S
C105   H106    1.108   .     S
C105   H107    1.106   .     S
C105   H340    1.111   1_545 S
H108   C221    1.111   .     S
C109   H110    1.106   .     S
C109   H111    1.108   .     S
C109   H228    1.111   .     S
H112   C341    1.111   1_545 S
H113   C179    1.088   .     S
H114   C296    1.088   1_545 S
H115   N433    1.029   .     S
H116   N782    1.029   1_554 S
C117   O147    1.285   .     A
C117   C121    1.425   .     S
C117   O145    1.291   .     A
C118   C122    1.425   .     S
C118   O146    1.291   .     A
C118   O148    1.285   .     A
C119   C136    1.389   .     A
C119   H141    1.086   .     S
C119   C195    1.394   1_455 S
C120   H142    1.086   .     S
C120   C135    1.389   .     A
C120   C196    1.394   .     S
C122   C237    1.327   .     S
C122   H288    1.088   .     S
C123   C128    1.449   .     S
C123   O149    1.294   .     A
C123   O151    1.292   .     A
C124   O150    1.294   .     A
C124   C127    1.449   .     S
C124   O152    1.292   .     A
C125   H153    1.087   .     S
C125   C127    1.383   .     A
C125   C135    1.380   .     A
C126   H154    1.087   .     S
C126   C128    1.383   .     A
C126   C136    1.380   .     A
C127   C129    1.417   .     A
C128   C130    1.417   .     A
C129   C131    1.436   .     A
C129   C155    1.520   .     S
C130   C132    1.436   .     A
C130   C159    1.520   .     S
C131   C137    1.435   .     A
C131   C133    1.439   .     A
C132   C134    1.439   .     A
C132   C138    1.435   .     A
C133   C135    1.405   .     A
C133   C192    1.414   .     S
C134   C136    1.405   .     A
C134   C191    1.414   1_455 S
C137   C163    1.515   .     S
C137   C177    1.394   .     S
C138   C167    1.514   .     S
C138   C178    1.394   1_455 S
Cu139  Cu140   2.689   .     S
Cu139  O148    1.947   .     S
Cu139  N144    2.020   .     S
Cu139  O145    1.952   .     S
Cu139  O152    1.952   .     S
Cu139  O149    1.968   .     S
Cu140  N143    2.020   .     S
Cu140  O147    1.947   .     S
Cu140  O151    1.952   .     S
Cu140  O146    1.952   .     S
Cu140  O150    1.968   .     S
N143   N840    1.293   1_554 S
N143   H869    1.029   1_554 S
N144   N491    1.293   .     S
N144   H522    1.029   .     S
C155   H158    1.108   .     S
C155   H157    1.102   .     S
C155   H156    1.105   .     S
C159   H161    1.108   .     S
C159   H160    1.105   .     S
C159   H162    1.102   .     S
C163   H164    1.108   .     S
C163   H165    1.106   .     S
H166   C279    1.111   .     S
C167   H168    1.106   .     S
C167   H169    1.108   .     S
C167   H286    1.111   .     S
H171   C237    1.088   .     S
H173   N491    1.029   .     S
H174   N840    1.029   1_554 S
C175   O205    1.285   .     A
C175   C179    1.425   .     S
C175   O203    1.291   .     A
C176   C180    1.425   .     S
C176   O204    1.291   .     A
C176   O206    1.285   .     A
C177   C194    1.389   .     A
C177   H199    1.086   .     S
C178   H200    1.086   .     S
C178   C193    1.389   .     A
C178   C138    1.394   1_655 S
C180   C295    1.327   .     S
C180   H346    1.088   .     S
C181   C186    1.449   .     S
C181   O207    1.294   .     A
C181   O209    1.292   .     A
C182   O208    1.294   .     A
C182   C185    1.449   .     S
C182   O210    1.292   .     A
C183   H211    1.087   .     S
C183   C185    1.383   .     A
C183   C193    1.380   .     A
C184   H212    1.087   .     S
C184   C186    1.383   .     A
C184   C194    1.380   .     A
C185   C187    1.417   .     A
C186   C188    1.417   .     A
C187   C189    1.436   .     A
C187   C213    1.520   .     S
C188   C190    1.436   .     A
C188   C217    1.520   .     S
C189   C195    1.435   .     A
C189   C191    1.439   .     A
C190   C192    1.439   .     A
C190   C196    1.435   .     A
C191   C193    1.405   .     A
C191   C134    1.414   1_655 S
C192   C194    1.405   .     A
C195   C221    1.515   .     S
C195   C119    1.394   1_655 S
C196   C225    1.514   .     S
Cu197  Cu198   2.689   .     S
Cu197  O206    1.947   .     S
Cu197  N202    2.020   .     S
Cu197  O203    1.952   .     S
Cu197  O210    1.952   .     S
Cu197  O207    1.968   .     S
Cu198  N201    2.020   .     S
Cu198  O205    1.947   .     S
Cu198  O209    1.952   .     S
Cu198  O204    1.952   .     S
Cu198  O208    1.968   .     S
N201   N898    1.293   1_554 S
N201   H927    1.029   1_554 S
N202   N549    1.293   .     S
N202   H580    1.029   .     S
C213   H216    1.108   .     S
C213   H215    1.102   .     S
C213   H214    1.105   .     S
C217   H219    1.108   .     S
C217   H218    1.105   .     S
C217   H220    1.102   .     S
C221   H222    1.108   .     S
C221   H223    1.106   .     S
H224   C337    1.111   .     S
C225   H226    1.106   .     S
C225   H227    1.108   .     S
C225   H344    1.111   .     S
H229   C295    1.088   .     S
H231   N549    1.029   .     S
H232   N898    1.029   1_554 S
C233   O263    1.285   .     A
C233   C237    1.425   .     S
C233   O261    1.291   .     A
C234   C238    1.425   .     S
C234   O262    1.291   .     A
C234   O264    1.285   .     A
C235   C252    1.389   .     A
C235   H257    1.086   .     S
C235   C311    1.394   1_455 S
C236   H258    1.086   .     S
C236   C251    1.389   .     A
C236   C312    1.394   .     S
C238   C5      1.327   1_565 S
C238   H56     1.088   1_565 S
C239   C244    1.449   .     S
C239   O265    1.294   .     A
C239   O267    1.292   .     A
C240   O266    1.294   .     A
C240   C243    1.449   .     S
C240   O268    1.292   .     A
C241   H269    1.087   .     S
C241   C243    1.383   .     A
C241   C251    1.380   .     A
C242   H270    1.087   .     S
C242   C244    1.383   .     A
C242   C252    1.380   .     A
C243   C245    1.417   .     A
C244   C246    1.417   .     A
C245   C247    1.436   .     A
C245   C271    1.520   .     S
C246   C248    1.436   .     A
C246   C275    1.520   .     S
C247   C253    1.435   .     A
C247   C249    1.439   .     A
C248   C250    1.439   .     A
C248   C254    1.435   .     A
C249   C251    1.405   .     A
C249   C308    1.414   .     S
C250   C252    1.405   .     A
C250   C307    1.414   1_455 S
C253   C279    1.515   .     S
C253   C293    1.394   .     S
C254   C283    1.514   .     S
C254   C294    1.394   1_455 S
Cu255  Cu256   2.689   .     S
Cu255  O264    1.947   .     S
Cu255  N260    2.020   .     S
Cu255  O261    1.952   .     S
Cu255  O268    1.952   .     S
Cu255  O265    1.968   .     S
Cu256  N259    2.020   .     S
Cu256  O263    1.947   .     S
Cu256  O267    1.952   .     S
Cu256  O262    1.952   .     S
Cu256  O266    1.968   .     S
N259   N956    1.293   1_554 S
N259   H985    1.029   1_554 S
N260   N607    1.293   .     S
N260   H638    1.029   .     S
C271   H274    1.108   .     S
C271   H273    1.102   .     S
C271   H272    1.105   .     S
C275   H277    1.108   .     S
C275   H276    1.105   .     S
C275   H278    1.102   .     S
C279   H280    1.108   .     S
C279   H281    1.106   .     S
H282   C47     1.111   1_565 S
C283   H284    1.106   .     S
C283   H285    1.108   .     S
C283   H54     1.111   1_565 S
H287   C5      1.088   1_565 S
H289   N607    1.029   .     S
H290   N956    1.029   1_554 S
C291   O321    1.285   .     A
C291   C295    1.425   .     S
C291   O319    1.291   .     A
C292   C296    1.425   .     S
C292   O320    1.291   .     A
C292   O322    1.285   .     A
C293   C310    1.389   .     A
C293   H315    1.086   .     S
C294   H316    1.086   .     S
C294   C309    1.389   .     A
C294   C254    1.394   1_655 S
C296   C63     1.327   1_565 S
C296   H114    1.088   1_565 S
C297   C302    1.449   .     S
C297   O323    1.294   .     A
C297   O325    1.292   .     A
C298   O324    1.294   .     A
C298   C301    1.449   .     S
C298   O326    1.292   .     A
C299   H327    1.087   .     S
C299   C301    1.383   .     A
C299   C309    1.380   .     A
C300   H328    1.087   .     S
C300   C302    1.383   .     A
C300   C310    1.380   .     A
C301   C303    1.417   .     A
C302   C304    1.417   .     A
C303   C305    1.436   .     A
C303   C329    1.520   .     S
C304   C306    1.436   .     A
C304   C333    1.520   .     S
C305   C311    1.435   .     A
C305   C307    1.439   .     A
C306   C308    1.439   .     A
C306   C312    1.435   .     A
C307   C309    1.405   .     A
C307   C250    1.414   1_655 S
C308   C310    1.405   .     A
C311   C337    1.515   .     S
C311   C235    1.394   1_655 S
C312   C341    1.514   .     S
Cu313  Cu314   2.689   .     S
Cu313  O322    1.947   .     S
Cu313  N318    2.020   .     S
Cu313  O319    1.952   .     S
Cu313  O326    1.952   .     S
Cu313  O323    1.968   .     S
Cu314  N317    2.020   .     S
Cu314  O321    1.947   .     S
Cu314  O325    1.952   .     S
Cu314  O320    1.952   .     S
Cu314  O324    1.968   .     S
N317   N1014   1.293   1_554 S
N317   H1043   1.029   1_554 S
N318   N665    1.293   .     S
N318   H696    1.029   .     S
C329   H332    1.108   .     S
C329   H331    1.102   .     S
C329   H330    1.105   .     S
C333   H335    1.108   .     S
C333   H334    1.105   .     S
C333   H336    1.102   .     S
C337   H338    1.108   .     S
C337   H339    1.106   .     S
H340   C105    1.111   1_565 S
C341   H342    1.106   .     S
C341   H343    1.108   .     S
C341   H112    1.111   1_565 S
H345   C63     1.088   1_565 S
H347   N665    1.029   .     S
H348   N1014   1.029   1_554 S
C349   O379    1.285   .     A
C349   C353    1.425   .     S
C349   O377    1.291   .     A
C350   C354    1.425   .     S
C350   O378    1.291   .     A
C350   O380    1.285   .     A
C351   C368    1.389   .     A
C351   H373    1.086   .     S
C351   C427    1.394   1_455 S
C352   H374    1.086   .     S
C352   C367    1.389   .     A
C352   C428    1.394   .     S
C353   C586    1.327   1_545 S
C353   H635    1.088   1_545 S
C354   C469    1.327   .     S
C354   H520    1.088   .     S
C355   C360    1.449   .     S
C355   O381    1.294   .     A
C355   O383    1.292   .     A
C356   O382    1.294   .     A
C356   C359    1.449   .     S
C356   O384    1.292   .     A
C357   H385    1.087   .     S
C357   C359    1.383   .     A
C357   C367    1.380   .     A
C358   H386    1.087   .     S
C358   C360    1.383   .     A
C358   C368    1.380   .     A
C359   C361    1.417   .     A
C360   C362    1.417   .     A
C361   C363    1.436   .     A
C361   C387    1.520   .     S
C362   C364    1.436   .     A
C362   C391    1.520   .     S
C363   C369    1.435   .     A
C363   C365    1.439   .     A
C364   C366    1.439   .     A
C364   C370    1.435   .     A
C365   C367    1.405   .     A
C365   C424    1.414   .     S
C366   C368    1.405   .     A
C366   C423    1.414   1_455 S
C369   C395    1.515   .     S
C369   C409    1.394   .     S
C370   C399    1.514   .     S
C370   C410    1.394   1_455 S
Cu371  Cu372   2.689   .     S
Cu371  O380    1.947   .     S
Cu371  N376    2.020   .     S
Cu371  O377    1.952   .     S
Cu371  O384    1.952   .     S
Cu371  O381    1.968   .     S
Cu372  N375    2.020   .     S
Cu372  O379    1.947   .     S
Cu372  O383    1.952   .     S
Cu372  O378    1.952   .     S
Cu372  O382    1.968   .     S
N376   N723    1.293   .     S
N376   H754    1.029   .     S
C387   H390    1.108   .     S
C387   H389    1.102   .     S
C387   H388    1.105   .     S
C391   H393    1.108   .     S
C391   H392    1.105   .     S
C391   H394    1.102   .     S
C395   H396    1.108   .     S
C395   H397    1.106   .     S
C395   H630    1.111   1_545 S
H398   C511    1.111   .     S
C399   H400    1.106   .     S
C399   H401    1.108   .     S
C399   H518    1.111   .     S
H402   C631    1.111   1_545 S
H403   C469    1.088   .     S
H404   C586    1.088   1_545 S
H405   N723    1.029   .     S
C407   O437    1.285   .     A
C407   C411    1.425   .     S
C407   O435    1.291   .     A
C408   C412    1.425   .     S
C408   O436    1.291   .     A
C408   O438    1.285   .     A
C409   C426    1.389   .     A
C409   H431    1.086   .     S
C410   H432    1.086   .     S
C410   C425    1.389   .     A
C410   C370    1.394   1_655 S
C411   C644    1.327   1_545 S
C411   H693    1.088   1_545 S
C412   C527    1.327   .     S
C412   H578    1.088   .     S
C413   C418    1.449   .     S
C413   O439    1.294   .     A
C413   O441    1.292   .     A
C414   O440    1.294   .     A
C414   C417    1.449   .     S
C414   O442    1.292   .     A
C415   H443    1.087   .     S
C415   C417    1.383   .     A
C415   C425    1.380   .     A
C416   H444    1.087   .     S
C416   C418    1.383   .     A
C416   C426    1.380   .     A
C417   C419    1.417   .     A
C418   C420    1.417   .     A
C419   C421    1.436   .     A
C419   C445    1.520   .     S
C420   C422    1.436   .     A
C420   C449    1.520   .     S
C421   C427    1.435   .     A
C421   C423    1.439   .     A
C422   C424    1.439   .     A
C422   C428    1.435   .     A
C423   C425    1.405   .     A
C423   C366    1.414   1_655 S
C424   C426    1.405   .     A
C427   C453    1.515   .     S
C427   C351    1.394   1_655 S
C428   C457    1.514   .     S
Cu429  Cu430   2.689   .     S
Cu429  O438    1.947   .     S
Cu429  N434    2.020   .     S
Cu429  O435    1.952   .     S
Cu429  O442    1.952   .     S
Cu429  O439    1.968   .     S
Cu430  N433    2.020   .     S
Cu430  O437    1.947   .     S
Cu430  O441    1.952   .     S
Cu430  O436    1.952   .     S
Cu430  O440    1.968   .     S
N434   N781    1.293   .     S
N434   H812    1.029   .     S
C445   H448    1.108   .     S
C445   H447    1.102   .     S
C445   H446    1.105   .     S
C449   H451    1.108   .     S
C449   H450    1.105   .     S
C449   H452    1.102   .     S
C453   H454    1.108   .     S
C453   H455    1.106   .     S
C453   H688    1.111   1_545 S
H456   C569    1.111   .     S
C457   H458    1.106   .     S
C457   H459    1.108   .     S
C457   H576    1.111   .     S
H460   C689    1.111   1_545 S
H461   C527    1.088   .     S
H462   C644    1.088   1_545 S
H463   N781    1.029   .     S
C465   O495    1.285   .     A
C465   C469    1.425   .     S
C465   O493    1.291   .     A
C466   C470    1.425   .     S
C466   O494    1.291   .     A
C466   O496    1.285   .     A
C467   C484    1.389   .     A
C467   H489    1.086   .     S
C467   C543    1.394   1_455 S
C468   H490    1.086   .     S
C468   C483    1.389   .     A
C468   C544    1.394   .     S
C470   C585    1.327   .     S
C470   H636    1.088   .     S
C471   C476    1.449   .     S
C471   O497    1.294   .     A
C471   O499    1.292   .     A
C472   O498    1.294   .     A
C472   C475    1.449   .     S
C472   O500    1.292   .     A
C473   H501    1.087   .     S
C473   C475    1.383   .     A
C473   C483    1.380   .     A
C474   H502    1.087   .     S
C474   C476    1.383   .     A
C474   C484    1.380   .     A
C475   C477    1.417   .     A
C476   C478    1.417   .     A
C477   C479    1.436   .     A
C477   C503    1.520   .     S
C478   C480    1.436   .     A
C478   C507    1.520   .     S
C479   C485    1.435   .     A
C479   C481    1.439   .     A
C480   C482    1.439   .     A
C480   C486    1.435   .     A
C481   C483    1.405   .     A
C481   C540    1.414   .     S
C482   C484    1.405   .     A
C482   C539    1.414   1_455 S
C485   C511    1.515   .     S
C485   C525    1.394   .     S
C486   C515    1.514   .     S
C486   C526    1.394   1_455 S
Cu487  Cu488   2.689   .     S
Cu487  O496    1.947   .     S
Cu487  N492    2.020   .     S
Cu487  O493    1.952   .     S
Cu487  O500    1.952   .     S
Cu487  O497    1.968   .     S
Cu488  N491    2.020   .     S
Cu488  O495    1.947   .     S
Cu488  O499    1.952   .     S
Cu488  O494    1.952   .     S
Cu488  O498    1.968   .     S
N492   N839    1.293   .     S
N492   H870    1.029   .     S
C503   H506    1.108   .     S
C503   H505    1.102   .     S
C503   H504    1.105   .     S
C507   H509    1.108   .     S
C507   H508    1.105   .     S
C507   H510    1.102   .     S
C511   H512    1.108   .     S
C511   H513    1.106   .     S
H514   C627    1.111   .     S
C515   H516    1.106   .     S
C515   H517    1.108   .     S
C515   H634    1.111   .     S
H519   C585    1.088   .     S
H521   N839    1.029   .     S
C523   O553    1.285   .     A
C523   C527    1.425   .     S
C523   O551    1.291   .     A
C524   C528    1.425   .     S
C524   O552    1.291   .     A
C524   O554    1.285   .     A
C525   C542    1.389   .     A
C525   H547    1.086   .     S
C526   H548    1.086   .     S
C526   C541    1.389   .     A
C526   C486    1.394   1_655 S
C528   C643    1.327   .     S
C528   H694    1.088   .     S
C529   C534    1.449   .     S
C529   O555    1.294   .     A
C529   O557    1.292   .     A
C530   O556    1.294   .     A
C530   C533    1.449   .     S
C530   O558    1.292   .     A
C531   H559    1.087   .     S
C531   C533    1.383   .     A
C531   C541    1.380   .     A
C532   H560    1.087   .     S
C532   C534    1.383   .     A
C532   C542    1.380   .     A
C533   C535    1.417   .     A
C534   C536    1.417   .     A
C535   C537    1.436   .     A
C535   C561    1.520   .     S
C536   C538    1.436   .     A
C536   C565    1.520   .     S
C537   C543    1.435   .     A
C537   C539    1.439   .     A
C538   C540    1.439   .     A
C538   C544    1.435   .     A
C539   C541    1.405   .     A
C539   C482    1.414   1_655 S
C540   C542    1.405   .     A
C543   C569    1.515   .     S
C543   C467    1.394   1_655 S
C544   C573    1.514   .     S
Cu545  Cu546   2.689   .     S
Cu545  O554    1.947   .     S
Cu545  N550    2.020   .     S
Cu545  O551    1.952   .     S
Cu545  O558    1.952   .     S
Cu545  O555    1.968   .     S
Cu546  N549    2.020   .     S
Cu546  O553    1.947   .     S
Cu546  O557    1.952   .     S
Cu546  O552    1.952   .     S
Cu546  O556    1.968   .     S
N550   N897    1.293   .     S
N550   H928    1.029   .     S
C561   H564    1.108   .     S
C561   H563    1.102   .     S
C561   H562    1.105   .     S
C565   H567    1.108   .     S
C565   H566    1.105   .     S
C565   H568    1.102   .     S
C569   H570    1.108   .     S
C569   H571    1.106   .     S
H572   C685    1.111   .     S
C573   H574    1.106   .     S
C573   H575    1.108   .     S
C573   H692    1.111   .     S
H577   C643    1.088   .     S
H579   N897    1.029   .     S
C581   O611    1.285   .     A
C581   C585    1.425   .     S
C581   O609    1.291   .     A
C582   C586    1.425   .     S
C582   O610    1.291   .     A
C582   O612    1.285   .     A
C583   C600    1.389   .     A
C583   H605    1.086   .     S
C583   C659    1.394   1_455 S
C584   H606    1.086   .     S
C584   C599    1.389   .     A
C584   C660    1.394   .     S
C586   C353    1.327   1_565 S
C586   H404    1.088   1_565 S
C587   C592    1.449   .     S
C587   O613    1.294   .     A
C587   O615    1.292   .     A
C588   O614    1.294   .     A
C588   C591    1.449   .     S
C588   O616    1.292   .     A
C589   H617    1.087   .     S
C589   C591    1.383   .     A
C589   C599    1.380   .     A
C590   H618    1.087   .     S
C590   C592    1.383   .     A
C590   C600    1.380   .     A
C591   C593    1.417   .     A
C592   C594    1.417   .     A
C593   C595    1.436   .     A
C593   C619    1.520   .     S
C594   C596    1.436   .     A
C594   C623    1.520   .     S
C595   C601    1.435   .     A
C595   C597    1.439   .     A
C596   C598    1.439   .     A
C596   C602    1.435   .     A
C597   C599    1.405   .     A
C597   C656    1.414   .     S
C598   C600    1.405   .     A
C598   C655    1.414   1_455 S
C601   C627    1.515   .     S
C601   C641    1.394   .     S
C602   C631    1.514   .     S
C602   C642    1.394   1_455 S
Cu603  Cu604   2.689   .     S
Cu603  O612    1.947   .     S
Cu603  N608    2.020   .     S
Cu603  O609    1.952   .     S
Cu603  O616    1.952   .     S
Cu603  O613    1.968   .     S
Cu604  N607    2.020   .     S
Cu604  O611    1.947   .     S
Cu604  O615    1.952   .     S
Cu604  O610    1.952   .     S
Cu604  O614    1.968   .     S
N608   N955    1.293   .     S
N608   H986    1.029   .     S
C619   H622    1.108   .     S
C619   H621    1.102   .     S
C619   H620    1.105   .     S
C623   H625    1.108   .     S
C623   H624    1.105   .     S
C623   H626    1.102   .     S
C627   H628    1.108   .     S
C627   H629    1.106   .     S
H630   C395    1.111   1_565 S
C631   H632    1.106   .     S
C631   H633    1.108   .     S
C631   H402    1.111   1_565 S
H635   C353    1.088   1_565 S
H637   N955    1.029   .     S
C639   O669    1.285   .     A
C639   C643    1.425   .     S
C639   O667    1.291   .     A
C640   C644    1.425   .     S
C640   O668    1.291   .     A
C640   O670    1.285   .     A
C641   C658    1.389   .     A
C641   H663    1.086   .     S
C642   H664    1.086   .     S
C642   C657    1.389   .     A
C642   C602    1.394   1_655 S
C644   C411    1.327   1_565 S
C644   H462    1.088   1_565 S
C645   C650    1.449   .     S
C645   O671    1.294   .     A
C645   O673    1.292   .     A
C646   O672    1.294   .     A
C646   C649    1.449   .     S
C646   O674    1.292   .     A
C647   H675    1.087   .     S
C647   C649    1.383   .     A
C647   C657    1.380   .     A
C648   H676    1.087   .     S
C648   C650    1.383   .     A
C648   C658    1.380   .     A
C649   C651    1.417   .     A
C650   C652    1.417   .     A
C651   C653    1.436   .     A
C651   C677    1.520   .     S
C652   C654    1.436   .     A
C652   C681    1.520   .     S
C653   C659    1.435   .     A
C653   C655    1.439   .     A
C654   C656    1.439   .     A
C654   C660    1.435   .     A
C655   C657    1.405   .     A
C655   C598    1.414   1_655 S
C656   C658    1.405   .     A
C659   C685    1.515   .     S
C659   C583    1.394   1_655 S
C660   C689    1.514   .     S
Cu661  Cu662   2.689   .     S
Cu661  O670    1.947   .     S
Cu661  N666    2.020   .     S
Cu661  O667    1.952   .     S
Cu661  O674    1.952   .     S
Cu661  O671    1.968   .     S
Cu662  N665    2.020   .     S
Cu662  O669    1.947   .     S
Cu662  O673    1.952   .     S
Cu662  O668    1.952   .     S
Cu662  O672    1.968   .     S
N666   N1013   1.293   .     S
N666   H1044   1.029   .     S
C677   H680    1.108   .     S
C677   H679    1.102   .     S
C677   H678    1.105   .     S
C681   H683    1.108   .     S
C681   H682    1.105   .     S
C681   H684    1.102   .     S
C685   H686    1.108   .     S
C685   H687    1.106   .     S
H688   C453    1.111   1_565 S
C689   H690    1.106   .     S
C689   H691    1.108   .     S
C689   H460    1.111   1_565 S
H693   C411    1.088   1_565 S
H695   N1013   1.029   .     S
C697   O727    1.285   .     A
C697   C701    1.425   .     S
C697   O725    1.291   .     A
C698   C702    1.425   .     S
C698   O726    1.291   .     A
C698   O728    1.285   .     A
C699   C716    1.389   .     A
C699   H721    1.086   .     S
C699   C775    1.394   1_455 S
C700   H722    1.086   .     S
C700   C715    1.389   .     A
C700   C776    1.394   .     S
C701   C934    1.327   1_545 S
C701   H983    1.088   1_545 S
C702   C817    1.327   .     S
C702   H868    1.088   .     S
C703   C708    1.449   .     S
C703   O729    1.294   .     A
C703   O731    1.292   .     A
C704   O730    1.294   .     A
C704   C707    1.449   .     S
C704   O732    1.292   .     A
C705   H733    1.087   .     S
C705   C707    1.383   .     A
C705   C715    1.380   .     A
C706   H734    1.087   .     S
C706   C708    1.383   .     A
C706   C716    1.380   .     A
C707   C709    1.417   .     A
C708   C710    1.417   .     A
C709   C711    1.436   .     A
C709   C735    1.520   .     S
C710   C712    1.436   .     A
C710   C739    1.520   .     S
C711   C717    1.435   .     A
C711   C713    1.439   .     A
C712   C714    1.439   .     A
C712   C718    1.435   .     A
C713   C715    1.405   .     A
C713   C772    1.414   .     S
C714   C716    1.405   .     A
C714   C771    1.414   1_455 S
C717   C743    1.515   .     S
C717   C757    1.394   .     S
C718   C747    1.514   .     S
C718   C758    1.394   1_455 S
Cu719  Cu720   2.689   .     S
Cu719  O728    1.947   .     S
Cu719  N724    2.020   .     S
Cu719  O725    1.952   .     S
Cu719  O732    1.952   .     S
Cu719  O729    1.968   .     S
Cu720  N723    2.020   .     S
Cu720  O727    1.947   .     S
Cu720  O731    1.952   .     S
Cu720  O726    1.952   .     S
Cu720  O730    1.968   .     S
N724   N27     1.293   1_556 S
N724   H58     1.029   1_556 S
C735   H738    1.108   .     S
C735   H737    1.102   .     S
C735   H736    1.105   .     S
C739   H741    1.108   .     S
C739   H740    1.105   .     S
C739   H742    1.102   .     S
C743   H744    1.108   .     S
C743   H745    1.106   .     S
C743   H978    1.111   1_545 S
H746   C859    1.111   .     S
C747   H748    1.106   .     S
C747   H749    1.108   .     S
C747   H866    1.111   .     S
H750   C979    1.111   1_545 S
H751   C817    1.088   .     S
H752   C934    1.088   1_545 S
H753   N27     1.029   1_556 S
C755   O785    1.285   .     A
C755   C759    1.425   .     S
C755   O783    1.291   .     A
C756   C760    1.425   .     S
C756   O784    1.291   .     A
C756   O786    1.285   .     A
C757   C774    1.389   .     A
C757   H779    1.086   .     S
C758   H780    1.086   .     S
C758   C773    1.389   .     A
C758   C718    1.394   1_655 S
C759   C992    1.327   1_545 S
C759   H1041   1.088   1_545 S
C760   C875    1.327   .     S
C760   H926    1.088   .     S
C761   C766    1.449   .     S
C761   O787    1.294   .     A
C761   O789    1.292   .     A
C762   O788    1.294   .     A
C762   C765    1.449   .     S
C762   O790    1.292   .     A
C763   H791    1.087   .     S
C763   C765    1.383   .     A
C763   C773    1.380   .     A
C764   H792    1.087   .     S
C764   C766    1.383   .     A
C764   C774    1.380   .     A
C765   C767    1.417   .     A
C766   C768    1.417   .     A
C767   C769    1.436   .     A
C767   C793    1.520   .     S
C768   C770    1.436   .     A
C768   C797    1.520   .     S
C769   C775    1.435   .     A
C769   C771    1.439   .     A
C770   C772    1.439   .     A
C770   C776    1.435   .     A
C771   C773    1.405   .     A
C771   C714    1.414   1_655 S
C772   C774    1.405   .     A
C775   C801    1.515   .     S
C775   C699    1.394   1_655 S
C776   C805    1.514   .     S
Cu777  Cu778   2.689   .     S
Cu777  O786    1.947   .     S
Cu777  N782    2.020   .     S
Cu777  O783    1.952   .     S
Cu777  O790    1.952   .     S
Cu777  O787    1.968   .     S
Cu778  N781    2.020   .     S
Cu778  O785    1.947   .     S
Cu778  O789    1.952   .     S
Cu778  O784    1.952   .     S
Cu778  O788    1.968   .     S
N782   N85     1.293   1_556 S
N782   H116    1.029   1_556 S
C793   H796    1.108   .     S
C793   H795    1.102   .     S
C793   H794    1.105   .     S
C797   H799    1.108   .     S
C797   H798    1.105   .     S
C797   H800    1.102   .     S
C801   H802    1.108   .     S
C801   H803    1.106   .     S
C801   H1036   1.111   1_545 S
H804   C917    1.111   .     S
C805   H806    1.106   .     S
C805   H807    1.108   .     S
C805   H924    1.111   .     S
H808   C1037   1.111   1_545 S
H809   C875    1.088   .     S
H810   C992    1.088   1_545 S
H811   N85     1.029   1_556 S
C813   O843    1.285   .     A
C813   C817    1.425   .     S
C813   O841    1.291   .     A
C814   C818    1.425   .     S
C814   O842    1.291   .     A
C814   O844    1.285   .     A
C815   C832    1.389   .     A
C815   H837    1.086   .     S
C815   C891    1.394   1_455 S
C816   H838    1.086   .     S
C816   C831    1.389   .     A
C816   C892    1.394   .     S
C818   C933    1.327   .     S
C818   H984    1.088   .     S
C819   C824    1.449   .     S
C819   O845    1.294   .     A
C819   O847    1.292   .     A
C820   O846    1.294   .     A
C820   C823    1.449   .     S
C820   O848    1.292   .     A
C821   H849    1.087   .     S
C821   C823    1.383   .     A
C821   C831    1.380   .     A
C822   H850    1.087   .     S
C822   C824    1.383   .     A
C822   C832    1.380   .     A
C823   C825    1.417   .     A
C824   C826    1.417   .     A
C825   C827    1.436   .     A
C825   C851    1.520   .     S
C826   C828    1.436   .     A
C826   C855    1.520   .     S
C827   C833    1.435   .     A
C827   C829    1.439   .     A
C828   C830    1.439   .     A
C828   C834    1.435   .     A
C829   C831    1.405   .     A
C829   C888    1.414   .     S
C830   C832    1.405   .     A
C830   C887    1.414   1_455 S
C833   C859    1.515   .     S
C833   C873    1.394   .     S
C834   C863    1.514   .     S
C834   C874    1.394   1_455 S
Cu835  Cu836   2.689   .     S
Cu835  O844    1.947   .     S
Cu835  N840    2.020   .     S
Cu835  O841    1.952   .     S
Cu835  O848    1.952   .     S
Cu835  O845    1.968   .     S
Cu836  N839    2.020   .     S
Cu836  O843    1.947   .     S
Cu836  O847    1.952   .     S
Cu836  O842    1.952   .     S
Cu836  O846    1.968   .     S
N840   N143    1.293   1_556 S
N840   H174    1.029   1_556 S
C851   H854    1.108   .     S
C851   H853    1.102   .     S
C851   H852    1.105   .     S
C855   H857    1.108   .     S
C855   H856    1.105   .     S
C855   H858    1.102   .     S
C859   H860    1.108   .     S
C859   H861    1.106   .     S
H862   C975    1.111   .     S
C863   H864    1.106   .     S
C863   H865    1.108   .     S
C863   H982    1.111   .     S
H867   C933    1.088   .     S
H869   N143    1.029   1_556 S
C871   O901    1.285   .     A
C871   C875    1.425   .     S
C871   O899    1.291   .     A
C872   C876    1.425   .     S
C872   O900    1.291   .     A
C872   O902    1.285   .     A
C873   C890    1.389   .     A
C873   H895    1.086   .     S
C874   H896    1.086   .     S
C874   C889    1.389   .     A
C874   C834    1.394   1_655 S
C876   C991    1.327   .     S
C876   H1042   1.088   .     S
C877   C882    1.449   .     S
C877   O903    1.294   .     A
C877   O905    1.292   .     A
C878   O904    1.294   .     A
C878   C881    1.449   .     S
C878   O906    1.292   .     A
C879   H907    1.087   .     S
C879   C881    1.383   .     A
C879   C889    1.380   .     A
C880   H908    1.087   .     S
C880   C882    1.383   .     A
C880   C890    1.380   .     A
C881   C883    1.417   .     A
C882   C884    1.417   .     A
C883   C885    1.436   .     A
C883   C909    1.520   .     S
C884   C886    1.436   .     A
C884   C913    1.520   .     S
C885   C891    1.435   .     A
C885   C887    1.439   .     A
C886   C888    1.439   .     A
C886   C892    1.435   .     A
C887   C889    1.405   .     A
C887   C830    1.414   1_655 S
C888   C890    1.405   .     A
C891   C917    1.515   .     S
C891   C815    1.394   1_655 S
C892   C921    1.514   .     S
Cu893  Cu894   2.689   .     S
Cu893  O902    1.947   .     S
Cu893  N898    2.020   .     S
Cu893  O899    1.952   .     S
Cu893  O906    1.952   .     S
Cu893  O903    1.968   .     S
Cu894  N897    2.020   .     S
Cu894  O901    1.947   .     S
Cu894  O905    1.952   .     S
Cu894  O900    1.952   .     S
Cu894  O904    1.968   .     S
N898   N201    1.293   1_556 S
N898   H232    1.029   1_556 S
C909   H912    1.108   .     S
C909   H911    1.102   .     S
C909   H910    1.105   .     S
C913   H915    1.108   .     S
C913   H914    1.105   .     S
C913   H916    1.102   .     S
C917   H918    1.108   .     S
C917   H919    1.106   .     S
H920   C1033   1.111   .     S
C921   H922    1.106   .     S
C921   H923    1.108   .     S
C921   H1040   1.111   .     S
H925   C991    1.088   .     S
H927   N201    1.029   1_556 S
C929   O959    1.285   .     A
C929   C933    1.425   .     S
C929   O957    1.291   .     A
C930   C934    1.425   .     S
C930   O958    1.291   .     A
C930   O960    1.285   .     A
C931   C948    1.389   .     A
C931   H953    1.086   .     S
C931   C1007   1.394   1_455 S
C932   H954    1.086   .     S
C932   C947    1.389   .     A
C932   C1008   1.394   .     S
C934   C701    1.327   1_565 S
C934   H752    1.088   1_565 S
C935   C940    1.449   .     S
C935   O961    1.294   .     A
C935   O963    1.292   .     A
C936   O962    1.294   .     A
C936   C939    1.449   .     S
C936   O964    1.292   .     A
C937   H965    1.087   .     S
C937   C939    1.383   .     A
C937   C947    1.380   .     A
C938   H966    1.087   .     S
C938   C940    1.383   .     A
C938   C948    1.380   .     A
C939   C941    1.417   .     A
C940   C942    1.417   .     A
C941   C943    1.436   .     A
C941   C967    1.520   .     S
C942   C944    1.436   .     A
C942   C971    1.520   .     S
C943   C949    1.435   .     A
C943   C945    1.439   .     A
C944   C946    1.439   .     A
C944   C950    1.435   .     A
C945   C947    1.405   .     A
C945   C1004   1.414   .     S
C946   C948    1.405   .     A
C946   C1003   1.414   1_455 S
C949   C975    1.515   .     S
C949   C989    1.394   .     S
C950   C979    1.514   .     S
C950   C990    1.394   1_455 S
Cu951  Cu952   2.689   .     S
Cu951  O960    1.947   .     S
Cu951  N956    2.020   .     S
Cu951  O957    1.952   .     S
Cu951  O964    1.952   .     S
Cu951  O961    1.968   .     S
Cu952  N955    2.020   .     S
Cu952  O959    1.947   .     S
Cu952  O963    1.952   .     S
Cu952  O958    1.952   .     S
Cu952  O962    1.968   .     S
N956   N259    1.293   1_556 S
N956   H290    1.029   1_556 S
C967   H970    1.108   .     S
C967   H969    1.102   .     S
C967   H968    1.105   .     S
C971   H973    1.108   .     S
C971   H972    1.105   .     S
C971   H974    1.102   .     S
C975   H976    1.108   .     S
C975   H977    1.106   .     S
H978   C743    1.111   1_565 S
C979   H980    1.106   .     S
C979   H981    1.108   .     S
C979   H750    1.111   1_565 S
H983   C701    1.088   1_565 S
H985   N259    1.029   1_556 S
C987   O1017   1.285   .     A
C987   C991    1.425   .     S
C987   O1015   1.291   .     A
C988   C992    1.425   .     S
C988   O1016   1.291   .     A
C988   O1018   1.285   .     A
C989   C1006   1.389   .     A
C989   H1011   1.086   .     S
C990   H1012   1.086   .     S
C990   C1005   1.389   .     A
C990   C950    1.394   1_655 S
C992   C759    1.327   1_565 S
C992   H810    1.088   1_565 S
C993   C998    1.449   .     S
C993   O1019   1.294   .     A
C993   O1021   1.292   .     A
C994   O1020   1.294   .     A
C994   C997    1.449   .     S
C994   O1022   1.292   .     A
C995   H1023   1.087   .     S
C995   C997    1.383   .     A
C995   C1005   1.380   .     A
C996   H1024   1.087   .     S
C996   C998    1.383   .     A
C996   C1006   1.380   .     A
C997   C999    1.417   .     A
C998   C1000   1.417   .     A
C999   C1001   1.436   .     A
C999   C1025   1.520   .     S
C1000  C1002   1.436   .     A
C1000  C1029   1.520   .     S
C1001  C1007   1.435   .     A
C1001  C1003   1.439   .     A
C1002  C1004   1.439   .     A
C1002  C1008   1.435   .     A
C1003  C1005   1.405   .     A
C1003  C946    1.414   1_655 S
C1004  C1006   1.405   .     A
C1007  C1033   1.515   .     S
C1007  C931    1.394   1_655 S
C1008  C1037   1.514   .     S
Cu1009 Cu1010  2.689   .     S
Cu1009 O1018   1.947   .     S
Cu1009 N1014   2.020   .     S
Cu1009 O1015   1.952   .     S
Cu1009 O1022   1.952   .     S
Cu1009 O1019   1.968   .     S
Cu1010 N1013   2.020   .     S
Cu1010 O1017   1.947   .     S
Cu1010 O1021   1.952   .     S
Cu1010 O1016   1.952   .     S
Cu1010 O1020   1.968   .     S
N1014  N317    1.293   1_556 S
N1014  H348    1.029   1_556 S
C1025  H1028   1.108   .     S
C1025  H1027   1.102   .     S
C1025  H1026   1.105   .     S
C1029  H1031   1.108   .     S
C1029  H1030   1.105   .     S
C1029  H1032   1.102   .     S
C1033  H1034   1.108   .     S
C1033  H1035   1.106   .     S
H1036  C801    1.111   1_565 S
C1037  H1038   1.106   .     S
C1037  H1039   1.108   .     S
C1037  H808    1.111   1_565 S
H1041  C759    1.088   1_565 S
H1043  N317    1.029   1_556 S
