data_str_m2_o1_o17_pcu_sym.143
_audit_creation_date              2020-01-03
_audit_creation_method            'Materials Studio'
_symmetry_space_group_name_H-M    'P1'
_symmetry_Int_Tables_number       1
_symmetry_cell_setting            triclinic
loop_
_symmetry_equiv_pos_as_xyz
  x,y,z
_cell_length_a                    32.7945
_cell_length_b                    28.4884
_cell_length_c                    30.1518
_cell_angle_alpha                 90.0875
_cell_angle_beta                  90.4244
_cell_angle_gamma                 90.2616
loop_
_atom_site_label
_atom_site_type_symbol
_atom_site_fract_x
_atom_site_fract_y
_atom_site_fract_z
_atom_site_U_iso_or_equiv
_atom_site_adp_type
_atom_site_occupancy
O1     O     0.10655   0.20625   0.25000   0.00000  Uiso   1.00
O2     O     0.22679   0.12709   0.25001   0.00000  Uiso   1.00
O3     O     0.22679   0.20625   0.25001   0.00000  Uiso   1.00
O4     O     0.10655   0.12709   0.25000   0.00000  Uiso   1.00
C5     C     0.08740   0.16649   0.25165   0.00000  Uiso   1.00
C6     C     0.24600   0.16676   0.24930   0.00000  Uiso   1.00
O7     O     0.16666   0.20627   0.18513   0.00000  Uiso   1.00
O8     O     0.16668   0.12707   0.31487   0.00000  Uiso   1.00
O9     O     0.16668   0.20627   0.31487   0.00000  Uiso   1.00
O10    O     0.16666   0.12707   0.18513   0.00000  Uiso   1.00
C11    C     0.16633   0.16662   0.16457   0.00000  Uiso   1.00
C12    C     0.16639   0.16665   0.33544   0.00000  Uiso   1.00
Cu13   Cu    0.16667   0.21355   0.25000   0.00000  Uiso   1.00
Cu14   Cu    0.16667   0.11978   0.25000   0.00000  Uiso   1.00
C15    C     0.20268   0.17591   0.40667   0.00000  Uiso   1.00
C16    C     0.12960   0.15907   0.09341   0.00000  Uiso   1.00
C17    C     0.16629   0.16609   0.38361   0.00000  Uiso   1.00
C18    C     0.16652   0.16612   0.11639   0.00000  Uiso   1.00
C19    C     0.12996   0.15579   0.40607   0.00000  Uiso   1.00
C20    C     0.20332   0.17335   0.09387   0.00000  Uiso   1.00
C21    C     0.13015   0.15507   0.45278   0.00000  Uiso   1.00
C22    C     0.20339   0.17225   0.04719   0.00000  Uiso   1.00
C23    C     0.16694   0.16344   0.47651   0.00000  Uiso   1.00
C24    C     0.16665   0.16346   0.02350   0.00000  Uiso   1.00
C25    C     0.20401   0.17151   0.45336   0.00000  Uiso   1.00
C26    C     0.12975   0.15450   0.04668   0.00000  Uiso   1.00
C27    C     0.09470   0.14328   0.47611   0.00000  Uiso   1.00
C28    C     0.24005   0.17669   0.02389   0.00000  Uiso   1.00
C29    C     0.09439   0.14107   0.02222   0.00000  Uiso   1.00
C30    C     0.24109   0.17458   0.47783   0.00000  Uiso   1.00
H31    H     0.06720   0.13297   0.45846   0.00000  Uiso   1.00
H32    H     0.26888   0.17910   0.04151   0.00000  Uiso   1.00
C33    C     0.02098   0.12375   0.24607   0.00000  Uiso   1.00
C34    C     0.31252   0.20895   0.25758   0.00000  Uiso   1.00
C35    C     0.31202   0.12425   0.24349   0.00000  Uiso   1.00
C36    C     0.02150   0.20828   0.26090   0.00000  Uiso   1.00
C37    C     0.29069   0.16686   0.24923   0.00000  Uiso   1.00
C38    C     0.04281   0.16600   0.25367   0.00000  Uiso   1.00
C39    C     0.14318   0.02466   0.22038   0.00000  Uiso   1.00
C40    C     0.19009   0.30867   0.27966   0.00000  Uiso   1.00
C41    C     0.19013   0.02500   0.27964   0.00000  Uiso   1.00
C42    C     0.14314   0.30833   0.22042   0.00000  Uiso   1.00
H43    H     0.12444   0.04330   0.19665   0.00000  Uiso   1.00
H44    H     0.20877   0.29004   0.30346   0.00000  Uiso   1.00
H45    H     0.20894   0.04390   0.30333   0.00000  Uiso   1.00
H46    H     0.12425   0.28944   0.19680   0.00000  Uiso   1.00
N47    N     0.16667   0.28402   0.25000   0.00000  Uiso   1.00
N48    N     0.16667   0.04931   0.25000   0.00000  Uiso   1.00
N49    N     0.23680   0.19455   0.38267   0.00000  Uiso   1.00
O50    O     0.25338   0.17046   0.35092   0.00000  Uiso   1.00
O51    O     0.24959   0.23705   0.39071   0.00000  Uiso   1.00
N52    N     0.09194   0.16272   0.11729   0.00000  Uiso   1.00
O53    O     0.08398   0.13437   0.14990   0.00000  Uiso   1.00
O54    O     0.06686   0.19677   0.10842   0.00000  Uiso   1.00
C55    C     0.09152   0.14846   0.38038   0.00000  Uiso   1.00
O56    O     0.08831   0.11524   0.35487   0.00000  Uiso   1.00
O57    O     0.05917   0.17973   0.38554   0.00000  Uiso   1.00
H58    H     0.03497   0.17157   0.36583   0.00000  Uiso   1.00
C59    C     0.24129   0.18342   0.11952   0.00000  Uiso   1.00
O60    O     0.25438   0.15452   0.14584   0.00000  Uiso   1.00
O61    O     0.26185   0.22601   0.11347   0.00000  Uiso   1.00
H62    H     0.28714   0.22880   0.13287   0.00000  Uiso   1.00
C63    C     0.05804   0.11897   0.04260   0.00000  Uiso   1.00
O64    O     0.02382   0.13197   0.03201   0.00000  Uiso   1.00
O65    O     0.06296   0.08181   0.07239   0.00000  Uiso   1.00
H66    H     0.03598   0.06941   0.08380   0.00000  Uiso   1.00
C67    C     0.28190   0.16955   0.45760   0.00000  Uiso   1.00
O68    O     0.30928   0.19707   0.46734   0.00000  Uiso   1.00
O69    O     0.28950   0.13187   0.42912   0.00000  Uiso   1.00
H70    H     0.31869   0.13139   0.41835   0.00000  Uiso   1.00
N71    N     0.04124   0.07961   0.24053   0.00000  Uiso   1.00
O72    O     0.05404   0.05686   0.27529   0.00000  Uiso   1.00
O73    O     0.03992   0.05839   0.20230   0.00000  Uiso   1.00
N74    N     0.29218   0.25285   0.26409   0.00000  Uiso   1.00
O75    O     0.28080   0.27735   0.22982   0.00000  Uiso   1.00
O76    O     0.29184   0.27201   0.30327   0.00000  Uiso   1.00
N77    N     0.29122   0.08061   0.23530   0.00000  Uiso   1.00
O78    O     0.27653   0.07140   0.19604   0.00000  Uiso   1.00
O79    O     0.29179   0.04778   0.26525   0.00000  Uiso   1.00
N80    N     0.04238   0.25105   0.27245   0.00000  Uiso   1.00
O81    O     0.06047   0.25508   0.31082   0.00000  Uiso   1.00
O82    O     0.04053   0.28718   0.24618   0.00000  Uiso   1.00
O83    O     0.43988   0.20625   0.25000   0.00000  Uiso   1.00
O84    O     0.56012   0.12709   0.25001   0.00000  Uiso   1.00
O85    O     0.56012   0.20625   0.25001   0.00000  Uiso   1.00
O86    O     0.43988   0.12709   0.25000   0.00000  Uiso   1.00
C87    C     0.42074   0.16649   0.25165   0.00000  Uiso   1.00
C88    C     0.57933   0.16676   0.24930   0.00000  Uiso   1.00
O89    O     0.49999   0.20627   0.18513   0.00000  Uiso   1.00
O90    O     0.50001   0.12707   0.31487   0.00000  Uiso   1.00
O91    O     0.50001   0.20627   0.31487   0.00000  Uiso   1.00
O92    O     0.49999   0.12707   0.18513   0.00000  Uiso   1.00
C93    C     0.49966   0.16662   0.16457   0.00000  Uiso   1.00
C94    C     0.49972   0.16665   0.33544   0.00000  Uiso   1.00
Cu95   Cu    0.50000   0.21355   0.25000   0.00000  Uiso   1.00
Cu96   Cu    0.50000   0.11978   0.25000   0.00000  Uiso   1.00
C97    C     0.53601   0.17591   0.40667   0.00000  Uiso   1.00
C98    C     0.46294   0.15907   0.09341   0.00000  Uiso   1.00
C99    C     0.49962   0.16609   0.38361   0.00000  Uiso   1.00
C100   C     0.49985   0.16612   0.11639   0.00000  Uiso   1.00
C101   C     0.46329   0.15579   0.40607   0.00000  Uiso   1.00
C102   C     0.53665   0.17335   0.09387   0.00000  Uiso   1.00
C103   C     0.46348   0.15507   0.45278   0.00000  Uiso   1.00
C104   C     0.53672   0.17225   0.04719   0.00000  Uiso   1.00
C105   C     0.50028   0.16344   0.47651   0.00000  Uiso   1.00
C106   C     0.49998   0.16346   0.02350   0.00000  Uiso   1.00
C107   C     0.53734   0.17151   0.45336   0.00000  Uiso   1.00
C108   C     0.46308   0.15450   0.04668   0.00000  Uiso   1.00
C109   C     0.42804   0.14328   0.47611   0.00000  Uiso   1.00
C110   C     0.57338   0.17669   0.02389   0.00000  Uiso   1.00
C111   C     0.42772   0.14107   0.02222   0.00000  Uiso   1.00
C112   C     0.57442   0.17458   0.47783   0.00000  Uiso   1.00
H113   H     0.40053   0.13297   0.45846   0.00000  Uiso   1.00
H114   H     0.60221   0.17910   0.04151   0.00000  Uiso   1.00
C115   C     0.35432   0.12375   0.24607   0.00000  Uiso   1.00
C116   C     0.64586   0.20895   0.25758   0.00000  Uiso   1.00
C117   C     0.64535   0.12425   0.24349   0.00000  Uiso   1.00
C118   C     0.35484   0.20828   0.26090   0.00000  Uiso   1.00
C119   C     0.62402   0.16686   0.24923   0.00000  Uiso   1.00
C120   C     0.37614   0.16600   0.25367   0.00000  Uiso   1.00
C121   C     0.47652   0.02466   0.22038   0.00000  Uiso   1.00
C122   C     0.52343   0.30867   0.27966   0.00000  Uiso   1.00
C123   C     0.52346   0.02500   0.27964   0.00000  Uiso   1.00
C124   C     0.47647   0.30833   0.22042   0.00000  Uiso   1.00
H125   H     0.45777   0.04330   0.19665   0.00000  Uiso   1.00
H126   H     0.54210   0.29004   0.30346   0.00000  Uiso   1.00
H127   H     0.54227   0.04390   0.30333   0.00000  Uiso   1.00
H128   H     0.45758   0.28944   0.19680   0.00000  Uiso   1.00
N129   N     0.50000   0.28402   0.25000   0.00000  Uiso   1.00
N130   N     0.50000   0.04931   0.25000   0.00000  Uiso   1.00
N131   N     0.57013   0.19455   0.38267   0.00000  Uiso   1.00
O132   O     0.58671   0.17046   0.35092   0.00000  Uiso   1.00
O133   O     0.58292   0.23705   0.39071   0.00000  Uiso   1.00
N134   N     0.42528   0.16272   0.11729   0.00000  Uiso   1.00
O135   O     0.41732   0.13437   0.14990   0.00000  Uiso   1.00
O136   O     0.40019   0.19677   0.10842   0.00000  Uiso   1.00
C137   C     0.42485   0.14846   0.38038   0.00000  Uiso   1.00
O138   O     0.42164   0.11524   0.35487   0.00000  Uiso   1.00
O139   O     0.39250   0.17973   0.38554   0.00000  Uiso   1.00
H140   H     0.36830   0.17157   0.36583   0.00000  Uiso   1.00
C141   C     0.57463   0.18342   0.11952   0.00000  Uiso   1.00
O142   O     0.58771   0.15452   0.14584   0.00000  Uiso   1.00
O143   O     0.59518   0.22601   0.11347   0.00000  Uiso   1.00
H144   H     0.62047   0.22880   0.13287   0.00000  Uiso   1.00
C145   C     0.39138   0.11897   0.04260   0.00000  Uiso   1.00
O146   O     0.35716   0.13197   0.03201   0.00000  Uiso   1.00
O147   O     0.39630   0.08181   0.07239   0.00000  Uiso   1.00
H148   H     0.36931   0.06941   0.08380   0.00000  Uiso   1.00
C149   C     0.61523   0.16955   0.45760   0.00000  Uiso   1.00
O150   O     0.64261   0.19707   0.46734   0.00000  Uiso   1.00
O151   O     0.62283   0.13187   0.42912   0.00000  Uiso   1.00
H152   H     0.65203   0.13139   0.41835   0.00000  Uiso   1.00
N153   N     0.37457   0.07961   0.24053   0.00000  Uiso   1.00
O154   O     0.38738   0.05686   0.27529   0.00000  Uiso   1.00
O155   O     0.37326   0.05839   0.20230   0.00000  Uiso   1.00
N156   N     0.62551   0.25285   0.26409   0.00000  Uiso   1.00
O157   O     0.61413   0.27735   0.22982   0.00000  Uiso   1.00
O158   O     0.62518   0.27201   0.30327   0.00000  Uiso   1.00
N159   N     0.62455   0.08061   0.23530   0.00000  Uiso   1.00
O160   O     0.60986   0.07140   0.19604   0.00000  Uiso   1.00
O161   O     0.62512   0.04778   0.26525   0.00000  Uiso   1.00
N162   N     0.37571   0.25105   0.27245   0.00000  Uiso   1.00
O163   O     0.39380   0.25508   0.31082   0.00000  Uiso   1.00
O164   O     0.37387   0.28718   0.24618   0.00000  Uiso   1.00
O165   O     0.77321   0.20625   0.25000   0.00000  Uiso   1.00
O166   O     0.89345   0.12709   0.25001   0.00000  Uiso   1.00
O167   O     0.89345   0.20625   0.25001   0.00000  Uiso   1.00
O168   O     0.77321   0.12709   0.25000   0.00000  Uiso   1.00
C169   C     0.75407   0.16649   0.25165   0.00000  Uiso   1.00
C170   C     0.91267   0.16676   0.24930   0.00000  Uiso   1.00
O171   O     0.83332   0.20627   0.18513   0.00000  Uiso   1.00
O172   O     0.83334   0.12707   0.31487   0.00000  Uiso   1.00
O173   O     0.83334   0.20627   0.31487   0.00000  Uiso   1.00
O174   O     0.83332   0.12707   0.18513   0.00000  Uiso   1.00
C175   C     0.83300   0.16662   0.16457   0.00000  Uiso   1.00
C176   C     0.83306   0.16665   0.33544   0.00000  Uiso   1.00
Cu177  Cu    0.83333   0.21355   0.25000   0.00000  Uiso   1.00
Cu178  Cu    0.83333   0.11978   0.25000   0.00000  Uiso   1.00
C179   C     0.86934   0.17591   0.40667   0.00000  Uiso   1.00
C180   C     0.79627   0.15907   0.09341   0.00000  Uiso   1.00
C181   C     0.83295   0.16609   0.38361   0.00000  Uiso   1.00
C182   C     0.83318   0.16612   0.11639   0.00000  Uiso   1.00
C183   C     0.79663   0.15579   0.40607   0.00000  Uiso   1.00
C184   C     0.86998   0.17335   0.09387   0.00000  Uiso   1.00
C185   C     0.79682   0.15507   0.45278   0.00000  Uiso   1.00
C186   C     0.87005   0.17225   0.04719   0.00000  Uiso   1.00
C187   C     0.83361   0.16344   0.47651   0.00000  Uiso   1.00
C188   C     0.83332   0.16346   0.02350   0.00000  Uiso   1.00
C189   C     0.87067   0.17151   0.45336   0.00000  Uiso   1.00
C190   C     0.79642   0.15450   0.04668   0.00000  Uiso   1.00
C191   C     0.76137   0.14328   0.47611   0.00000  Uiso   1.00
C192   C     0.90672   0.17669   0.02389   0.00000  Uiso   1.00
C193   C     0.76105   0.14107   0.02222   0.00000  Uiso   1.00
C194   C     0.90775   0.17458   0.47783   0.00000  Uiso   1.00
H195   H     0.73386   0.13297   0.45846   0.00000  Uiso   1.00
H196   H     0.93554   0.17910   0.04151   0.00000  Uiso   1.00
C197   C     0.68765   0.12375   0.24607   0.00000  Uiso   1.00
C198   C     0.97919   0.20895   0.25758   0.00000  Uiso   1.00
C199   C     0.97868   0.12425   0.24349   0.00000  Uiso   1.00
C200   C     0.68817   0.20828   0.26090   0.00000  Uiso   1.00
C201   C     0.95735   0.16686   0.24923   0.00000  Uiso   1.00
C202   C     0.70947   0.16600   0.25367   0.00000  Uiso   1.00
C203   C     0.80985   0.02466   0.22038   0.00000  Uiso   1.00
C204   C     0.85676   0.30867   0.27966   0.00000  Uiso   1.00
C205   C     0.85680   0.02500   0.27964   0.00000  Uiso   1.00
C206   C     0.80980   0.30833   0.22042   0.00000  Uiso   1.00
H207   H     0.79111   0.04330   0.19665   0.00000  Uiso   1.00
H208   H     0.87543   0.29004   0.30346   0.00000  Uiso   1.00
H209   H     0.87560   0.04390   0.30333   0.00000  Uiso   1.00
H210   H     0.79092   0.28944   0.19680   0.00000  Uiso   1.00
N211   N     0.83333   0.28402   0.25000   0.00000  Uiso   1.00
N212   N     0.83333   0.04931   0.25000   0.00000  Uiso   1.00
N213   N     0.90347   0.19455   0.38267   0.00000  Uiso   1.00
O214   O     0.92004   0.17046   0.35092   0.00000  Uiso   1.00
O215   O     0.91626   0.23705   0.39071   0.00000  Uiso   1.00
N216   N     0.75861   0.16272   0.11729   0.00000  Uiso   1.00
O217   O     0.75065   0.13437   0.14990   0.00000  Uiso   1.00
O218   O     0.73353   0.19677   0.10842   0.00000  Uiso   1.00
C219   C     0.75818   0.14846   0.38038   0.00000  Uiso   1.00
O220   O     0.75497   0.11524   0.35487   0.00000  Uiso   1.00
O221   O     0.72584   0.17973   0.38554   0.00000  Uiso   1.00
H222   H     0.70163   0.17157   0.36583   0.00000  Uiso   1.00
C223   C     0.90796   0.18342   0.11952   0.00000  Uiso   1.00
O224   O     0.92104   0.15452   0.14584   0.00000  Uiso   1.00
O225   O     0.92852   0.22601   0.11347   0.00000  Uiso   1.00
H226   H     0.95381   0.22880   0.13287   0.00000  Uiso   1.00
C227   C     0.72471   0.11897   0.04260   0.00000  Uiso   1.00
O228   O     0.69049   0.13197   0.03201   0.00000  Uiso   1.00
O229   O     0.72963   0.08181   0.07239   0.00000  Uiso   1.00
H230   H     0.70264   0.06941   0.08380   0.00000  Uiso   1.00
C231   C     0.94856   0.16955   0.45760   0.00000  Uiso   1.00
O232   O     0.97594   0.19707   0.46734   0.00000  Uiso   1.00
O233   O     0.95616   0.13187   0.42912   0.00000  Uiso   1.00
H234   H     0.98536   0.13139   0.41835   0.00000  Uiso   1.00
N235   N     0.70790   0.07961   0.24053   0.00000  Uiso   1.00
O236   O     0.72071   0.05686   0.27529   0.00000  Uiso   1.00
O237   O     0.70659   0.05839   0.20230   0.00000  Uiso   1.00
N238   N     0.95884   0.25285   0.26409   0.00000  Uiso   1.00
O239   O     0.94747   0.27735   0.22982   0.00000  Uiso   1.00
O240   O     0.95851   0.27201   0.30327   0.00000  Uiso   1.00
N241   N     0.95789   0.08061   0.23530   0.00000  Uiso   1.00
O242   O     0.94319   0.07140   0.19604   0.00000  Uiso   1.00
O243   O     0.95846   0.04778   0.26525   0.00000  Uiso   1.00
N244   N     0.70905   0.25105   0.27245   0.00000  Uiso   1.00
O245   O     0.72714   0.25508   0.31082   0.00000  Uiso   1.00
O246   O     0.70720   0.28718   0.24618   0.00000  Uiso   1.00
O247   O     0.10655   0.53958   0.25000   0.00000  Uiso   1.00
O248   O     0.22679   0.46042   0.25001   0.00000  Uiso   1.00
O249   O     0.22679   0.53958   0.25001   0.00000  Uiso   1.00
O250   O     0.10655   0.46042   0.25000   0.00000  Uiso   1.00
C251   C     0.08740   0.49983   0.25165   0.00000  Uiso   1.00
C252   C     0.24600   0.50010   0.24930   0.00000  Uiso   1.00
O253   O     0.16666   0.53960   0.18513   0.00000  Uiso   1.00
O254   O     0.16668   0.46040   0.31487   0.00000  Uiso   1.00
O255   O     0.16668   0.53960   0.31487   0.00000  Uiso   1.00
O256   O     0.16666   0.46040   0.18513   0.00000  Uiso   1.00
C257   C     0.16633   0.49996   0.16457   0.00000  Uiso   1.00
C258   C     0.16639   0.49999   0.33544   0.00000  Uiso   1.00
Cu259  Cu    0.16667   0.54689   0.25000   0.00000  Uiso   1.00
Cu260  Cu    0.16667   0.45311   0.25000   0.00000  Uiso   1.00
C261   C     0.20268   0.50924   0.40667   0.00000  Uiso   1.00
C262   C     0.12960   0.49241   0.09341   0.00000  Uiso   1.00
C263   C     0.16629   0.49942   0.38361   0.00000  Uiso   1.00
C264   C     0.16652   0.49945   0.11639   0.00000  Uiso   1.00
C265   C     0.12996   0.48913   0.40607   0.00000  Uiso   1.00
C266   C     0.20332   0.50668   0.09387   0.00000  Uiso   1.00
C267   C     0.13015   0.48840   0.45278   0.00000  Uiso   1.00
C268   C     0.20339   0.50559   0.04719   0.00000  Uiso   1.00
C269   C     0.16694   0.49677   0.47651   0.00000  Uiso   1.00
C270   C     0.16665   0.49679   0.02350   0.00000  Uiso   1.00
C271   C     0.20401   0.50484   0.45336   0.00000  Uiso   1.00
C272   C     0.12975   0.48783   0.04668   0.00000  Uiso   1.00
C273   C     0.09470   0.47662   0.47611   0.00000  Uiso   1.00
C274   C     0.24005   0.51003   0.02389   0.00000  Uiso   1.00
C275   C     0.09439   0.47440   0.02222   0.00000  Uiso   1.00
C276   C     0.24109   0.50791   0.47783   0.00000  Uiso   1.00
H277   H     0.06720   0.46631   0.45846   0.00000  Uiso   1.00
H278   H     0.26888   0.51244   0.04151   0.00000  Uiso   1.00
C279   C     0.02098   0.45709   0.24607   0.00000  Uiso   1.00
C280   C     0.31252   0.54229   0.25758   0.00000  Uiso   1.00
C281   C     0.31202   0.45759   0.24349   0.00000  Uiso   1.00
C282   C     0.02150   0.54162   0.26090   0.00000  Uiso   1.00
C283   C     0.29069   0.50019   0.24923   0.00000  Uiso   1.00
C284   C     0.04281   0.49933   0.25367   0.00000  Uiso   1.00
C285   C     0.14318   0.35800   0.22038   0.00000  Uiso   1.00
C286   C     0.19009   0.64201   0.27966   0.00000  Uiso   1.00
C287   C     0.19013   0.35833   0.27964   0.00000  Uiso   1.00
C288   C     0.14314   0.64167   0.22042   0.00000  Uiso   1.00
H289   H     0.12444   0.37663   0.19665   0.00000  Uiso   1.00
H290   H     0.20877   0.62337   0.30346   0.00000  Uiso   1.00
H291   H     0.20894   0.37723   0.30333   0.00000  Uiso   1.00
H292   H     0.12425   0.62277   0.19680   0.00000  Uiso   1.00
N293   N     0.16667   0.61736   0.25000   0.00000  Uiso   1.00
N294   N     0.16667   0.38264   0.25000   0.00000  Uiso   1.00
N295   N     0.23680   0.52789   0.38267   0.00000  Uiso   1.00
O296   O     0.25338   0.50379   0.35092   0.00000  Uiso   1.00
O297   O     0.24959   0.57038   0.39071   0.00000  Uiso   1.00
N298   N     0.09194   0.49605   0.11729   0.00000  Uiso   1.00
O299   O     0.08398   0.46770   0.14990   0.00000  Uiso   1.00
O300   O     0.06686   0.53010   0.10842   0.00000  Uiso   1.00
C301   C     0.09152   0.48179   0.38038   0.00000  Uiso   1.00
O302   O     0.08831   0.44857   0.35487   0.00000  Uiso   1.00
O303   O     0.05917   0.51307   0.38554   0.00000  Uiso   1.00
H304   H     0.03497   0.50490   0.36583   0.00000  Uiso   1.00
C305   C     0.24129   0.51676   0.11952   0.00000  Uiso   1.00
O306   O     0.25438   0.48785   0.14584   0.00000  Uiso   1.00
O307   O     0.26185   0.55934   0.11347   0.00000  Uiso   1.00
H308   H     0.28714   0.56213   0.13287   0.00000  Uiso   1.00
C309   C     0.05804   0.45230   0.04260   0.00000  Uiso   1.00
O310   O     0.02382   0.46530   0.03201   0.00000  Uiso   1.00
O311   O     0.06296   0.41514   0.07239   0.00000  Uiso   1.00
H312   H     0.03598   0.40275   0.08380   0.00000  Uiso   1.00
C313   C     0.28190   0.50288   0.45760   0.00000  Uiso   1.00
O314   O     0.30928   0.53040   0.46734   0.00000  Uiso   1.00
O315   O     0.28950   0.46520   0.42912   0.00000  Uiso   1.00
H316   H     0.31869   0.46473   0.41835   0.00000  Uiso   1.00
N317   N     0.04124   0.41294   0.24053   0.00000  Uiso   1.00
O318   O     0.05404   0.39020   0.27529   0.00000  Uiso   1.00
O319   O     0.03992   0.39172   0.20230   0.00000  Uiso   1.00
N320   N     0.29218   0.58618   0.26409   0.00000  Uiso   1.00
O321   O     0.28080   0.61069   0.22982   0.00000  Uiso   1.00
O322   O     0.29184   0.60534   0.30327   0.00000  Uiso   1.00
N323   N     0.29122   0.41394   0.23530   0.00000  Uiso   1.00
O324   O     0.27653   0.40473   0.19604   0.00000  Uiso   1.00
O325   O     0.29179   0.38111   0.26525   0.00000  Uiso   1.00
N326   N     0.04238   0.58439   0.27245   0.00000  Uiso   1.00
O327   O     0.06047   0.58841   0.31082   0.00000  Uiso   1.00
O328   O     0.04053   0.62051   0.24618   0.00000  Uiso   1.00
O329   O     0.43988   0.53958   0.25000   0.00000  Uiso   1.00
O330   O     0.56012   0.46042   0.25001   0.00000  Uiso   1.00
O331   O     0.56012   0.53958   0.25001   0.00000  Uiso   1.00
O332   O     0.43988   0.46042   0.25000   0.00000  Uiso   1.00
C333   C     0.42074   0.49983   0.25165   0.00000  Uiso   1.00
C334   C     0.57933   0.50010   0.24930   0.00000  Uiso   1.00
O335   O     0.49999   0.53960   0.18513   0.00000  Uiso   1.00
O336   O     0.50001   0.46040   0.31487   0.00000  Uiso   1.00
O337   O     0.50001   0.53960   0.31487   0.00000  Uiso   1.00
O338   O     0.49999   0.46040   0.18513   0.00000  Uiso   1.00
C339   C     0.49966   0.49996   0.16457   0.00000  Uiso   1.00
C340   C     0.49972   0.49999   0.33544   0.00000  Uiso   1.00
Cu341  Cu    0.50000   0.54689   0.25000   0.00000  Uiso   1.00
Cu342  Cu    0.50000   0.45311   0.25000   0.00000  Uiso   1.00
C343   C     0.53601   0.50924   0.40667   0.00000  Uiso   1.00
C344   C     0.46294   0.49241   0.09341   0.00000  Uiso   1.00
C345   C     0.49962   0.49942   0.38361   0.00000  Uiso   1.00
C346   C     0.49985   0.49945   0.11639   0.00000  Uiso   1.00
C347   C     0.46329   0.48913   0.40607   0.00000  Uiso   1.00
C348   C     0.53665   0.50668   0.09387   0.00000  Uiso   1.00
C349   C     0.46348   0.48840   0.45278   0.00000  Uiso   1.00
C350   C     0.53672   0.50559   0.04719   0.00000  Uiso   1.00
C351   C     0.50028   0.49677   0.47651   0.00000  Uiso   1.00
C352   C     0.49998   0.49679   0.02350   0.00000  Uiso   1.00
C353   C     0.53734   0.50484   0.45336   0.00000  Uiso   1.00
C354   C     0.46308   0.48783   0.04668   0.00000  Uiso   1.00
C355   C     0.42804   0.47662   0.47611   0.00000  Uiso   1.00
C356   C     0.57338   0.51003   0.02389   0.00000  Uiso   1.00
C357   C     0.42772   0.47440   0.02222   0.00000  Uiso   1.00
C358   C     0.57442   0.50791   0.47783   0.00000  Uiso   1.00
H359   H     0.40053   0.46631   0.45846   0.00000  Uiso   1.00
H360   H     0.60221   0.51244   0.04151   0.00000  Uiso   1.00
C361   C     0.35432   0.45709   0.24607   0.00000  Uiso   1.00
C362   C     0.64586   0.54229   0.25758   0.00000  Uiso   1.00
C363   C     0.64535   0.45759   0.24349   0.00000  Uiso   1.00
C364   C     0.35484   0.54162   0.26090   0.00000  Uiso   1.00
C365   C     0.62402   0.50019   0.24923   0.00000  Uiso   1.00
C366   C     0.37614   0.49933   0.25367   0.00000  Uiso   1.00
C367   C     0.47652   0.35800   0.22038   0.00000  Uiso   1.00
C368   C     0.52343   0.64201   0.27966   0.00000  Uiso   1.00
C369   C     0.52346   0.35833   0.27964   0.00000  Uiso   1.00
C370   C     0.47647   0.64167   0.22042   0.00000  Uiso   1.00
H371   H     0.45777   0.37663   0.19665   0.00000  Uiso   1.00
H372   H     0.54210   0.62337   0.30346   0.00000  Uiso   1.00
H373   H     0.54227   0.37723   0.30333   0.00000  Uiso   1.00
H374   H     0.45758   0.62277   0.19680   0.00000  Uiso   1.00
N375   N     0.50000   0.61736   0.25000   0.00000  Uiso   1.00
N376   N     0.50000   0.38264   0.25000   0.00000  Uiso   1.00
N377   N     0.57013   0.52789   0.38267   0.00000  Uiso   1.00
O378   O     0.58671   0.50379   0.35092   0.00000  Uiso   1.00
O379   O     0.58292   0.57038   0.39071   0.00000  Uiso   1.00
N380   N     0.42528   0.49605   0.11729   0.00000  Uiso   1.00
O381   O     0.41732   0.46770   0.14990   0.00000  Uiso   1.00
O382   O     0.40019   0.53010   0.10842   0.00000  Uiso   1.00
C383   C     0.42485   0.48179   0.38038   0.00000  Uiso   1.00
O384   O     0.42164   0.44857   0.35487   0.00000  Uiso   1.00
O385   O     0.39250   0.51307   0.38554   0.00000  Uiso   1.00
H386   H     0.36830   0.50490   0.36583   0.00000  Uiso   1.00
C387   C     0.57463   0.51676   0.11952   0.00000  Uiso   1.00
O388   O     0.58771   0.48785   0.14584   0.00000  Uiso   1.00
O389   O     0.59518   0.55934   0.11347   0.00000  Uiso   1.00
H390   H     0.62047   0.56213   0.13287   0.00000  Uiso   1.00
C391   C     0.39138   0.45230   0.04260   0.00000  Uiso   1.00
O392   O     0.35716   0.46530   0.03201   0.00000  Uiso   1.00
O393   O     0.39630   0.41514   0.07239   0.00000  Uiso   1.00
H394   H     0.36931   0.40275   0.08380   0.00000  Uiso   1.00
C395   C     0.61523   0.50288   0.45760   0.00000  Uiso   1.00
O396   O     0.64261   0.53040   0.46734   0.00000  Uiso   1.00
O397   O     0.62283   0.46520   0.42912   0.00000  Uiso   1.00
H398   H     0.65203   0.46473   0.41835   0.00000  Uiso   1.00
N399   N     0.37457   0.41294   0.24053   0.00000  Uiso   1.00
O400   O     0.38738   0.39020   0.27529   0.00000  Uiso   1.00
O401   O     0.37326   0.39172   0.20230   0.00000  Uiso   1.00
N402   N     0.62551   0.58618   0.26409   0.00000  Uiso   1.00
O403   O     0.61413   0.61069   0.22982   0.00000  Uiso   1.00
O404   O     0.62518   0.60534   0.30327   0.00000  Uiso   1.00
N405   N     0.62455   0.41394   0.23530   0.00000  Uiso   1.00
O406   O     0.60986   0.40473   0.19604   0.00000  Uiso   1.00
O407   O     0.62512   0.38111   0.26525   0.00000  Uiso   1.00
N408   N     0.37571   0.58439   0.27245   0.00000  Uiso   1.00
O409   O     0.39380   0.58841   0.31082   0.00000  Uiso   1.00
O410   O     0.37387   0.62051   0.24618   0.00000  Uiso   1.00
O411   O     0.77321   0.53958   0.25000   0.00000  Uiso   1.00
O412   O     0.89345   0.46042   0.25001   0.00000  Uiso   1.00
O413   O     0.89345   0.53958   0.25001   0.00000  Uiso   1.00
O414   O     0.77321   0.46042   0.25000   0.00000  Uiso   1.00
C415   C     0.75407   0.49983   0.25165   0.00000  Uiso   1.00
C416   C     0.91267   0.50010   0.24930   0.00000  Uiso   1.00
O417   O     0.83332   0.53960   0.18513   0.00000  Uiso   1.00
O418   O     0.83334   0.46040   0.31487   0.00000  Uiso   1.00
O419   O     0.83334   0.53960   0.31487   0.00000  Uiso   1.00
O420   O     0.83332   0.46040   0.18513   0.00000  Uiso   1.00
C421   C     0.83300   0.49996   0.16457   0.00000  Uiso   1.00
C422   C     0.83306   0.49999   0.33544   0.00000  Uiso   1.00
Cu423  Cu    0.83333   0.54689   0.25000   0.00000  Uiso   1.00
Cu424  Cu    0.83333   0.45311   0.25000   0.00000  Uiso   1.00
C425   C     0.86934   0.50924   0.40667   0.00000  Uiso   1.00
C426   C     0.79627   0.49241   0.09341   0.00000  Uiso   1.00
C427   C     0.83295   0.49942   0.38361   0.00000  Uiso   1.00
C428   C     0.83318   0.49945   0.11639   0.00000  Uiso   1.00
C429   C     0.79663   0.48913   0.40607   0.00000  Uiso   1.00
C430   C     0.86998   0.50668   0.09387   0.00000  Uiso   1.00
C431   C     0.79682   0.48840   0.45278   0.00000  Uiso   1.00
C432   C     0.87005   0.50559   0.04719   0.00000  Uiso   1.00
C433   C     0.83361   0.49677   0.47651   0.00000  Uiso   1.00
C434   C     0.83332   0.49679   0.02350   0.00000  Uiso   1.00
C435   C     0.87067   0.50484   0.45336   0.00000  Uiso   1.00
C436   C     0.79642   0.48783   0.04668   0.00000  Uiso   1.00
C437   C     0.76137   0.47662   0.47611   0.00000  Uiso   1.00
C438   C     0.90672   0.51003   0.02389   0.00000  Uiso   1.00
C439   C     0.76105   0.47440   0.02222   0.00000  Uiso   1.00
C440   C     0.90775   0.50791   0.47783   0.00000  Uiso   1.00
H441   H     0.73386   0.46631   0.45846   0.00000  Uiso   1.00
H442   H     0.93554   0.51244   0.04151   0.00000  Uiso   1.00
C443   C     0.68765   0.45709   0.24607   0.00000  Uiso   1.00
C444   C     0.97919   0.54229   0.25758   0.00000  Uiso   1.00
C445   C     0.97868   0.45759   0.24349   0.00000  Uiso   1.00
C446   C     0.68817   0.54162   0.26090   0.00000  Uiso   1.00
C447   C     0.95735   0.50019   0.24923   0.00000  Uiso   1.00
C448   C     0.70947   0.49933   0.25367   0.00000  Uiso   1.00
C449   C     0.80985   0.35800   0.22038   0.00000  Uiso   1.00
C450   C     0.85676   0.64201   0.27966   0.00000  Uiso   1.00
C451   C     0.85680   0.35833   0.27964   0.00000  Uiso   1.00
C452   C     0.80980   0.64167   0.22042   0.00000  Uiso   1.00
H453   H     0.79111   0.37663   0.19665   0.00000  Uiso   1.00
H454   H     0.87543   0.62337   0.30346   0.00000  Uiso   1.00
H455   H     0.87560   0.37723   0.30333   0.00000  Uiso   1.00
H456   H     0.79092   0.62277   0.19680   0.00000  Uiso   1.00
N457   N     0.83333   0.61736   0.25000   0.00000  Uiso   1.00
N458   N     0.83333   0.38264   0.25000   0.00000  Uiso   1.00
N459   N     0.90347   0.52789   0.38267   0.00000  Uiso   1.00
O460   O     0.92004   0.50379   0.35092   0.00000  Uiso   1.00
O461   O     0.91626   0.57038   0.39071   0.00000  Uiso   1.00
N462   N     0.75861   0.49605   0.11729   0.00000  Uiso   1.00
O463   O     0.75065   0.46770   0.14990   0.00000  Uiso   1.00
O464   O     0.73353   0.53010   0.10842   0.00000  Uiso   1.00
C465   C     0.75818   0.48179   0.38038   0.00000  Uiso   1.00
O466   O     0.75497   0.44857   0.35487   0.00000  Uiso   1.00
O467   O     0.72584   0.51307   0.38554   0.00000  Uiso   1.00
H468   H     0.70163   0.50490   0.36583   0.00000  Uiso   1.00
C469   C     0.90796   0.51676   0.11952   0.00000  Uiso   1.00
O470   O     0.92104   0.48785   0.14584   0.00000  Uiso   1.00
O471   O     0.92852   0.55934   0.11347   0.00000  Uiso   1.00
H472   H     0.95381   0.56213   0.13287   0.00000  Uiso   1.00
C473   C     0.72471   0.45230   0.04260   0.00000  Uiso   1.00
O474   O     0.69049   0.46530   0.03201   0.00000  Uiso   1.00
O475   O     0.72963   0.41514   0.07239   0.00000  Uiso   1.00
H476   H     0.70264   0.40275   0.08380   0.00000  Uiso   1.00
C477   C     0.94856   0.50288   0.45760   0.00000  Uiso   1.00
O478   O     0.97594   0.53040   0.46734   0.00000  Uiso   1.00
O479   O     0.95616   0.46520   0.42912   0.00000  Uiso   1.00
H480   H     0.98536   0.46473   0.41835   0.00000  Uiso   1.00
N481   N     0.70790   0.41294   0.24053   0.00000  Uiso   1.00
O482   O     0.72071   0.39020   0.27529   0.00000  Uiso   1.00
O483   O     0.70659   0.39172   0.20230   0.00000  Uiso   1.00
N484   N     0.95884   0.58618   0.26409   0.00000  Uiso   1.00
O485   O     0.94747   0.61069   0.22982   0.00000  Uiso   1.00
O486   O     0.95851   0.60534   0.30327   0.00000  Uiso   1.00
N487   N     0.95789   0.41394   0.23530   0.00000  Uiso   1.00
O488   O     0.94319   0.40473   0.19604   0.00000  Uiso   1.00
O489   O     0.95846   0.38111   0.26525   0.00000  Uiso   1.00
N490   N     0.70905   0.58439   0.27245   0.00000  Uiso   1.00
O491   O     0.72714   0.58841   0.31082   0.00000  Uiso   1.00
O492   O     0.70720   0.62051   0.24618   0.00000  Uiso   1.00
O493   O     0.10655   0.87291   0.25000   0.00000  Uiso   1.00
O494   O     0.22679   0.79375   0.25001   0.00000  Uiso   1.00
O495   O     0.22679   0.87291   0.25001   0.00000  Uiso   1.00
O496   O     0.10655   0.79375   0.25000   0.00000  Uiso   1.00
C497   C     0.08740   0.83316   0.25165   0.00000  Uiso   1.00
C498   C     0.24600   0.83343   0.24930   0.00000  Uiso   1.00
O499   O     0.16666   0.87293   0.18513   0.00000  Uiso   1.00
O500   O     0.16668   0.79373   0.31487   0.00000  Uiso   1.00
O501   O     0.16668   0.87293   0.31487   0.00000  Uiso   1.00
O502   O     0.16666   0.79373   0.18513   0.00000  Uiso   1.00
C503   C     0.16633   0.83329   0.16457   0.00000  Uiso   1.00
C504   C     0.16639   0.83332   0.33544   0.00000  Uiso   1.00
Cu505  Cu    0.16667   0.88022   0.25000   0.00000  Uiso   1.00
Cu506  Cu    0.16667   0.78645   0.25000   0.00000  Uiso   1.00
C507   C     0.20268   0.84257   0.40667   0.00000  Uiso   1.00
C508   C     0.12960   0.82574   0.09341   0.00000  Uiso   1.00
C509   C     0.16629   0.83276   0.38361   0.00000  Uiso   1.00
C510   C     0.16652   0.83279   0.11639   0.00000  Uiso   1.00
C511   C     0.12996   0.82246   0.40607   0.00000  Uiso   1.00
C512   C     0.20332   0.84002   0.09387   0.00000  Uiso   1.00
C513   C     0.13015   0.82173   0.45278   0.00000  Uiso   1.00
C514   C     0.20339   0.83892   0.04719   0.00000  Uiso   1.00
C515   C     0.16694   0.83011   0.47651   0.00000  Uiso   1.00
C516   C     0.16665   0.83012   0.02350   0.00000  Uiso   1.00
C517   C     0.20401   0.83817   0.45336   0.00000  Uiso   1.00
C518   C     0.12975   0.82117   0.04668   0.00000  Uiso   1.00
C519   C     0.09470   0.80995   0.47611   0.00000  Uiso   1.00
C520   C     0.24005   0.84336   0.02389   0.00000  Uiso   1.00
C521   C     0.09439   0.80773   0.02222   0.00000  Uiso   1.00
C522   C     0.24109   0.84125   0.47783   0.00000  Uiso   1.00
H523   H     0.06720   0.79964   0.45846   0.00000  Uiso   1.00
H524   H     0.26888   0.84577   0.04151   0.00000  Uiso   1.00
C525   C     0.02098   0.79042   0.24607   0.00000  Uiso   1.00
C526   C     0.31252   0.87562   0.25758   0.00000  Uiso   1.00
C527   C     0.31202   0.79092   0.24349   0.00000  Uiso   1.00
C528   C     0.02150   0.87495   0.26090   0.00000  Uiso   1.00
C529   C     0.29069   0.83353   0.24923   0.00000  Uiso   1.00
C530   C     0.04281   0.83266   0.25367   0.00000  Uiso   1.00
C531   C     0.14318   0.69133   0.22038   0.00000  Uiso   1.00
C532   C     0.19009   0.97534   0.27966   0.00000  Uiso   1.00
C533   C     0.19013   0.69167   0.27964   0.00000  Uiso   1.00
C534   C     0.14314   0.97500   0.22042   0.00000  Uiso   1.00
H535   H     0.12444   0.70996   0.19665   0.00000  Uiso   1.00
H536   H     0.20877   0.95671   0.30346   0.00000  Uiso   1.00
H537   H     0.20894   0.71056   0.30333   0.00000  Uiso   1.00
H538   H     0.12425   0.95610   0.19680   0.00000  Uiso   1.00
N539   N     0.16667   0.95069   0.25000   0.00000  Uiso   1.00
N540   N     0.16667   0.71598   0.25000   0.00000  Uiso   1.00
N541   N     0.23680   0.86122   0.38267   0.00000  Uiso   1.00
O542   O     0.25338   0.83712   0.35092   0.00000  Uiso   1.00
O543   O     0.24959   0.90371   0.39071   0.00000  Uiso   1.00
N544   N     0.09194   0.82938   0.11729   0.00000  Uiso   1.00
O545   O     0.08398   0.80103   0.14990   0.00000  Uiso   1.00
O546   O     0.06686   0.86344   0.10842   0.00000  Uiso   1.00
C547   C     0.09152   0.81513   0.38038   0.00000  Uiso   1.00
O548   O     0.08831   0.78190   0.35487   0.00000  Uiso   1.00
O549   O     0.05917   0.84640   0.38554   0.00000  Uiso   1.00
H550   H     0.03497   0.83824   0.36583   0.00000  Uiso   1.00
C551   C     0.24129   0.85009   0.11952   0.00000  Uiso   1.00
O552   O     0.25438   0.82119   0.14584   0.00000  Uiso   1.00
O553   O     0.26185   0.89267   0.11347   0.00000  Uiso   1.00
H554   H     0.28714   0.89547   0.13287   0.00000  Uiso   1.00
C555   C     0.05804   0.78563   0.04260   0.00000  Uiso   1.00
O556   O     0.02382   0.79863   0.03201   0.00000  Uiso   1.00
O557   O     0.06296   0.74848   0.07239   0.00000  Uiso   1.00
H558   H     0.03598   0.73608   0.08380   0.00000  Uiso   1.00
C559   C     0.28190   0.83621   0.45760   0.00000  Uiso   1.00
O560   O     0.30928   0.86373   0.46734   0.00000  Uiso   1.00
O561   O     0.28950   0.79854   0.42912   0.00000  Uiso   1.00
H562   H     0.31869   0.79806   0.41835   0.00000  Uiso   1.00
N563   N     0.04124   0.74628   0.24053   0.00000  Uiso   1.00
O564   O     0.05404   0.72353   0.27529   0.00000  Uiso   1.00
O565   O     0.03992   0.72506   0.20230   0.00000  Uiso   1.00
N566   N     0.29218   0.91951   0.26409   0.00000  Uiso   1.00
O567   O     0.28080   0.94402   0.22982   0.00000  Uiso   1.00
O568   O     0.29184   0.93867   0.30327   0.00000  Uiso   1.00
N569   N     0.29122   0.74727   0.23530   0.00000  Uiso   1.00
O570   O     0.27653   0.73806   0.19604   0.00000  Uiso   1.00
O571   O     0.29179   0.71445   0.26525   0.00000  Uiso   1.00
N572   N     0.04238   0.91772   0.27245   0.00000  Uiso   1.00
O573   O     0.06047   0.92175   0.31082   0.00000  Uiso   1.00
O574   O     0.04053   0.95384   0.24618   0.00000  Uiso   1.00
O575   O     0.43988   0.87291   0.25000   0.00000  Uiso   1.00
O576   O     0.56012   0.79375   0.25001   0.00000  Uiso   1.00
O577   O     0.56012   0.87291   0.25001   0.00000  Uiso   1.00
O578   O     0.43988   0.79375   0.25000   0.00000  Uiso   1.00
C579   C     0.42074   0.83316   0.25165   0.00000  Uiso   1.00
C580   C     0.57933   0.83343   0.24930   0.00000  Uiso   1.00
O581   O     0.49999   0.87293   0.18513   0.00000  Uiso   1.00
O582   O     0.50001   0.79373   0.31487   0.00000  Uiso   1.00
O583   O     0.50001   0.87293   0.31487   0.00000  Uiso   1.00
O584   O     0.49999   0.79373   0.18513   0.00000  Uiso   1.00
C585   C     0.49966   0.83329   0.16457   0.00000  Uiso   1.00
C586   C     0.49972   0.83332   0.33544   0.00000  Uiso   1.00
Cu587  Cu    0.50000   0.88022   0.25000   0.00000  Uiso   1.00
Cu588  Cu    0.50000   0.78645   0.25000   0.00000  Uiso   1.00
C589   C     0.53601   0.84257   0.40667   0.00000  Uiso   1.00
C590   C     0.46294   0.82574   0.09341   0.00000  Uiso   1.00
C591   C     0.49962   0.83276   0.38361   0.00000  Uiso   1.00
C592   C     0.49985   0.83279   0.11639   0.00000  Uiso   1.00
C593   C     0.46329   0.82246   0.40607   0.00000  Uiso   1.00
C594   C     0.53665   0.84002   0.09387   0.00000  Uiso   1.00
C595   C     0.46348   0.82173   0.45278   0.00000  Uiso   1.00
C596   C     0.53672   0.83892   0.04719   0.00000  Uiso   1.00
C597   C     0.50028   0.83011   0.47651   0.00000  Uiso   1.00
C598   C     0.49998   0.83012   0.02350   0.00000  Uiso   1.00
C599   C     0.53734   0.83817   0.45336   0.00000  Uiso   1.00
C600   C     0.46308   0.82117   0.04668   0.00000  Uiso   1.00
C601   C     0.42804   0.80995   0.47611   0.00000  Uiso   1.00
C602   C     0.57338   0.84336   0.02389   0.00000  Uiso   1.00
C603   C     0.42772   0.80773   0.02222   0.00000  Uiso   1.00
C604   C     0.57442   0.84125   0.47783   0.00000  Uiso   1.00
H605   H     0.40053   0.79964   0.45846   0.00000  Uiso   1.00
H606   H     0.60221   0.84577   0.04151   0.00000  Uiso   1.00
C607   C     0.35432   0.79042   0.24607   0.00000  Uiso   1.00
C608   C     0.64586   0.87562   0.25758   0.00000  Uiso   1.00
C609   C     0.64535   0.79092   0.24349   0.00000  Uiso   1.00
C610   C     0.35484   0.87495   0.26090   0.00000  Uiso   1.00
C611   C     0.62402   0.83353   0.24923   0.00000  Uiso   1.00
C612   C     0.37614   0.83266   0.25367   0.00000  Uiso   1.00
C613   C     0.47652   0.69133   0.22038   0.00000  Uiso   1.00
C614   C     0.52343   0.97534   0.27966   0.00000  Uiso   1.00
C615   C     0.52346   0.69167   0.27964   0.00000  Uiso   1.00
C616   C     0.47647   0.97500   0.22042   0.00000  Uiso   1.00
H617   H     0.45777   0.70996   0.19665   0.00000  Uiso   1.00
H618   H     0.54210   0.95671   0.30346   0.00000  Uiso   1.00
H619   H     0.54227   0.71056   0.30333   0.00000  Uiso   1.00
H620   H     0.45758   0.95610   0.19680   0.00000  Uiso   1.00
N621   N     0.50000   0.95069   0.25000   0.00000  Uiso   1.00
N622   N     0.50000   0.71598   0.25000   0.00000  Uiso   1.00
N623   N     0.57013   0.86122   0.38267   0.00000  Uiso   1.00
O624   O     0.58671   0.83712   0.35092   0.00000  Uiso   1.00
O625   O     0.58292   0.90371   0.39071   0.00000  Uiso   1.00
N626   N     0.42528   0.82938   0.11729   0.00000  Uiso   1.00
O627   O     0.41732   0.80103   0.14990   0.00000  Uiso   1.00
O628   O     0.40019   0.86344   0.10842   0.00000  Uiso   1.00
C629   C     0.42485   0.81513   0.38038   0.00000  Uiso   1.00
O630   O     0.42164   0.78190   0.35487   0.00000  Uiso   1.00
O631   O     0.39250   0.84640   0.38554   0.00000  Uiso   1.00
H632   H     0.36830   0.83824   0.36583   0.00000  Uiso   1.00
C633   C     0.57463   0.85009   0.11952   0.00000  Uiso   1.00
O634   O     0.58771   0.82119   0.14584   0.00000  Uiso   1.00
O635   O     0.59518   0.89267   0.11347   0.00000  Uiso   1.00
H636   H     0.62047   0.89547   0.13287   0.00000  Uiso   1.00
C637   C     0.39138   0.78563   0.04260   0.00000  Uiso   1.00
O638   O     0.35716   0.79863   0.03201   0.00000  Uiso   1.00
O639   O     0.39630   0.74848   0.07239   0.00000  Uiso   1.00
H640   H     0.36931   0.73608   0.08380   0.00000  Uiso   1.00
C641   C     0.61523   0.83621   0.45760   0.00000  Uiso   1.00
O642   O     0.64261   0.86373   0.46734   0.00000  Uiso   1.00
O643   O     0.62283   0.79854   0.42912   0.00000  Uiso   1.00
H644   H     0.65203   0.79806   0.41835   0.00000  Uiso   1.00
N645   N     0.37457   0.74628   0.24053   0.00000  Uiso   1.00
O646   O     0.38738   0.72353   0.27529   0.00000  Uiso   1.00
O647   O     0.37326   0.72506   0.20230   0.00000  Uiso   1.00
N648   N     0.62551   0.91951   0.26409   0.00000  Uiso   1.00
O649   O     0.61413   0.94402   0.22982   0.00000  Uiso   1.00
O650   O     0.62518   0.93867   0.30327   0.00000  Uiso   1.00
N651   N     0.62455   0.74727   0.23530   0.00000  Uiso   1.00
O652   O     0.60986   0.73806   0.19604   0.00000  Uiso   1.00
O653   O     0.62512   0.71445   0.26525   0.00000  Uiso   1.00
N654   N     0.37571   0.91772   0.27245   0.00000  Uiso   1.00
O655   O     0.39380   0.92175   0.31082   0.00000  Uiso   1.00
O656   O     0.37387   0.95384   0.24618   0.00000  Uiso   1.00
O657   O     0.77321   0.87291   0.25000   0.00000  Uiso   1.00
O658   O     0.89345   0.79375   0.25001   0.00000  Uiso   1.00
O659   O     0.89345   0.87291   0.25001   0.00000  Uiso   1.00
O660   O     0.77321   0.79375   0.25000   0.00000  Uiso   1.00
C661   C     0.75407   0.83316   0.25165   0.00000  Uiso   1.00
C662   C     0.91267   0.83343   0.24930   0.00000  Uiso   1.00
O663   O     0.83332   0.87293   0.18513   0.00000  Uiso   1.00
O664   O     0.83334   0.79373   0.31487   0.00000  Uiso   1.00
O665   O     0.83334   0.87293   0.31487   0.00000  Uiso   1.00
O666   O     0.83332   0.79373   0.18513   0.00000  Uiso   1.00
C667   C     0.83300   0.83329   0.16457   0.00000  Uiso   1.00
C668   C     0.83306   0.83332   0.33544   0.00000  Uiso   1.00
Cu669  Cu    0.83333   0.88022   0.25000   0.00000  Uiso   1.00
Cu670  Cu    0.83333   0.78645   0.25000   0.00000  Uiso   1.00
C671   C     0.86934   0.84257   0.40667   0.00000  Uiso   1.00
C672   C     0.79627   0.82574   0.09341   0.00000  Uiso   1.00
C673   C     0.83295   0.83276   0.38361   0.00000  Uiso   1.00
C674   C     0.83318   0.83279   0.11639   0.00000  Uiso   1.00
C675   C     0.79663   0.82246   0.40607   0.00000  Uiso   1.00
C676   C     0.86998   0.84002   0.09387   0.00000  Uiso   1.00
C677   C     0.79682   0.82173   0.45278   0.00000  Uiso   1.00
C678   C     0.87005   0.83892   0.04719   0.00000  Uiso   1.00
C679   C     0.83361   0.83011   0.47651   0.00000  Uiso   1.00
C680   C     0.83332   0.83012   0.02350   0.00000  Uiso   1.00
C681   C     0.87067   0.83817   0.45336   0.00000  Uiso   1.00
C682   C     0.79642   0.82117   0.04668   0.00000  Uiso   1.00
C683   C     0.76137   0.80995   0.47611   0.00000  Uiso   1.00
C684   C     0.90672   0.84336   0.02389   0.00000  Uiso   1.00
C685   C     0.76105   0.80773   0.02222   0.00000  Uiso   1.00
C686   C     0.90775   0.84125   0.47783   0.00000  Uiso   1.00
H687   H     0.73386   0.79964   0.45846   0.00000  Uiso   1.00
H688   H     0.93554   0.84577   0.04151   0.00000  Uiso   1.00
C689   C     0.68765   0.79042   0.24607   0.00000  Uiso   1.00
C690   C     0.97919   0.87562   0.25758   0.00000  Uiso   1.00
C691   C     0.97868   0.79092   0.24349   0.00000  Uiso   1.00
C692   C     0.68817   0.87495   0.26090   0.00000  Uiso   1.00
C693   C     0.95735   0.83353   0.24923   0.00000  Uiso   1.00
C694   C     0.70947   0.83266   0.25367   0.00000  Uiso   1.00
C695   C     0.80985   0.69133   0.22038   0.00000  Uiso   1.00
C696   C     0.85676   0.97534   0.27966   0.00000  Uiso   1.00
C697   C     0.85680   0.69167   0.27964   0.00000  Uiso   1.00
C698   C     0.80980   0.97500   0.22042   0.00000  Uiso   1.00
H699   H     0.79111   0.70996   0.19665   0.00000  Uiso   1.00
H700   H     0.87543   0.95671   0.30346   0.00000  Uiso   1.00
H701   H     0.87560   0.71056   0.30333   0.00000  Uiso   1.00
H702   H     0.79092   0.95610   0.19680   0.00000  Uiso   1.00
N703   N     0.83333   0.95069   0.25000   0.00000  Uiso   1.00
N704   N     0.83333   0.71598   0.25000   0.00000  Uiso   1.00
N705   N     0.90347   0.86122   0.38267   0.00000  Uiso   1.00
O706   O     0.92004   0.83712   0.35092   0.00000  Uiso   1.00
O707   O     0.91626   0.90371   0.39071   0.00000  Uiso   1.00
N708   N     0.75861   0.82938   0.11729   0.00000  Uiso   1.00
O709   O     0.75065   0.80103   0.14990   0.00000  Uiso   1.00
O710   O     0.73353   0.86344   0.10842   0.00000  Uiso   1.00
C711   C     0.75818   0.81513   0.38038   0.00000  Uiso   1.00
O712   O     0.75497   0.78190   0.35487   0.00000  Uiso   1.00
O713   O     0.72584   0.84640   0.38554   0.00000  Uiso   1.00
H714   H     0.70163   0.83824   0.36583   0.00000  Uiso   1.00
C715   C     0.90796   0.85009   0.11952   0.00000  Uiso   1.00
O716   O     0.92104   0.82119   0.14584   0.00000  Uiso   1.00
O717   O     0.92852   0.89267   0.11347   0.00000  Uiso   1.00
H718   H     0.95381   0.89547   0.13287   0.00000  Uiso   1.00
C719   C     0.72471   0.78563   0.04260   0.00000  Uiso   1.00
O720   O     0.69049   0.79863   0.03201   0.00000  Uiso   1.00
O721   O     0.72963   0.74848   0.07239   0.00000  Uiso   1.00
H722   H     0.70264   0.73608   0.08380   0.00000  Uiso   1.00
C723   C     0.94856   0.83621   0.45760   0.00000  Uiso   1.00
O724   O     0.97594   0.86373   0.46734   0.00000  Uiso   1.00
O725   O     0.95616   0.79854   0.42912   0.00000  Uiso   1.00
H726   H     0.98536   0.79806   0.41835   0.00000  Uiso   1.00
N727   N     0.70790   0.74628   0.24053   0.00000  Uiso   1.00
O728   O     0.72071   0.72353   0.27529   0.00000  Uiso   1.00
O729   O     0.70659   0.72506   0.20230   0.00000  Uiso   1.00
N730   N     0.95884   0.91951   0.26409   0.00000  Uiso   1.00
O731   O     0.94747   0.94402   0.22982   0.00000  Uiso   1.00
O732   O     0.95851   0.93867   0.30327   0.00000  Uiso   1.00
N733   N     0.95789   0.74727   0.23530   0.00000  Uiso   1.00
O734   O     0.94319   0.73806   0.19604   0.00000  Uiso   1.00
O735   O     0.95846   0.71445   0.26525   0.00000  Uiso   1.00
N736   N     0.70905   0.91772   0.27245   0.00000  Uiso   1.00
O737   O     0.72714   0.92175   0.31082   0.00000  Uiso   1.00
O738   O     0.70720   0.95384   0.24618   0.00000  Uiso   1.00
O739   O     0.10655   0.20625   0.75000   0.00000  Uiso   1.00
O740   O     0.22679   0.12709   0.75001   0.00000  Uiso   1.00
O741   O     0.22679   0.20625   0.75001   0.00000  Uiso   1.00
O742   O     0.10655   0.12709   0.75000   0.00000  Uiso   1.00
C743   C     0.08740   0.16649   0.75165   0.00000  Uiso   1.00
C744   C     0.24600   0.16676   0.74930   0.00000  Uiso   1.00
O745   O     0.16666   0.20627   0.68513   0.00000  Uiso   1.00
O746   O     0.16668   0.12707   0.81487   0.00000  Uiso   1.00
O747   O     0.16668   0.20627   0.81487   0.00000  Uiso   1.00
O748   O     0.16666   0.12707   0.68513   0.00000  Uiso   1.00
C749   C     0.16633   0.16662   0.66457   0.00000  Uiso   1.00
C750   C     0.16639   0.16665   0.83544   0.00000  Uiso   1.00
Cu751  Cu    0.16667   0.21355   0.75000   0.00000  Uiso   1.00
Cu752  Cu    0.16667   0.11978   0.75000   0.00000  Uiso   1.00
C753   C     0.20268   0.17591   0.90667   0.00000  Uiso   1.00
C754   C     0.12960   0.15907   0.59341   0.00000  Uiso   1.00
C755   C     0.16629   0.16609   0.88361   0.00000  Uiso   1.00
C756   C     0.16652   0.16612   0.61639   0.00000  Uiso   1.00
C757   C     0.12996   0.15579   0.90607   0.00000  Uiso   1.00
C758   C     0.20332   0.17335   0.59387   0.00000  Uiso   1.00
C759   C     0.13015   0.15507   0.95278   0.00000  Uiso   1.00
C760   C     0.20339   0.17225   0.54719   0.00000  Uiso   1.00
C761   C     0.16694   0.16344   0.97651   0.00000  Uiso   1.00
C762   C     0.16665   0.16346   0.52350   0.00000  Uiso   1.00
C763   C     0.20401   0.17151   0.95336   0.00000  Uiso   1.00
C764   C     0.12975   0.15450   0.54668   0.00000  Uiso   1.00
C765   C     0.09470   0.14328   0.97611   0.00000  Uiso   1.00
C766   C     0.24005   0.17669   0.52389   0.00000  Uiso   1.00
C767   C     0.09439   0.14107   0.52222   0.00000  Uiso   1.00
C768   C     0.24109   0.17458   0.97783   0.00000  Uiso   1.00
H769   H     0.06720   0.13297   0.95846   0.00000  Uiso   1.00
H770   H     0.26888   0.17910   0.54151   0.00000  Uiso   1.00
C771   C     0.02098   0.12375   0.74607   0.00000  Uiso   1.00
C772   C     0.31252   0.20895   0.75758   0.00000  Uiso   1.00
C773   C     0.31202   0.12425   0.74349   0.00000  Uiso   1.00
C774   C     0.02150   0.20828   0.76090   0.00000  Uiso   1.00
C775   C     0.29069   0.16686   0.74923   0.00000  Uiso   1.00
C776   C     0.04281   0.16600   0.75367   0.00000  Uiso   1.00
C777   C     0.14318   0.02466   0.72038   0.00000  Uiso   1.00
C778   C     0.19009   0.30867   0.77966   0.00000  Uiso   1.00
C779   C     0.19013   0.02500   0.77964   0.00000  Uiso   1.00
C780   C     0.14314   0.30833   0.72042   0.00000  Uiso   1.00
H781   H     0.12444   0.04330   0.69665   0.00000  Uiso   1.00
H782   H     0.20877   0.29004   0.80346   0.00000  Uiso   1.00
H783   H     0.20894   0.04390   0.80333   0.00000  Uiso   1.00
H784   H     0.12425   0.28944   0.69680   0.00000  Uiso   1.00
N785   N     0.16667   0.28402   0.75000   0.00000  Uiso   1.00
N786   N     0.16667   0.04931   0.75000   0.00000  Uiso   1.00
N787   N     0.23680   0.19455   0.88267   0.00000  Uiso   1.00
O788   O     0.25338   0.17046   0.85092   0.00000  Uiso   1.00
O789   O     0.24959   0.23705   0.89071   0.00000  Uiso   1.00
N790   N     0.09194   0.16272   0.61729   0.00000  Uiso   1.00
O791   O     0.08398   0.13437   0.64990   0.00000  Uiso   1.00
O792   O     0.06686   0.19677   0.60842   0.00000  Uiso   1.00
C793   C     0.09152   0.14846   0.88038   0.00000  Uiso   1.00
O794   O     0.08831   0.11524   0.85487   0.00000  Uiso   1.00
O795   O     0.05917   0.17973   0.88554   0.00000  Uiso   1.00
H796   H     0.03497   0.17157   0.86583   0.00000  Uiso   1.00
C797   C     0.24129   0.18342   0.61952   0.00000  Uiso   1.00
O798   O     0.25438   0.15452   0.64584   0.00000  Uiso   1.00
O799   O     0.26185   0.22601   0.61347   0.00000  Uiso   1.00
H800   H     0.28714   0.22880   0.63287   0.00000  Uiso   1.00
C801   C     0.05804   0.11897   0.54260   0.00000  Uiso   1.00
O802   O     0.02382   0.13197   0.53201   0.00000  Uiso   1.00
O803   O     0.06296   0.08181   0.57239   0.00000  Uiso   1.00
H804   H     0.03598   0.06941   0.58380   0.00000  Uiso   1.00
C805   C     0.28190   0.16955   0.95760   0.00000  Uiso   1.00
O806   O     0.30928   0.19707   0.96734   0.00000  Uiso   1.00
O807   O     0.28950   0.13187   0.92912   0.00000  Uiso   1.00
H808   H     0.31869   0.13139   0.91835   0.00000  Uiso   1.00
N809   N     0.04124   0.07961   0.74053   0.00000  Uiso   1.00
O810   O     0.05404   0.05686   0.77529   0.00000  Uiso   1.00
O811   O     0.03992   0.05839   0.70230   0.00000  Uiso   1.00
N812   N     0.29218   0.25285   0.76409   0.00000  Uiso   1.00
O813   O     0.28080   0.27735   0.72982   0.00000  Uiso   1.00
O814   O     0.29184   0.27201   0.80327   0.00000  Uiso   1.00
N815   N     0.29122   0.08061   0.73530   0.00000  Uiso   1.00
O816   O     0.27653   0.07140   0.69604   0.00000  Uiso   1.00
O817   O     0.29179   0.04778   0.76525   0.00000  Uiso   1.00
N818   N     0.04238   0.25105   0.77245   0.00000  Uiso   1.00
O819   O     0.06047   0.25508   0.81082   0.00000  Uiso   1.00
O820   O     0.04053   0.28718   0.74618   0.00000  Uiso   1.00
O821   O     0.43988   0.20625   0.75000   0.00000  Uiso   1.00
O822   O     0.56012   0.12709   0.75001   0.00000  Uiso   1.00
O823   O     0.56012   0.20625   0.75001   0.00000  Uiso   1.00
O824   O     0.43988   0.12709   0.75000   0.00000  Uiso   1.00
C825   C     0.42074   0.16649   0.75165   0.00000  Uiso   1.00
C826   C     0.57933   0.16676   0.74930   0.00000  Uiso   1.00
O827   O     0.49999   0.20627   0.68513   0.00000  Uiso   1.00
O828   O     0.50001   0.12707   0.81487   0.00000  Uiso   1.00
O829   O     0.50001   0.20627   0.81487   0.00000  Uiso   1.00
O830   O     0.49999   0.12707   0.68513   0.00000  Uiso   1.00
C831   C     0.49966   0.16662   0.66457   0.00000  Uiso   1.00
C832   C     0.49972   0.16665   0.83544   0.00000  Uiso   1.00
Cu833  Cu    0.50000   0.21355   0.75000   0.00000  Uiso   1.00
Cu834  Cu    0.50000   0.11978   0.75000   0.00000  Uiso   1.00
C835   C     0.53601   0.17591   0.90667   0.00000  Uiso   1.00
C836   C     0.46294   0.15907   0.59341   0.00000  Uiso   1.00
C837   C     0.49962   0.16609   0.88361   0.00000  Uiso   1.00
C838   C     0.49985   0.16612   0.61639   0.00000  Uiso   1.00
C839   C     0.46329   0.15579   0.90607   0.00000  Uiso   1.00
C840   C     0.53665   0.17335   0.59387   0.00000  Uiso   1.00
C841   C     0.46348   0.15507   0.95278   0.00000  Uiso   1.00
C842   C     0.53672   0.17225   0.54719   0.00000  Uiso   1.00
C843   C     0.50028   0.16344   0.97651   0.00000  Uiso   1.00
C844   C     0.49998   0.16346   0.52350   0.00000  Uiso   1.00
C845   C     0.53734   0.17151   0.95336   0.00000  Uiso   1.00
C846   C     0.46308   0.15450   0.54668   0.00000  Uiso   1.00
C847   C     0.42804   0.14328   0.97611   0.00000  Uiso   1.00
C848   C     0.57338   0.17669   0.52389   0.00000  Uiso   1.00
C849   C     0.42772   0.14107   0.52222   0.00000  Uiso   1.00
C850   C     0.57442   0.17458   0.97783   0.00000  Uiso   1.00
H851   H     0.40053   0.13297   0.95846   0.00000  Uiso   1.00
H852   H     0.60221   0.17910   0.54151   0.00000  Uiso   1.00
C853   C     0.35432   0.12375   0.74607   0.00000  Uiso   1.00
C854   C     0.64586   0.20895   0.75758   0.00000  Uiso   1.00
C855   C     0.64535   0.12425   0.74349   0.00000  Uiso   1.00
C856   C     0.35484   0.20828   0.76090   0.00000  Uiso   1.00
C857   C     0.62402   0.16686   0.74923   0.00000  Uiso   1.00
C858   C     0.37614   0.16600   0.75367   0.00000  Uiso   1.00
C859   C     0.47652   0.02466   0.72038   0.00000  Uiso   1.00
C860   C     0.52343   0.30867   0.77966   0.00000  Uiso   1.00
C861   C     0.52346   0.02500   0.77964   0.00000  Uiso   1.00
C862   C     0.47647   0.30833   0.72042   0.00000  Uiso   1.00
H863   H     0.45777   0.04330   0.69665   0.00000  Uiso   1.00
H864   H     0.54210   0.29004   0.80346   0.00000  Uiso   1.00
H865   H     0.54227   0.04390   0.80333   0.00000  Uiso   1.00
H866   H     0.45758   0.28944   0.69680   0.00000  Uiso   1.00
N867   N     0.50000   0.28402   0.75000   0.00000  Uiso   1.00
N868   N     0.50000   0.04931   0.75000   0.00000  Uiso   1.00
N869   N     0.57013   0.19455   0.88267   0.00000  Uiso   1.00
O870   O     0.58671   0.17046   0.85092   0.00000  Uiso   1.00
O871   O     0.58292   0.23705   0.89071   0.00000  Uiso   1.00
N872   N     0.42528   0.16272   0.61729   0.00000  Uiso   1.00
O873   O     0.41732   0.13437   0.64990   0.00000  Uiso   1.00
O874   O     0.40019   0.19677   0.60842   0.00000  Uiso   1.00
C875   C     0.42485   0.14846   0.88038   0.00000  Uiso   1.00
O876   O     0.42164   0.11524   0.85487   0.00000  Uiso   1.00
O877   O     0.39250   0.17973   0.88554   0.00000  Uiso   1.00
H878   H     0.36830   0.17157   0.86583   0.00000  Uiso   1.00
C879   C     0.57463   0.18342   0.61952   0.00000  Uiso   1.00
O880   O     0.58771   0.15452   0.64584   0.00000  Uiso   1.00
O881   O     0.59518   0.22601   0.61347   0.00000  Uiso   1.00
H882   H     0.62047   0.22880   0.63287   0.00000  Uiso   1.00
C883   C     0.39138   0.11897   0.54260   0.00000  Uiso   1.00
O884   O     0.35716   0.13197   0.53201   0.00000  Uiso   1.00
O885   O     0.39630   0.08181   0.57239   0.00000  Uiso   1.00
H886   H     0.36931   0.06941   0.58380   0.00000  Uiso   1.00
C887   C     0.61523   0.16955   0.95760   0.00000  Uiso   1.00
O888   O     0.64261   0.19707   0.96734   0.00000  Uiso   1.00
O889   O     0.62283   0.13187   0.92912   0.00000  Uiso   1.00
H890   H     0.65203   0.13139   0.91835   0.00000  Uiso   1.00
N891   N     0.37457   0.07961   0.74053   0.00000  Uiso   1.00
O892   O     0.38738   0.05686   0.77529   0.00000  Uiso   1.00
O893   O     0.37326   0.05839   0.70230   0.00000  Uiso   1.00
N894   N     0.62551   0.25285   0.76409   0.00000  Uiso   1.00
O895   O     0.61413   0.27735   0.72982   0.00000  Uiso   1.00
O896   O     0.62518   0.27201   0.80327   0.00000  Uiso   1.00
N897   N     0.62455   0.08061   0.73530   0.00000  Uiso   1.00
O898   O     0.60986   0.07140   0.69604   0.00000  Uiso   1.00
O899   O     0.62512   0.04778   0.76525   0.00000  Uiso   1.00
N900   N     0.37571   0.25105   0.77245   0.00000  Uiso   1.00
O901   O     0.39380   0.25508   0.81082   0.00000  Uiso   1.00
O902   O     0.37387   0.28718   0.74618   0.00000  Uiso   1.00
O903   O     0.77321   0.20625   0.75000   0.00000  Uiso   1.00
O904   O     0.89345   0.12709   0.75001   0.00000  Uiso   1.00
O905   O     0.89345   0.20625   0.75001   0.00000  Uiso   1.00
O906   O     0.77321   0.12709   0.75000   0.00000  Uiso   1.00
C907   C     0.75407   0.16649   0.75165   0.00000  Uiso   1.00
C908   C     0.91267   0.16676   0.74930   0.00000  Uiso   1.00
O909   O     0.83332   0.20627   0.68513   0.00000  Uiso   1.00
O910   O     0.83334   0.12707   0.81487   0.00000  Uiso   1.00
O911   O     0.83334   0.20627   0.81487   0.00000  Uiso   1.00
O912   O     0.83332   0.12707   0.68513   0.00000  Uiso   1.00
C913   C     0.83300   0.16662   0.66457   0.00000  Uiso   1.00
C914   C     0.83306   0.16665   0.83544   0.00000  Uiso   1.00
Cu915  Cu    0.83333   0.21355   0.75000   0.00000  Uiso   1.00
Cu916  Cu    0.83333   0.11978   0.75000   0.00000  Uiso   1.00
C917   C     0.86934   0.17591   0.90667   0.00000  Uiso   1.00
C918   C     0.79627   0.15907   0.59341   0.00000  Uiso   1.00
C919   C     0.83295   0.16609   0.88361   0.00000  Uiso   1.00
C920   C     0.83318   0.16612   0.61639   0.00000  Uiso   1.00
C921   C     0.79663   0.15579   0.90607   0.00000  Uiso   1.00
C922   C     0.86998   0.17335   0.59387   0.00000  Uiso   1.00
C923   C     0.79682   0.15507   0.95278   0.00000  Uiso   1.00
C924   C     0.87005   0.17225   0.54719   0.00000  Uiso   1.00
C925   C     0.83361   0.16344   0.97651   0.00000  Uiso   1.00
C926   C     0.83332   0.16346   0.52350   0.00000  Uiso   1.00
C927   C     0.87067   0.17151   0.95336   0.00000  Uiso   1.00
C928   C     0.79642   0.15450   0.54668   0.00000  Uiso   1.00
C929   C     0.76137   0.14328   0.97611   0.00000  Uiso   1.00
C930   C     0.90672   0.17669   0.52389   0.00000  Uiso   1.00
C931   C     0.76105   0.14107   0.52222   0.00000  Uiso   1.00
C932   C     0.90775   0.17458   0.97783   0.00000  Uiso   1.00
H933   H     0.73386   0.13297   0.95846   0.00000  Uiso   1.00
H934   H     0.93554   0.17910   0.54151   0.00000  Uiso   1.00
C935   C     0.68765   0.12375   0.74607   0.00000  Uiso   1.00
C936   C     0.97919   0.20895   0.75758   0.00000  Uiso   1.00
C937   C     0.97868   0.12425   0.74349   0.00000  Uiso   1.00
C938   C     0.68817   0.20828   0.76090   0.00000  Uiso   1.00
C939   C     0.95735   0.16686   0.74923   0.00000  Uiso   1.00
C940   C     0.70947   0.16600   0.75367   0.00000  Uiso   1.00
C941   C     0.80985   0.02466   0.72038   0.00000  Uiso   1.00
C942   C     0.85676   0.30867   0.77966   0.00000  Uiso   1.00
C943   C     0.85680   0.02500   0.77964   0.00000  Uiso   1.00
C944   C     0.80980   0.30833   0.72042   0.00000  Uiso   1.00
H945   H     0.79111   0.04330   0.69665   0.00000  Uiso   1.00
H946   H     0.87543   0.29004   0.80346   0.00000  Uiso   1.00
H947   H     0.87560   0.04390   0.80333   0.00000  Uiso   1.00
H948   H     0.79092   0.28944   0.69680   0.00000  Uiso   1.00
N949   N     0.83333   0.28402   0.75000   0.00000  Uiso   1.00
N950   N     0.83333   0.04931   0.75000   0.00000  Uiso   1.00
N951   N     0.90347   0.19455   0.88267   0.00000  Uiso   1.00
O952   O     0.92004   0.17046   0.85092   0.00000  Uiso   1.00
O953   O     0.91626   0.23705   0.89071   0.00000  Uiso   1.00
N954   N     0.75861   0.16272   0.61729   0.00000  Uiso   1.00
O955   O     0.75065   0.13437   0.64990   0.00000  Uiso   1.00
O956   O     0.73353   0.19677   0.60842   0.00000  Uiso   1.00
C957   C     0.75818   0.14846   0.88038   0.00000  Uiso   1.00
O958   O     0.75497   0.11524   0.85487   0.00000  Uiso   1.00
O959   O     0.72584   0.17973   0.88554   0.00000  Uiso   1.00
H960   H     0.70163   0.17157   0.86583   0.00000  Uiso   1.00
C961   C     0.90796   0.18342   0.61952   0.00000  Uiso   1.00
O962   O     0.92104   0.15452   0.64584   0.00000  Uiso   1.00
O963   O     0.92852   0.22601   0.61347   0.00000  Uiso   1.00
H964   H     0.95381   0.22880   0.63287   0.00000  Uiso   1.00
C965   C     0.72471   0.11897   0.54260   0.00000  Uiso   1.00
O966   O     0.69049   0.13197   0.53201   0.00000  Uiso   1.00
O967   O     0.72963   0.08181   0.57239   0.00000  Uiso   1.00
H968   H     0.70264   0.06941   0.58380   0.00000  Uiso   1.00
C969   C     0.94856   0.16955   0.95760   0.00000  Uiso   1.00
O970   O     0.97594   0.19707   0.96734   0.00000  Uiso   1.00
O971   O     0.95616   0.13187   0.92912   0.00000  Uiso   1.00
H972   H     0.98536   0.13139   0.91835   0.00000  Uiso   1.00
N973   N     0.70790   0.07961   0.74053   0.00000  Uiso   1.00
O974   O     0.72071   0.05686   0.77529   0.00000  Uiso   1.00
O975   O     0.70659   0.05839   0.70230   0.00000  Uiso   1.00
N976   N     0.95884   0.25285   0.76409   0.00000  Uiso   1.00
O977   O     0.94747   0.27735   0.72982   0.00000  Uiso   1.00
O978   O     0.95851   0.27201   0.80327   0.00000  Uiso   1.00
N979   N     0.95789   0.08061   0.73530   0.00000  Uiso   1.00
O980   O     0.94319   0.07140   0.69604   0.00000  Uiso   1.00
O981   O     0.95846   0.04778   0.76525   0.00000  Uiso   1.00
N982   N     0.70905   0.25105   0.77245   0.00000  Uiso   1.00
O983   O     0.72714   0.25508   0.81082   0.00000  Uiso   1.00
O984   O     0.70720   0.28718   0.74618   0.00000  Uiso   1.00
O985   O     0.10655   0.53958   0.75000   0.00000  Uiso   1.00
O986   O     0.22679   0.46042   0.75001   0.00000  Uiso   1.00
O987   O     0.22679   0.53958   0.75001   0.00000  Uiso   1.00
O988   O     0.10655   0.46042   0.75000   0.00000  Uiso   1.00
C989   C     0.08740   0.49983   0.75165   0.00000  Uiso   1.00
C990   C     0.24600   0.50010   0.74930   0.00000  Uiso   1.00
O991   O     0.16666   0.53960   0.68513   0.00000  Uiso   1.00
O992   O     0.16668   0.46040   0.81487   0.00000  Uiso   1.00
O993   O     0.16668   0.53960   0.81487   0.00000  Uiso   1.00
O994   O     0.16666   0.46040   0.68513   0.00000  Uiso   1.00
C995   C     0.16633   0.49996   0.66457   0.00000  Uiso   1.00
C996   C     0.16639   0.49999   0.83544   0.00000  Uiso   1.00
Cu997  Cu    0.16667   0.54689   0.75000   0.00000  Uiso   1.00
Cu998  Cu    0.16667   0.45311   0.75000   0.00000  Uiso   1.00
C999   C     0.20268   0.50924   0.90667   0.00000  Uiso   1.00
C1000  C     0.12960   0.49241   0.59341   0.00000  Uiso   1.00
C1001  C     0.16629   0.49942   0.88361   0.00000  Uiso   1.00
C1002  C     0.16652   0.49945   0.61639   0.00000  Uiso   1.00
C1003  C     0.12996   0.48913   0.90607   0.00000  Uiso   1.00
C1004  C     0.20332   0.50668   0.59387   0.00000  Uiso   1.00
C1005  C     0.13015   0.48840   0.95278   0.00000  Uiso   1.00
C1006  C     0.20339   0.50559   0.54719   0.00000  Uiso   1.00
C1007  C     0.16694   0.49677   0.97651   0.00000  Uiso   1.00
C1008  C     0.16665   0.49679   0.52350   0.00000  Uiso   1.00
C1009  C     0.20401   0.50484   0.95336   0.00000  Uiso   1.00
C1010  C     0.12975   0.48783   0.54668   0.00000  Uiso   1.00
C1011  C     0.09470   0.47662   0.97611   0.00000  Uiso   1.00
C1012  C     0.24005   0.51003   0.52389   0.00000  Uiso   1.00
C1013  C     0.09439   0.47440   0.52222   0.00000  Uiso   1.00
C1014  C     0.24109   0.50791   0.97783   0.00000  Uiso   1.00
H1015  H     0.06720   0.46631   0.95846   0.00000  Uiso   1.00
H1016  H     0.26888   0.51244   0.54151   0.00000  Uiso   1.00
C1017  C     0.02098   0.45709   0.74607   0.00000  Uiso   1.00
C1018  C     0.31252   0.54229   0.75758   0.00000  Uiso   1.00
C1019  C     0.31202   0.45759   0.74349   0.00000  Uiso   1.00
C1020  C     0.02150   0.54162   0.76090   0.00000  Uiso   1.00
C1021  C     0.29069   0.50019   0.74923   0.00000  Uiso   1.00
C1022  C     0.04281   0.49933   0.75367   0.00000  Uiso   1.00
C1023  C     0.14318   0.35800   0.72038   0.00000  Uiso   1.00
C1024  C     0.19009   0.64201   0.77966   0.00000  Uiso   1.00
C1025  C     0.19013   0.35833   0.77964   0.00000  Uiso   1.00
C1026  C     0.14314   0.64167   0.72042   0.00000  Uiso   1.00
H1027  H     0.12444   0.37663   0.69665   0.00000  Uiso   1.00
H1028  H     0.20877   0.62337   0.80346   0.00000  Uiso   1.00
H1029  H     0.20894   0.37723   0.80333   0.00000  Uiso   1.00
H1030  H     0.12425   0.62277   0.69680   0.00000  Uiso   1.00
N1031  N     0.16667   0.61736   0.75000   0.00000  Uiso   1.00
N1032  N     0.16667   0.38264   0.75000   0.00000  Uiso   1.00
N1033  N     0.23680   0.52789   0.88267   0.00000  Uiso   1.00
O1034  O     0.25338   0.50379   0.85092   0.00000  Uiso   1.00
O1035  O     0.24959   0.57038   0.89071   0.00000  Uiso   1.00
N1036  N     0.09194   0.49605   0.61729   0.00000  Uiso   1.00
O1037  O     0.08398   0.46770   0.64990   0.00000  Uiso   1.00
O1038  O     0.06686   0.53010   0.60842   0.00000  Uiso   1.00
C1039  C     0.09152   0.48179   0.88038   0.00000  Uiso   1.00
O1040  O     0.08831   0.44857   0.85487   0.00000  Uiso   1.00
O1041  O     0.05917   0.51307   0.88554   0.00000  Uiso   1.00
H1042  H     0.03497   0.50490   0.86583   0.00000  Uiso   1.00
C1043  C     0.24129   0.51676   0.61952   0.00000  Uiso   1.00
O1044  O     0.25438   0.48785   0.64584   0.00000  Uiso   1.00
O1045  O     0.26185   0.55934   0.61347   0.00000  Uiso   1.00
H1046  H     0.28714   0.56213   0.63287   0.00000  Uiso   1.00
C1047  C     0.05804   0.45230   0.54260   0.00000  Uiso   1.00
O1048  O     0.02382   0.46530   0.53201   0.00000  Uiso   1.00
O1049  O     0.06296   0.41514   0.57239   0.00000  Uiso   1.00
H1050  H     0.03598   0.40275   0.58380   0.00000  Uiso   1.00
C1051  C     0.28190   0.50288   0.95760   0.00000  Uiso   1.00
O1052  O     0.30928   0.53040   0.96734   0.00000  Uiso   1.00
O1053  O     0.28950   0.46520   0.92912   0.00000  Uiso   1.00
H1054  H     0.31869   0.46473   0.91835   0.00000  Uiso   1.00
N1055  N     0.04124   0.41294   0.74053   0.00000  Uiso   1.00
O1056  O     0.05404   0.39020   0.77529   0.00000  Uiso   1.00
O1057  O     0.03992   0.39172   0.70230   0.00000  Uiso   1.00
N1058  N     0.29218   0.58618   0.76409   0.00000  Uiso   1.00
O1059  O     0.28080   0.61069   0.72982   0.00000  Uiso   1.00
O1060  O     0.29184   0.60534   0.80327   0.00000  Uiso   1.00
N1061  N     0.29122   0.41394   0.73530   0.00000  Uiso   1.00
O1062  O     0.27653   0.40473   0.69604   0.00000  Uiso   1.00
O1063  O     0.29179   0.38111   0.76525   0.00000  Uiso   1.00
N1064  N     0.04238   0.58439   0.77245   0.00000  Uiso   1.00
O1065  O     0.06047   0.58841   0.81082   0.00000  Uiso   1.00
O1066  O     0.04053   0.62051   0.74618   0.00000  Uiso   1.00
O1067  O     0.43988   0.53958   0.75000   0.00000  Uiso   1.00
O1068  O     0.56012   0.46042   0.75001   0.00000  Uiso   1.00
O1069  O     0.56012   0.53958   0.75001   0.00000  Uiso   1.00
O1070  O     0.43988   0.46042   0.75000   0.00000  Uiso   1.00
C1071  C     0.42074   0.49983   0.75165   0.00000  Uiso   1.00
C1072  C     0.57933   0.50010   0.74930   0.00000  Uiso   1.00
O1073  O     0.49999   0.53960   0.68513   0.00000  Uiso   1.00
O1074  O     0.50001   0.46040   0.81487   0.00000  Uiso   1.00
O1075  O     0.50001   0.53960   0.81487   0.00000  Uiso   1.00
O1076  O     0.49999   0.46040   0.68513   0.00000  Uiso   1.00
C1077  C     0.49966   0.49996   0.66457   0.00000  Uiso   1.00
C1078  C     0.49972   0.49999   0.83544   0.00000  Uiso   1.00
Cu1079 Cu    0.50000   0.54689   0.75000   0.00000  Uiso   1.00
Cu1080 Cu    0.50000   0.45311   0.75000   0.00000  Uiso   1.00
C1081  C     0.53601   0.50924   0.90667   0.00000  Uiso   1.00
C1082  C     0.46294   0.49241   0.59341   0.00000  Uiso   1.00
C1083  C     0.49962   0.49942   0.88361   0.00000  Uiso   1.00
C1084  C     0.49985   0.49945   0.61639   0.00000  Uiso   1.00
C1085  C     0.46329   0.48913   0.90607   0.00000  Uiso   1.00
C1086  C     0.53665   0.50668   0.59387   0.00000  Uiso   1.00
C1087  C     0.46348   0.48840   0.95278   0.00000  Uiso   1.00
C1088  C     0.53672   0.50559   0.54719   0.00000  Uiso   1.00
C1089  C     0.50028   0.49677   0.97651   0.00000  Uiso   1.00
C1090  C     0.49998   0.49679   0.52350   0.00000  Uiso   1.00
C1091  C     0.53734   0.50484   0.95336   0.00000  Uiso   1.00
C1092  C     0.46308   0.48783   0.54668   0.00000  Uiso   1.00
C1093  C     0.42804   0.47662   0.97611   0.00000  Uiso   1.00
C1094  C     0.57338   0.51003   0.52389   0.00000  Uiso   1.00
C1095  C     0.42772   0.47440   0.52222   0.00000  Uiso   1.00
C1096  C     0.57442   0.50791   0.97783   0.00000  Uiso   1.00
H1097  H     0.40053   0.46631   0.95846   0.00000  Uiso   1.00
H1098  H     0.60221   0.51244   0.54151   0.00000  Uiso   1.00
C1099  C     0.35432   0.45709   0.74607   0.00000  Uiso   1.00
C1100  C     0.64586   0.54229   0.75758   0.00000  Uiso   1.00
C1101  C     0.64535   0.45759   0.74349   0.00000  Uiso   1.00
C1102  C     0.35484   0.54162   0.76090   0.00000  Uiso   1.00
C1103  C     0.62402   0.50019   0.74923   0.00000  Uiso   1.00
C1104  C     0.37614   0.49933   0.75367   0.00000  Uiso   1.00
C1105  C     0.47652   0.35800   0.72038   0.00000  Uiso   1.00
C1106  C     0.52343   0.64201   0.77966   0.00000  Uiso   1.00
C1107  C     0.52346   0.35833   0.77964   0.00000  Uiso   1.00
C1108  C     0.47647   0.64167   0.72042   0.00000  Uiso   1.00
H1109  H     0.45777   0.37663   0.69665   0.00000  Uiso   1.00
H1110  H     0.54210   0.62337   0.80346   0.00000  Uiso   1.00
H1111  H     0.54227   0.37723   0.80333   0.00000  Uiso   1.00
H1112  H     0.45758   0.62277   0.69680   0.00000  Uiso   1.00
N1113  N     0.50000   0.61736   0.75000   0.00000  Uiso   1.00
N1114  N     0.50000   0.38264   0.75000   0.00000  Uiso   1.00
N1115  N     0.57013   0.52789   0.88267   0.00000  Uiso   1.00
O1116  O     0.58671   0.50379   0.85092   0.00000  Uiso   1.00
O1117  O     0.58292   0.57038   0.89071   0.00000  Uiso   1.00
N1118  N     0.42528   0.49605   0.61729   0.00000  Uiso   1.00
O1119  O     0.41732   0.46770   0.64990   0.00000  Uiso   1.00
O1120  O     0.40019   0.53010   0.60842   0.00000  Uiso   1.00
C1121  C     0.42485   0.48179   0.88038   0.00000  Uiso   1.00
O1122  O     0.42164   0.44857   0.85487   0.00000  Uiso   1.00
O1123  O     0.39250   0.51307   0.88554   0.00000  Uiso   1.00
H1124  H     0.36830   0.50490   0.86583   0.00000  Uiso   1.00
C1125  C     0.57463   0.51676   0.61952   0.00000  Uiso   1.00
O1126  O     0.58771   0.48785   0.64584   0.00000  Uiso   1.00
O1127  O     0.59518   0.55934   0.61347   0.00000  Uiso   1.00
H1128  H     0.62047   0.56213   0.63287   0.00000  Uiso   1.00
C1129  C     0.39138   0.45230   0.54260   0.00000  Uiso   1.00
O1130  O     0.35716   0.46530   0.53201   0.00000  Uiso   1.00
O1131  O     0.39630   0.41514   0.57239   0.00000  Uiso   1.00
H1132  H     0.36931   0.40275   0.58380   0.00000  Uiso   1.00
C1133  C     0.61523   0.50288   0.95760   0.00000  Uiso   1.00
O1134  O     0.64261   0.53040   0.96734   0.00000  Uiso   1.00
O1135  O     0.62283   0.46520   0.92912   0.00000  Uiso   1.00
H1136  H     0.65203   0.46473   0.91835   0.00000  Uiso   1.00
N1137  N     0.37457   0.41294   0.74053   0.00000  Uiso   1.00
O1138  O     0.38738   0.39020   0.77529   0.00000  Uiso   1.00
O1139  O     0.37326   0.39172   0.70230   0.00000  Uiso   1.00
N1140  N     0.62551   0.58618   0.76409   0.00000  Uiso   1.00
O1141  O     0.61413   0.61069   0.72982   0.00000  Uiso   1.00
O1142  O     0.62518   0.60534   0.80327   0.00000  Uiso   1.00
N1143  N     0.62455   0.41394   0.73530   0.00000  Uiso   1.00
O1144  O     0.60986   0.40473   0.69604   0.00000  Uiso   1.00
O1145  O     0.62512   0.38111   0.76525   0.00000  Uiso   1.00
N1146  N     0.37571   0.58439   0.77245   0.00000  Uiso   1.00
O1147  O     0.39380   0.58841   0.81082   0.00000  Uiso   1.00
O1148  O     0.37387   0.62051   0.74618   0.00000  Uiso   1.00
O1149  O     0.77321   0.53958   0.75000   0.00000  Uiso   1.00
O1150  O     0.89345   0.46042   0.75001   0.00000  Uiso   1.00
O1151  O     0.89345   0.53958   0.75001   0.00000  Uiso   1.00
O1152  O     0.77321   0.46042   0.75000   0.00000  Uiso   1.00
C1153  C     0.75407   0.49983   0.75165   0.00000  Uiso   1.00
C1154  C     0.91267   0.50010   0.74930   0.00000  Uiso   1.00
O1155  O     0.83332   0.53960   0.68513   0.00000  Uiso   1.00
O1156  O     0.83334   0.46040   0.81487   0.00000  Uiso   1.00
O1157  O     0.83334   0.53960   0.81487   0.00000  Uiso   1.00
O1158  O     0.83332   0.46040   0.68513   0.00000  Uiso   1.00
C1159  C     0.83300   0.49996   0.66457   0.00000  Uiso   1.00
C1160  C     0.83306   0.49999   0.83544   0.00000  Uiso   1.00
Cu1161 Cu    0.83333   0.54689   0.75000   0.00000  Uiso   1.00
Cu1162 Cu    0.83333   0.45311   0.75000   0.00000  Uiso   1.00
C1163  C     0.86934   0.50924   0.90667   0.00000  Uiso   1.00
C1164  C     0.79627   0.49241   0.59341   0.00000  Uiso   1.00
C1165  C     0.83295   0.49942   0.88361   0.00000  Uiso   1.00
C1166  C     0.83318   0.49945   0.61639   0.00000  Uiso   1.00
C1167  C     0.79663   0.48913   0.90607   0.00000  Uiso   1.00
C1168  C     0.86998   0.50668   0.59387   0.00000  Uiso   1.00
C1169  C     0.79682   0.48840   0.95278   0.00000  Uiso   1.00
C1170  C     0.87005   0.50559   0.54719   0.00000  Uiso   1.00
C1171  C     0.83361   0.49677   0.97651   0.00000  Uiso   1.00
C1172  C     0.83332   0.49679   0.52350   0.00000  Uiso   1.00
C1173  C     0.87067   0.50484   0.95336   0.00000  Uiso   1.00
C1174  C     0.79642   0.48783   0.54668   0.00000  Uiso   1.00
C1175  C     0.76137   0.47662   0.97611   0.00000  Uiso   1.00
C1176  C     0.90672   0.51003   0.52389   0.00000  Uiso   1.00
C1177  C     0.76105   0.47440   0.52222   0.00000  Uiso   1.00
C1178  C     0.90775   0.50791   0.97783   0.00000  Uiso   1.00
H1179  H     0.73386   0.46631   0.95846   0.00000  Uiso   1.00
H1180  H     0.93554   0.51244   0.54151   0.00000  Uiso   1.00
C1181  C     0.68765   0.45709   0.74607   0.00000  Uiso   1.00
C1182  C     0.97919   0.54229   0.75758   0.00000  Uiso   1.00
C1183  C     0.97868   0.45759   0.74349   0.00000  Uiso   1.00
C1184  C     0.68817   0.54162   0.76090   0.00000  Uiso   1.00
C1185  C     0.95735   0.50019   0.74923   0.00000  Uiso   1.00
C1186  C     0.70947   0.49933   0.75367   0.00000  Uiso   1.00
C1187  C     0.80985   0.35800   0.72038   0.00000  Uiso   1.00
C1188  C     0.85676   0.64201   0.77966   0.00000  Uiso   1.00
C1189  C     0.85680   0.35833   0.77964   0.00000  Uiso   1.00
C1190  C     0.80980   0.64167   0.72042   0.00000  Uiso   1.00
H1191  H     0.79111   0.37663   0.69665   0.00000  Uiso   1.00
H1192  H     0.87543   0.62337   0.80346   0.00000  Uiso   1.00
H1193  H     0.87560   0.37723   0.80333   0.00000  Uiso   1.00
H1194  H     0.79092   0.62277   0.69680   0.00000  Uiso   1.00
N1195  N     0.83333   0.61736   0.75000   0.00000  Uiso   1.00
N1196  N     0.83333   0.38264   0.75000   0.00000  Uiso   1.00
N1197  N     0.90347   0.52789   0.88267   0.00000  Uiso   1.00
O1198  O     0.92004   0.50379   0.85092   0.00000  Uiso   1.00
O1199  O     0.91626   0.57038   0.89071   0.00000  Uiso   1.00
N1200  N     0.75861   0.49605   0.61729   0.00000  Uiso   1.00
O1201  O     0.75065   0.46770   0.64990   0.00000  Uiso   1.00
O1202  O     0.73353   0.53010   0.60842   0.00000  Uiso   1.00
C1203  C     0.75818   0.48179   0.88038   0.00000  Uiso   1.00
O1204  O     0.75497   0.44857   0.85487   0.00000  Uiso   1.00
O1205  O     0.72584   0.51307   0.88554   0.00000  Uiso   1.00
H1206  H     0.70163   0.50490   0.86583   0.00000  Uiso   1.00
C1207  C     0.90796   0.51676   0.61952   0.00000  Uiso   1.00
O1208  O     0.92104   0.48785   0.64584   0.00000  Uiso   1.00
O1209  O     0.92852   0.55934   0.61347   0.00000  Uiso   1.00
H1210  H     0.95381   0.56213   0.63287   0.00000  Uiso   1.00
C1211  C     0.72471   0.45230   0.54260   0.00000  Uiso   1.00
O1212  O     0.69049   0.46530   0.53201   0.00000  Uiso   1.00
O1213  O     0.72963   0.41514   0.57239   0.00000  Uiso   1.00
H1214  H     0.70264   0.40275   0.58380   0.00000  Uiso   1.00
C1215  C     0.94856   0.50288   0.95760   0.00000  Uiso   1.00
O1216  O     0.97594   0.53040   0.96734   0.00000  Uiso   1.00
O1217  O     0.95616   0.46520   0.92912   0.00000  Uiso   1.00
H1218  H     0.98536   0.46473   0.91835   0.00000  Uiso   1.00
N1219  N     0.70790   0.41294   0.74053   0.00000  Uiso   1.00
O1220  O     0.72071   0.39020   0.77529   0.00000  Uiso   1.00
O1221  O     0.70659   0.39172   0.70230   0.00000  Uiso   1.00
N1222  N     0.95884   0.58618   0.76409   0.00000  Uiso   1.00
O1223  O     0.94747   0.61069   0.72982   0.00000  Uiso   1.00
O1224  O     0.95851   0.60534   0.80327   0.00000  Uiso   1.00
N1225  N     0.95789   0.41394   0.73530   0.00000  Uiso   1.00
O1226  O     0.94319   0.40473   0.69604   0.00000  Uiso   1.00
O1227  O     0.95846   0.38111   0.76525   0.00000  Uiso   1.00
N1228  N     0.70905   0.58439   0.77245   0.00000  Uiso   1.00
O1229  O     0.72714   0.58841   0.81082   0.00000  Uiso   1.00
O1230  O     0.70720   0.62051   0.74618   0.00000  Uiso   1.00
O1231  O     0.10655   0.87291   0.75000   0.00000  Uiso   1.00
O1232  O     0.22679   0.79375   0.75001   0.00000  Uiso   1.00
O1233  O     0.22679   0.87291   0.75001   0.00000  Uiso   1.00
O1234  O     0.10655   0.79375   0.75000   0.00000  Uiso   1.00
C1235  C     0.08740   0.83316   0.75165   0.00000  Uiso   1.00
C1236  C     0.24600   0.83343   0.74930   0.00000  Uiso   1.00
O1237  O     0.16666   0.87293   0.68513   0.00000  Uiso   1.00
O1238  O     0.16668   0.79373   0.81487   0.00000  Uiso   1.00
O1239  O     0.16668   0.87293   0.81487   0.00000  Uiso   1.00
O1240  O     0.16666   0.79373   0.68513   0.00000  Uiso   1.00
C1241  C     0.16633   0.83329   0.66457   0.00000  Uiso   1.00
C1242  C     0.16639   0.83332   0.83544   0.00000  Uiso   1.00
Cu1243 Cu    0.16667   0.88022   0.75000   0.00000  Uiso   1.00
Cu1244 Cu    0.16667   0.78645   0.75000   0.00000  Uiso   1.00
C1245  C     0.20268   0.84257   0.90667   0.00000  Uiso   1.00
C1246  C     0.12960   0.82574   0.59341   0.00000  Uiso   1.00
C1247  C     0.16629   0.83276   0.88361   0.00000  Uiso   1.00
C1248  C     0.16652   0.83279   0.61639   0.00000  Uiso   1.00
C1249  C     0.12996   0.82246   0.90607   0.00000  Uiso   1.00
C1250  C     0.20332   0.84002   0.59387   0.00000  Uiso   1.00
C1251  C     0.13015   0.82173   0.95278   0.00000  Uiso   1.00
C1252  C     0.20339   0.83892   0.54719   0.00000  Uiso   1.00
C1253  C     0.16694   0.83011   0.97651   0.00000  Uiso   1.00
C1254  C     0.16665   0.83012   0.52350   0.00000  Uiso   1.00
C1255  C     0.20401   0.83817   0.95336   0.00000  Uiso   1.00
C1256  C     0.12975   0.82117   0.54668   0.00000  Uiso   1.00
C1257  C     0.09470   0.80995   0.97611   0.00000  Uiso   1.00
C1258  C     0.24005   0.84336   0.52389   0.00000  Uiso   1.00
C1259  C     0.09439   0.80773   0.52222   0.00000  Uiso   1.00
C1260  C     0.24109   0.84125   0.97783   0.00000  Uiso   1.00
H1261  H     0.06720   0.79964   0.95846   0.00000  Uiso   1.00
H1262  H     0.26888   0.84577   0.54151   0.00000  Uiso   1.00
C1263  C     0.02098   0.79042   0.74607   0.00000  Uiso   1.00
C1264  C     0.31252   0.87562   0.75758   0.00000  Uiso   1.00
C1265  C     0.31202   0.79092   0.74349   0.00000  Uiso   1.00
C1266  C     0.02150   0.87495   0.76090   0.00000  Uiso   1.00
C1267  C     0.29069   0.83353   0.74923   0.00000  Uiso   1.00
C1268  C     0.04281   0.83266   0.75367   0.00000  Uiso   1.00
C1269  C     0.14318   0.69133   0.72038   0.00000  Uiso   1.00
C1270  C     0.19009   0.97534   0.77966   0.00000  Uiso   1.00
C1271  C     0.19013   0.69167   0.77964   0.00000  Uiso   1.00
C1272  C     0.14314   0.97500   0.72042   0.00000  Uiso   1.00
H1273  H     0.12444   0.70996   0.69665   0.00000  Uiso   1.00
H1274  H     0.20877   0.95671   0.80346   0.00000  Uiso   1.00
H1275  H     0.20894   0.71056   0.80333   0.00000  Uiso   1.00
H1276  H     0.12425   0.95610   0.69680   0.00000  Uiso   1.00
N1277  N     0.16667   0.95069   0.75000   0.00000  Uiso   1.00
N1278  N     0.16667   0.71598   0.75000   0.00000  Uiso   1.00
N1279  N     0.23680   0.86122   0.88267   0.00000  Uiso   1.00
O1280  O     0.25338   0.83712   0.85092   0.00000  Uiso   1.00
O1281  O     0.24959   0.90371   0.89071   0.00000  Uiso   1.00
N1282  N     0.09194   0.82938   0.61729   0.00000  Uiso   1.00
O1283  O     0.08398   0.80103   0.64990   0.00000  Uiso   1.00
O1284  O     0.06686   0.86344   0.60842   0.00000  Uiso   1.00
C1285  C     0.09152   0.81513   0.88038   0.00000  Uiso   1.00
O1286  O     0.08831   0.78190   0.85487   0.00000  Uiso   1.00
O1287  O     0.05917   0.84640   0.88554   0.00000  Uiso   1.00
H1288  H     0.03497   0.83824   0.86583   0.00000  Uiso   1.00
C1289  C     0.24129   0.85009   0.61952   0.00000  Uiso   1.00
O1290  O     0.25438   0.82119   0.64584   0.00000  Uiso   1.00
O1291  O     0.26185   0.89267   0.61347   0.00000  Uiso   1.00
H1292  H     0.28714   0.89547   0.63287   0.00000  Uiso   1.00
C1293  C     0.05804   0.78563   0.54260   0.00000  Uiso   1.00
O1294  O     0.02382   0.79863   0.53201   0.00000  Uiso   1.00
O1295  O     0.06296   0.74848   0.57239   0.00000  Uiso   1.00
H1296  H     0.03598   0.73608   0.58380   0.00000  Uiso   1.00
C1297  C     0.28190   0.83621   0.95760   0.00000  Uiso   1.00
O1298  O     0.30928   0.86373   0.96734   0.00000  Uiso   1.00
O1299  O     0.28950   0.79854   0.92912   0.00000  Uiso   1.00
H1300  H     0.31869   0.79806   0.91835   0.00000  Uiso   1.00
N1301  N     0.04124   0.74628   0.74053   0.00000  Uiso   1.00
O1302  O     0.05404   0.72353   0.77529   0.00000  Uiso   1.00
O1303  O     0.03992   0.72506   0.70230   0.00000  Uiso   1.00
N1304  N     0.29218   0.91951   0.76409   0.00000  Uiso   1.00
O1305  O     0.28080   0.94402   0.72982   0.00000  Uiso   1.00
O1306  O     0.29184   0.93867   0.80327   0.00000  Uiso   1.00
N1307  N     0.29122   0.74727   0.73530   0.00000  Uiso   1.00
O1308  O     0.27653   0.73806   0.69604   0.00000  Uiso   1.00
O1309  O     0.29179   0.71445   0.76525   0.00000  Uiso   1.00
N1310  N     0.04238   0.91772   0.77245   0.00000  Uiso   1.00
O1311  O     0.06047   0.92175   0.81082   0.00000  Uiso   1.00
O1312  O     0.04053   0.95384   0.74618   0.00000  Uiso   1.00
O1313  O     0.43988   0.87291   0.75000   0.00000  Uiso   1.00
O1314  O     0.56012   0.79375   0.75001   0.00000  Uiso   1.00
O1315  O     0.56012   0.87291   0.75001   0.00000  Uiso   1.00
O1316  O     0.43988   0.79375   0.75000   0.00000  Uiso   1.00
C1317  C     0.42074   0.83316   0.75165   0.00000  Uiso   1.00
C1318  C     0.57933   0.83343   0.74930   0.00000  Uiso   1.00
O1319  O     0.49999   0.87293   0.68513   0.00000  Uiso   1.00
O1320  O     0.50001   0.79373   0.81487   0.00000  Uiso   1.00
O1321  O     0.50001   0.87293   0.81487   0.00000  Uiso   1.00
O1322  O     0.49999   0.79373   0.68513   0.00000  Uiso   1.00
C1323  C     0.49966   0.83329   0.66457   0.00000  Uiso   1.00
C1324  C     0.49972   0.83332   0.83544   0.00000  Uiso   1.00
Cu1325 Cu    0.50000   0.88022   0.75000   0.00000  Uiso   1.00
Cu1326 Cu    0.50000   0.78645   0.75000   0.00000  Uiso   1.00
C1327  C     0.53601   0.84257   0.90667   0.00000  Uiso   1.00
C1328  C     0.46294   0.82574   0.59341   0.00000  Uiso   1.00
C1329  C     0.49962   0.83276   0.88361   0.00000  Uiso   1.00
C1330  C     0.49985   0.83279   0.61639   0.00000  Uiso   1.00
C1331  C     0.46329   0.82246   0.90607   0.00000  Uiso   1.00
C1332  C     0.53665   0.84002   0.59387   0.00000  Uiso   1.00
C1333  C     0.46348   0.82173   0.95278   0.00000  Uiso   1.00
C1334  C     0.53672   0.83892   0.54719   0.00000  Uiso   1.00
C1335  C     0.50028   0.83011   0.97651   0.00000  Uiso   1.00
C1336  C     0.49998   0.83012   0.52350   0.00000  Uiso   1.00
C1337  C     0.53734   0.83817   0.95336   0.00000  Uiso   1.00
C1338  C     0.46308   0.82117   0.54668   0.00000  Uiso   1.00
C1339  C     0.42804   0.80995   0.97611   0.00000  Uiso   1.00
C1340  C     0.57338   0.84336   0.52389   0.00000  Uiso   1.00
C1341  C     0.42772   0.80773   0.52222   0.00000  Uiso   1.00
C1342  C     0.57442   0.84125   0.97783   0.00000  Uiso   1.00
H1343  H     0.40053   0.79964   0.95846   0.00000  Uiso   1.00
H1344  H     0.60221   0.84577   0.54151   0.00000  Uiso   1.00
C1345  C     0.35432   0.79042   0.74607   0.00000  Uiso   1.00
C1346  C     0.64586   0.87562   0.75758   0.00000  Uiso   1.00
C1347  C     0.64535   0.79092   0.74349   0.00000  Uiso   1.00
C1348  C     0.35484   0.87495   0.76090   0.00000  Uiso   1.00
C1349  C     0.62402   0.83353   0.74923   0.00000  Uiso   1.00
C1350  C     0.37614   0.83266   0.75367   0.00000  Uiso   1.00
C1351  C     0.47652   0.69133   0.72038   0.00000  Uiso   1.00
C1352  C     0.52343   0.97534   0.77966   0.00000  Uiso   1.00
C1353  C     0.52346   0.69167   0.77964   0.00000  Uiso   1.00
C1354  C     0.47647   0.97500   0.72042   0.00000  Uiso   1.00
H1355  H     0.45777   0.70996   0.69665   0.00000  Uiso   1.00
H1356  H     0.54210   0.95671   0.80346   0.00000  Uiso   1.00
H1357  H     0.54227   0.71056   0.80333   0.00000  Uiso   1.00
H1358  H     0.45758   0.95610   0.69680   0.00000  Uiso   1.00
N1359  N     0.50000   0.95069   0.75000   0.00000  Uiso   1.00
N1360  N     0.50000   0.71598   0.75000   0.00000  Uiso   1.00
N1361  N     0.57013   0.86122   0.88267   0.00000  Uiso   1.00
O1362  O     0.58671   0.83712   0.85092   0.00000  Uiso   1.00
O1363  O     0.58292   0.90371   0.89071   0.00000  Uiso   1.00
N1364  N     0.42528   0.82938   0.61729   0.00000  Uiso   1.00
O1365  O     0.41732   0.80103   0.64990   0.00000  Uiso   1.00
O1366  O     0.40019   0.86344   0.60842   0.00000  Uiso   1.00
C1367  C     0.42485   0.81513   0.88038   0.00000  Uiso   1.00
O1368  O     0.42164   0.78190   0.85487   0.00000  Uiso   1.00
O1369  O     0.39250   0.84640   0.88554   0.00000  Uiso   1.00
H1370  H     0.36830   0.83824   0.86583   0.00000  Uiso   1.00
C1371  C     0.57463   0.85009   0.61952   0.00000  Uiso   1.00
O1372  O     0.58771   0.82119   0.64584   0.00000  Uiso   1.00
O1373  O     0.59518   0.89267   0.61347   0.00000  Uiso   1.00
H1374  H     0.62047   0.89547   0.63287   0.00000  Uiso   1.00
C1375  C     0.39138   0.78563   0.54260   0.00000  Uiso   1.00
O1376  O     0.35716   0.79863   0.53201   0.00000  Uiso   1.00
O1377  O     0.39630   0.74848   0.57239   0.00000  Uiso   1.00
H1378  H     0.36931   0.73608   0.58380   0.00000  Uiso   1.00
C1379  C     0.61523   0.83621   0.95760   0.00000  Uiso   1.00
O1380  O     0.64261   0.86373   0.96734   0.00000  Uiso   1.00
O1381  O     0.62283   0.79854   0.92912   0.00000  Uiso   1.00
H1382  H     0.65203   0.79806   0.91835   0.00000  Uiso   1.00
N1383  N     0.37457   0.74628   0.74053   0.00000  Uiso   1.00
O1384  O     0.38738   0.72353   0.77529   0.00000  Uiso   1.00
O1385  O     0.37326   0.72506   0.70230   0.00000  Uiso   1.00
N1386  N     0.62551   0.91951   0.76409   0.00000  Uiso   1.00
O1387  O     0.61413   0.94402   0.72982   0.00000  Uiso   1.00
O1388  O     0.62518   0.93867   0.80327   0.00000  Uiso   1.00
N1389  N     0.62455   0.74727   0.73530   0.00000  Uiso   1.00
O1390  O     0.60986   0.73806   0.69604   0.00000  Uiso   1.00
O1391  O     0.62512   0.71445   0.76525   0.00000  Uiso   1.00
N1392  N     0.37571   0.91772   0.77245   0.00000  Uiso   1.00
O1393  O     0.39380   0.92175   0.81082   0.00000  Uiso   1.00
O1394  O     0.37387   0.95384   0.74618   0.00000  Uiso   1.00
O1395  O     0.77321   0.87291   0.75000   0.00000  Uiso   1.00
O1396  O     0.89345   0.79375   0.75001   0.00000  Uiso   1.00
O1397  O     0.89345   0.87291   0.75001   0.00000  Uiso   1.00
O1398  O     0.77321   0.79375   0.75000   0.00000  Uiso   1.00
C1399  C     0.75407   0.83316   0.75165   0.00000  Uiso   1.00
C1400  C     0.91267   0.83343   0.74930   0.00000  Uiso   1.00
O1401  O     0.83332   0.87293   0.68513   0.00000  Uiso   1.00
O1402  O     0.83334   0.79373   0.81487   0.00000  Uiso   1.00
O1403  O     0.83334   0.87293   0.81487   0.00000  Uiso   1.00
O1404  O     0.83332   0.79373   0.68513   0.00000  Uiso   1.00
C1405  C     0.83300   0.83329   0.66457   0.00000  Uiso   1.00
C1406  C     0.83306   0.83332   0.83544   0.00000  Uiso   1.00
Cu1407 Cu    0.83333   0.88022   0.75000   0.00000  Uiso   1.00
Cu1408 Cu    0.83333   0.78645   0.75000   0.00000  Uiso   1.00
C1409  C     0.86934   0.84257   0.90667   0.00000  Uiso   1.00
C1410  C     0.79627   0.82574   0.59341   0.00000  Uiso   1.00
C1411  C     0.83295   0.83276   0.88361   0.00000  Uiso   1.00
C1412  C     0.83318   0.83279   0.61639   0.00000  Uiso   1.00
C1413  C     0.79663   0.82246   0.90607   0.00000  Uiso   1.00
C1414  C     0.86998   0.84002   0.59387   0.00000  Uiso   1.00
C1415  C     0.79682   0.82173   0.95278   0.00000  Uiso   1.00
C1416  C     0.87005   0.83892   0.54719   0.00000  Uiso   1.00
C1417  C     0.83361   0.83011   0.97651   0.00000  Uiso   1.00
C1418  C     0.83332   0.83012   0.52350   0.00000  Uiso   1.00
C1419  C     0.87067   0.83817   0.95336   0.00000  Uiso   1.00
C1420  C     0.79642   0.82117   0.54668   0.00000  Uiso   1.00
C1421  C     0.76137   0.80995   0.97611   0.00000  Uiso   1.00
C1422  C     0.90672   0.84336   0.52389   0.00000  Uiso   1.00
C1423  C     0.76105   0.80773   0.52222   0.00000  Uiso   1.00
C1424  C     0.90775   0.84125   0.97783   0.00000  Uiso   1.00
H1425  H     0.73386   0.79964   0.95846   0.00000  Uiso   1.00
H1426  H     0.93554   0.84577   0.54151   0.00000  Uiso   1.00
C1427  C     0.68765   0.79042   0.74607   0.00000  Uiso   1.00
C1428  C     0.97919   0.87562   0.75758   0.00000  Uiso   1.00
C1429  C     0.97868   0.79092   0.74349   0.00000  Uiso   1.00
C1430  C     0.68817   0.87495   0.76090   0.00000  Uiso   1.00
C1431  C     0.95735   0.83353   0.74923   0.00000  Uiso   1.00
C1432  C     0.70947   0.83266   0.75367   0.00000  Uiso   1.00
C1433  C     0.80985   0.69133   0.72038   0.00000  Uiso   1.00
C1434  C     0.85676   0.97534   0.77966   0.00000  Uiso   1.00
C1435  C     0.85680   0.69167   0.77964   0.00000  Uiso   1.00
C1436  C     0.80980   0.97500   0.72042   0.00000  Uiso   1.00
H1437  H     0.79111   0.70996   0.69665   0.00000  Uiso   1.00
H1438  H     0.87543   0.95671   0.80346   0.00000  Uiso   1.00
H1439  H     0.87560   0.71056   0.80333   0.00000  Uiso   1.00
H1440  H     0.79092   0.95610   0.69680   0.00000  Uiso   1.00
N1441  N     0.83333   0.95069   0.75000   0.00000  Uiso   1.00
N1442  N     0.83333   0.71598   0.75000   0.00000  Uiso   1.00
N1443  N     0.90347   0.86122   0.88267   0.00000  Uiso   1.00
O1444  O     0.92004   0.83712   0.85092   0.00000  Uiso   1.00
O1445  O     0.91626   0.90371   0.89071   0.00000  Uiso   1.00
N1446  N     0.75861   0.82938   0.61729   0.00000  Uiso   1.00
O1447  O     0.75065   0.80103   0.64990   0.00000  Uiso   1.00
O1448  O     0.73353   0.86344   0.60842   0.00000  Uiso   1.00
C1449  C     0.75818   0.81513   0.88038   0.00000  Uiso   1.00
O1450  O     0.75497   0.78190   0.85487   0.00000  Uiso   1.00
O1451  O     0.72584   0.84640   0.88554   0.00000  Uiso   1.00
H1452  H     0.70163   0.83824   0.86583   0.00000  Uiso   1.00
C1453  C     0.90796   0.85009   0.61952   0.00000  Uiso   1.00
O1454  O     0.92104   0.82119   0.64584   0.00000  Uiso   1.00
O1455  O     0.92852   0.89267   0.61347   0.00000  Uiso   1.00
H1456  H     0.95381   0.89547   0.63287   0.00000  Uiso   1.00
C1457  C     0.72471   0.78563   0.54260   0.00000  Uiso   1.00
O1458  O     0.69049   0.79863   0.53201   0.00000  Uiso   1.00
O1459  O     0.72963   0.74848   0.57239   0.00000  Uiso   1.00
H1460  H     0.70264   0.73608   0.58380   0.00000  Uiso   1.00
C1461  C     0.94856   0.83621   0.95760   0.00000  Uiso   1.00
O1462  O     0.97594   0.86373   0.96734   0.00000  Uiso   1.00
O1463  O     0.95616   0.79854   0.92912   0.00000  Uiso   1.00
H1464  H     0.98536   0.79806   0.91835   0.00000  Uiso   1.00
N1465  N     0.70790   0.74628   0.74053   0.00000  Uiso   1.00
O1466  O     0.72071   0.72353   0.77529   0.00000  Uiso   1.00
O1467  O     0.70659   0.72506   0.70230   0.00000  Uiso   1.00
N1468  N     0.95884   0.91951   0.76409   0.00000  Uiso   1.00
O1469  O     0.94747   0.94402   0.72982   0.00000  Uiso   1.00
O1470  O     0.95851   0.93867   0.80327   0.00000  Uiso   1.00
N1471  N     0.95789   0.74727   0.73530   0.00000  Uiso   1.00
O1472  O     0.94319   0.73806   0.69604   0.00000  Uiso   1.00
O1473  O     0.95846   0.71445   0.76525   0.00000  Uiso   1.00
N1474  N     0.70905   0.91772   0.77245   0.00000  Uiso   1.00
O1475  O     0.72714   0.92175   0.81082   0.00000  Uiso   1.00
O1476  O     0.70720   0.95384   0.74618   0.00000  Uiso   1.00
loop_
_geom_bond_atom_site_label_1
_geom_bond_atom_site_label_2
_geom_bond_distance
_geom_bond_site_symmetry_2
_ccdc_geom_bond_type
O1     C5      1.294   .     A
O1     Cu13    1.982   .     S
O2     C6      1.292   .     A
O2     Cu14    1.982   .     S
O3     C6      1.292   .     A
O3     Cu13    1.984   .     S
O4     C5      1.290   .     A
O4     Cu14    1.984   .     S
C5     C38     1.464   .     S
C6     C37     1.466   .     S
O7     C11     1.287   .     A
O7     Cu13    1.967   .     S
O8     C12     1.286   .     A
O8     Cu14    1.967   .     S
O9     Cu13    1.967   .     S
O9     C12     1.289   .     A
O10    Cu14    1.967   .     S
O10    C11     1.287   .     A
C11    C18     1.453   .     S
C12    C17     1.453   .     S
Cu13   Cu14    2.671   .     S
Cu13   N47     2.008   .     S
Cu14   N48     2.008   .     S
C15    C25     1.414   .     A
C15    N49     1.437   .     S
C15    C17     1.403   .     A
C16    C26     1.415   .     A
C16    N52     1.438   .     S
C16    C18     1.404   .     A
C17    C19     1.405   .     A
C18    C20     1.404   .     A
C19    C21     1.408   .     A
C19    C55     1.489   .     S
C20    C59     1.488   .     S
C20    C22     1.408   .     A
C21    C27     1.403   .     A
C21    C23     1.417   .     A
C22    C28     1.402   .     A
C22    C24     1.417   .     A
C23    C25     1.424   .     A
C23    C762    1.417   .     S
C24    C26     1.424   .     A
C24    C761    1.417   1_554 S
C25    C30     1.420   .     A
C26    C29     1.420   .     A
C27    H31     1.083   .     S
C27    C767    1.392   .     S
C28    H32     1.083   .     S
C28    C768    1.391   1_554 S
C29    C63     1.483   .     S
C29    C765    1.392   1_554 S
C30    C67     1.482   .     S
C30    C766    1.391   .     S
C33    C38     1.415   .     A
C33    N71     1.435   .     S
C33    C199    1.389   1_455 S
C34    C37     1.415   .     A
C34    N74     1.434   .     S
C34    C118    1.391   .     S
C35    N77     1.436   .     S
C35    C37     1.415   .     A
C35    C115    1.389   .     S
C36    N80     1.436   .     S
C36    C38     1.413   .     A
C36    C198    1.391   1_455 S
C39    H43     1.081   .     S
C39    N48     1.366   .     A
C39    C534    1.415   1_545 S
C40    N47     1.366   .     A
C40    H44     1.081   .     S
C40    C287    1.415   .     S
C41    N48     1.366   .     A
C41    H45     1.082   .     S
C41    C532    1.415   1_545 S
C42    H46     1.082   .     S
C42    N47     1.366   .     A
C42    C285    1.415   .     S
N49    O51     1.301   .     A
N49    O50     1.301   .     A
N52    O54     1.302   .     A
N52    O53     1.301   .     A
C55    O56     1.222   .     D
C55    O57     1.398   .     S
O57    H58     1.014   .     S
C59    O60     1.221   .     D
C59    O61     1.398   .     S
O61    H62     1.014   .     S
C63    O65     1.398   .     S
C63    O64     1.224   .     D
O65    H66     1.014   .     S
C67    O68     1.223   .     D
C67    O69     1.398   .     S
O69    H70     1.014   .     S
N71    O73     1.301   .     A
N71    O72     1.301   .     A
N74    O76     1.301   .     A
N74    O75     1.301   .     A
N77    O78     1.301   .     A
N77    O79     1.301   .     A
N80    O82     1.301   .     A
N80    O81     1.301   .     A
O83    C87     1.294   .     A
O83    Cu95    1.982   .     S
O84    C88     1.292   .     A
O84    Cu96    1.982   .     S
O85    C88     1.292   .     A
O85    Cu95    1.984   .     S
O86    C87     1.290   .     A
O86    Cu96    1.984   .     S
C87    C120    1.464   .     S
C88    C119    1.466   .     S
O89    C93     1.287   .     A
O89    Cu95    1.967   .     S
O90    C94     1.286   .     A
O90    Cu96    1.967   .     S
O91    Cu95    1.967   .     S
O91    C94     1.289   .     A
O92    Cu96    1.967   .     S
O92    C93     1.287   .     A
C93    C100    1.453   .     S
C94    C99     1.453   .     S
Cu95   Cu96    2.671   .     S
Cu95   N129    2.008   .     S
Cu96   N130    2.008   .     S
C97    C107    1.414   .     A
C97    N131    1.437   .     S
C97    C99     1.403   .     A
C98    C108    1.415   .     A
C98    N134    1.438   .     S
C98    C100    1.404   .     A
C99    C101    1.405   .     A
C100   C102    1.404   .     A
C101   C103    1.408   .     A
C101   C137    1.489   .     S
C102   C141    1.488   .     S
C102   C104    1.408   .     A
C103   C109    1.403   .     A
C103   C105    1.417   .     A
C104   C110    1.402   .     A
C104   C106    1.417   .     A
C105   C107    1.424   .     A
C105   C844    1.417   .     S
C106   C108    1.424   .     A
C106   C843    1.417   1_554 S
C107   C112    1.420   .     A
C108   C111    1.420   .     A
C109   H113    1.083   .     S
C109   C849    1.392   .     S
C110   H114    1.083   .     S
C110   C850    1.391   1_554 S
C111   C145    1.483   .     S
C111   C847    1.392   1_554 S
C112   C149    1.482   .     S
C112   C848    1.391   .     S
C115   C120    1.415   .     A
C115   N153    1.435   .     S
C116   C119    1.415   .     A
C116   N156    1.434   .     S
C116   C200    1.391   .     S
C117   N159    1.436   .     S
C117   C119    1.415   .     A
C117   C197    1.389   .     S
C118   N162    1.436   .     S
C118   C120    1.413   .     A
C121   H125    1.081   .     S
C121   N130    1.366   .     A
C121   C616    1.415   1_545 S
C122   N129    1.366   .     A
C122   H126    1.081   .     S
C122   C369    1.415   .     S
C123   N130    1.366   .     A
C123   H127    1.082   .     S
C123   C614    1.415   1_545 S
C124   H128    1.082   .     S
C124   N129    1.366   .     A
C124   C367    1.415   .     S
N131   O133    1.301   .     A
N131   O132    1.301   .     A
N134   O136    1.302   .     A
N134   O135    1.301   .     A
C137   O138    1.222   .     D
C137   O139    1.398   .     S
O139   H140    1.014   .     S
C141   O142    1.221   .     D
C141   O143    1.398   .     S
O143   H144    1.014   .     S
C145   O147    1.398   .     S
C145   O146    1.224   .     D
O147   H148    1.014   .     S
C149   O150    1.223   .     D
C149   O151    1.398   .     S
O151   H152    1.014   .     S
N153   O155    1.301   .     A
N153   O154    1.301   .     A
N156   O158    1.301   .     A
N156   O157    1.301   .     A
N159   O160    1.301   .     A
N159   O161    1.301   .     A
N162   O164    1.301   .     A
N162   O163    1.301   .     A
O165   C169    1.294   .     A
O165   Cu177   1.982   .     S
O166   C170    1.292   .     A
O166   Cu178   1.982   .     S
O167   C170    1.292   .     A
O167   Cu177   1.984   .     S
O168   C169    1.290   .     A
O168   Cu178   1.984   .     S
C169   C202    1.464   .     S
C170   C201    1.466   .     S
O171   C175    1.287   .     A
O171   Cu177   1.967   .     S
O172   C176    1.286   .     A
O172   Cu178   1.967   .     S
O173   Cu177   1.967   .     S
O173   C176    1.289   .     A
O174   Cu178   1.967   .     S
O174   C175    1.287   .     A
C175   C182    1.453   .     S
C176   C181    1.453   .     S
Cu177  Cu178   2.671   .     S
Cu177  N211    2.008   .     S
Cu178  N212    2.008   .     S
C179   C189    1.414   .     A
C179   N213    1.437   .     S
C179   C181    1.403   .     A
C180   C190    1.415   .     A
C180   N216    1.438   .     S
C180   C182    1.404   .     A
C181   C183    1.405   .     A
C182   C184    1.404   .     A
C183   C185    1.408   .     A
C183   C219    1.489   .     S
C184   C223    1.488   .     S
C184   C186    1.408   .     A
C185   C191    1.403   .     A
C185   C187    1.417   .     A
C186   C192    1.402   .     A
C186   C188    1.417   .     A
C187   C189    1.424   .     A
C187   C926    1.417   .     S
C188   C190    1.424   .     A
C188   C925    1.417   1_554 S
C189   C194    1.420   .     A
C190   C193    1.420   .     A
C191   H195    1.083   .     S
C191   C931    1.392   .     S
C192   H196    1.083   .     S
C192   C932    1.391   1_554 S
C193   C227    1.483   .     S
C193   C929    1.392   1_554 S
C194   C231    1.482   .     S
C194   C930    1.391   .     S
C197   C202    1.415   .     A
C197   N235    1.435   .     S
C198   C201    1.415   .     A
C198   N238    1.434   .     S
C198   C36     1.391   1_655 S
C199   N241    1.436   .     S
C199   C201    1.415   .     A
C199   C33     1.389   1_655 S
C200   N244    1.436   .     S
C200   C202    1.413   .     A
C203   H207    1.081   .     S
C203   N212    1.366   .     A
C203   C698    1.415   1_545 S
C204   N211    1.366   .     A
C204   H208    1.081   .     S
C204   C451    1.415   .     S
C205   N212    1.366   .     A
C205   H209    1.082   .     S
C205   C696    1.415   1_545 S
C206   H210    1.082   .     S
C206   N211    1.366   .     A
C206   C449    1.415   .     S
N213   O215    1.301   .     A
N213   O214    1.301   .     A
N216   O218    1.302   .     A
N216   O217    1.301   .     A
C219   O220    1.222   .     D
C219   O221    1.398   .     S
O221   H222    1.014   .     S
C223   O224    1.221   .     D
C223   O225    1.398   .     S
O225   H226    1.014   .     S
C227   O229    1.398   .     S
C227   O228    1.224   .     D
O229   H230    1.014   .     S
C231   O232    1.223   .     D
C231   O233    1.398   .     S
O233   H234    1.014   .     S
N235   O237    1.301   .     A
N235   O236    1.301   .     A
N238   O240    1.301   .     A
N238   O239    1.301   .     A
N241   O242    1.301   .     A
N241   O243    1.301   .     A
N244   O246    1.301   .     A
N244   O245    1.301   .     A
O247   C251    1.294   .     A
O247   Cu259   1.982   .     S
O248   C252    1.292   .     A
O248   Cu260   1.982   .     S
O249   C252    1.292   .     A
O249   Cu259   1.984   .     S
O250   C251    1.290   .     A
O250   Cu260   1.984   .     S
C251   C284    1.464   .     S
C252   C283    1.466   .     S
O253   C257    1.287   .     A
O253   Cu259   1.967   .     S
O254   C258    1.286   .     A
O254   Cu260   1.967   .     S
O255   Cu259   1.967   .     S
O255   C258    1.289   .     A
O256   Cu260   1.967   .     S
O256   C257    1.287   .     A
C257   C264    1.453   .     S
C258   C263    1.453   .     S
Cu259  Cu260   2.671   .     S
Cu259  N293    2.008   .     S
Cu260  N294    2.008   .     S
C261   C271    1.414   .     A
C261   N295    1.437   .     S
C261   C263    1.403   .     A
C262   C272    1.415   .     A
C262   N298    1.438   .     S
C262   C264    1.404   .     A
C263   C265    1.405   .     A
C264   C266    1.404   .     A
C265   C267    1.408   .     A
C265   C301    1.489   .     S
C266   C305    1.488   .     S
C266   C268    1.408   .     A
C267   C273    1.403   .     A
C267   C269    1.417   .     A
C268   C274    1.402   .     A
C268   C270    1.417   .     A
C269   C271    1.424   .     A
C269   C1008   1.417   .     S
C270   C272    1.424   .     A
C270   C1007   1.417   1_554 S
C271   C276    1.420   .     A
C272   C275    1.420   .     A
C273   H277    1.083   .     S
C273   C1013   1.392   .     S
C274   H278    1.083   .     S
C274   C1014   1.391   1_554 S
C275   C309    1.483   .     S
C275   C1011   1.392   1_554 S
C276   C313    1.482   .     S
C276   C1012   1.391   .     S
C279   C284    1.415   .     A
C279   N317    1.435   .     S
C279   C445    1.389   1_455 S
C280   C283    1.415   .     A
C280   N320    1.434   .     S
C280   C364    1.391   .     S
C281   N323    1.436   .     S
C281   C283    1.415   .     A
C281   C361    1.389   .     S
C282   N326    1.436   .     S
C282   C284    1.413   .     A
C282   C444    1.391   1_455 S
C285   H289    1.081   .     S
C285   N294    1.366   .     A
C286   N293    1.366   .     A
C286   H290    1.081   .     S
C286   C533    1.415   .     S
C287   N294    1.366   .     A
C287   H291    1.082   .     S
C288   H292    1.082   .     S
C288   N293    1.366   .     A
C288   C531    1.415   .     S
N295   O297    1.301   .     A
N295   O296    1.301   .     A
N298   O300    1.302   .     A
N298   O299    1.301   .     A
C301   O302    1.222   .     D
C301   O303    1.398   .     S
O303   H304    1.014   .     S
C305   O306    1.221   .     D
C305   O307    1.398   .     S
O307   H308    1.014   .     S
C309   O311    1.398   .     S
C309   O310    1.224   .     D
O311   H312    1.014   .     S
C313   O314    1.223   .     D
C313   O315    1.398   .     S
O315   H316    1.014   .     S
N317   O319    1.301   .     A
N317   O318    1.301   .     A
N320   O322    1.301   .     A
N320   O321    1.301   .     A
N323   O324    1.301   .     A
N323   O325    1.301   .     A
N326   O328    1.301   .     A
N326   O327    1.301   .     A
O329   C333    1.294   .     A
O329   Cu341   1.982   .     S
O330   C334    1.292   .     A
O330   Cu342   1.982   .     S
O331   C334    1.292   .     A
O331   Cu341   1.984   .     S
O332   C333    1.290   .     A
O332   Cu342   1.984   .     S
C333   C366    1.464   .     S
C334   C365    1.466   .     S
O335   C339    1.287   .     A
O335   Cu341   1.967   .     S
O336   C340    1.286   .     A
O336   Cu342   1.967   .     S
O337   Cu341   1.967   .     S
O337   C340    1.289   .     A
O338   Cu342   1.967   .     S
O338   C339    1.287   .     A
C339   C346    1.453   .     S
C340   C345    1.453   .     S
Cu341  Cu342   2.671   .     S
Cu341  N375    2.008   .     S
Cu342  N376    2.008   .     S
C343   C353    1.414   .     A
C343   N377    1.437   .     S
C343   C345    1.403   .     A
C344   C354    1.415   .     A
C344   N380    1.438   .     S
C344   C346    1.404   .     A
C345   C347    1.405   .     A
C346   C348    1.404   .     A
C347   C349    1.408   .     A
C347   C383    1.489   .     S
C348   C387    1.488   .     S
C348   C350    1.408   .     A
C349   C355    1.403   .     A
C349   C351    1.417   .     A
C350   C356    1.402   .     A
C350   C352    1.417   .     A
C351   C353    1.424   .     A
C351   C1090   1.417   .     S
C352   C354    1.424   .     A
C352   C1089   1.417   1_554 S
C353   C358    1.420   .     A
C354   C357    1.420   .     A
C355   H359    1.083   .     S
C355   C1095   1.392   .     S
C356   H360    1.083   .     S
C356   C1096   1.391   1_554 S
C357   C391    1.483   .     S
C357   C1093   1.392   1_554 S
C358   C395    1.482   .     S
C358   C1094   1.391   .     S
C361   C366    1.415   .     A
C361   N399    1.435   .     S
C362   C365    1.415   .     A
C362   N402    1.434   .     S
C362   C446    1.391   .     S
C363   N405    1.436   .     S
C363   C365    1.415   .     A
C363   C443    1.389   .     S
C364   N408    1.436   .     S
C364   C366    1.413   .     A
C367   H371    1.081   .     S
C367   N376    1.366   .     A
C368   N375    1.366   .     A
C368   H372    1.081   .     S
C368   C615    1.415   .     S
C369   N376    1.366   .     A
C369   H373    1.082   .     S
C370   H374    1.082   .     S
C370   N375    1.366   .     A
C370   C613    1.415   .     S
N377   O379    1.301   .     A
N377   O378    1.301   .     A
N380   O382    1.302   .     A
N380   O381    1.301   .     A
C383   O384    1.222   .     D
C383   O385    1.398   .     S
O385   H386    1.014   .     S
C387   O388    1.221   .     D
C387   O389    1.398   .     S
O389   H390    1.014   .     S
C391   O393    1.398   .     S
C391   O392    1.224   .     D
O393   H394    1.014   .     S
C395   O396    1.223   .     D
C395   O397    1.398   .     S
O397   H398    1.014   .     S
N399   O401    1.301   .     A
N399   O400    1.301   .     A
N402   O404    1.301   .     A
N402   O403    1.301   .     A
N405   O406    1.301   .     A
N405   O407    1.301   .     A
N408   O410    1.301   .     A
N408   O409    1.301   .     A
O411   C415    1.294   .     A
O411   Cu423   1.982   .     S
O412   C416    1.292   .     A
O412   Cu424   1.982   .     S
O413   C416    1.292   .     A
O413   Cu423   1.984   .     S
O414   C415    1.290   .     A
O414   Cu424   1.984   .     S
C415   C448    1.464   .     S
C416   C447    1.466   .     S
O417   C421    1.287   .     A
O417   Cu423   1.967   .     S
O418   C422    1.286   .     A
O418   Cu424   1.967   .     S
O419   Cu423   1.967   .     S
O419   C422    1.289   .     A
O420   Cu424   1.967   .     S
O420   C421    1.287   .     A
C421   C428    1.453   .     S
C422   C427    1.453   .     S
Cu423  Cu424   2.671   .     S
Cu423  N457    2.008   .     S
Cu424  N458    2.008   .     S
C425   C435    1.414   .     A
C425   N459    1.437   .     S
C425   C427    1.403   .     A
C426   C436    1.415   .     A
C426   N462    1.438   .     S
C426   C428    1.404   .     A
C427   C429    1.405   .     A
C428   C430    1.404   .     A
C429   C431    1.408   .     A
C429   C465    1.489   .     S
C430   C469    1.488   .     S
C430   C432    1.408   .     A
C431   C437    1.403   .     A
C431   C433    1.417   .     A
C432   C438    1.402   .     A
C432   C434    1.417   .     A
C433   C435    1.424   .     A
C433   C1172   1.417   .     S
C434   C436    1.424   .     A
C434   C1171   1.417   1_554 S
C435   C440    1.420   .     A
C436   C439    1.420   .     A
C437   H441    1.083   .     S
C437   C1177   1.392   .     S
C438   H442    1.083   .     S
C438   C1178   1.391   1_554 S
C439   C473    1.483   .     S
C439   C1175   1.392   1_554 S
C440   C477    1.482   .     S
C440   C1176   1.391   .     S
C443   C448    1.415   .     A
C443   N481    1.435   .     S
C444   C447    1.415   .     A
C444   N484    1.434   .     S
C444   C282    1.391   1_655 S
C445   N487    1.436   .     S
C445   C447    1.415   .     A
C445   C279    1.389   1_655 S
C446   N490    1.436   .     S
C446   C448    1.413   .     A
C449   H453    1.081   .     S
C449   N458    1.366   .     A
C450   N457    1.366   .     A
C450   H454    1.081   .     S
C450   C697    1.415   .     S
C451   N458    1.366   .     A
C451   H455    1.082   .     S
C452   H456    1.082   .     S
C452   N457    1.366   .     A
C452   C695    1.415   .     S
N459   O461    1.301   .     A
N459   O460    1.301   .     A
N462   O464    1.302   .     A
N462   O463    1.301   .     A
C465   O466    1.222   .     D
C465   O467    1.398   .     S
O467   H468    1.014   .     S
C469   O470    1.221   .     D
C469   O471    1.398   .     S
O471   H472    1.014   .     S
C473   O475    1.398   .     S
C473   O474    1.224   .     D
O475   H476    1.014   .     S
C477   O478    1.223   .     D
C477   O479    1.398   .     S
O479   H480    1.014   .     S
N481   O483    1.301   .     A
N481   O482    1.301   .     A
N484   O486    1.301   .     A
N484   O485    1.301   .     A
N487   O488    1.301   .     A
N487   O489    1.301   .     A
N490   O492    1.301   .     A
N490   O491    1.301   .     A
O493   C497    1.294   .     A
O493   Cu505   1.982   .     S
O494   C498    1.292   .     A
O494   Cu506   1.982   .     S
O495   C498    1.292   .     A
O495   Cu505   1.984   .     S
O496   C497    1.290   .     A
O496   Cu506   1.984   .     S
C497   C530    1.464   .     S
C498   C529    1.466   .     S
O499   C503    1.287   .     A
O499   Cu505   1.967   .     S
O500   C504    1.286   .     A
O500   Cu506   1.967   .     S
O501   Cu505   1.967   .     S
O501   C504    1.289   .     A
O502   Cu506   1.967   .     S
O502   C503    1.287   .     A
C503   C510    1.453   .     S
C504   C509    1.453   .     S
Cu505  Cu506   2.671   .     S
Cu505  N539    2.008   .     S
Cu506  N540    2.008   .     S
C507   C517    1.414   .     A
C507   N541    1.437   .     S
C507   C509    1.403   .     A
C508   C518    1.415   .     A
C508   N544    1.438   .     S
C508   C510    1.404   .     A
C509   C511    1.405   .     A
C510   C512    1.404   .     A
C511   C513    1.408   .     A
C511   C547    1.489   .     S
C512   C551    1.488   .     S
C512   C514    1.408   .     A
C513   C519    1.403   .     A
C513   C515    1.417   .     A
C514   C520    1.402   .     A
C514   C516    1.417   .     A
C515   C517    1.424   .     A
C515   C1254   1.417   .     S
C516   C518    1.424   .     A
C516   C1253   1.417   1_554 S
C517   C522    1.420   .     A
C518   C521    1.420   .     A
C519   H523    1.083   .     S
C519   C1259   1.392   .     S
C520   H524    1.083   .     S
C520   C1260   1.391   1_554 S
C521   C555    1.483   .     S
C521   C1257   1.392   1_554 S
C522   C559    1.482   .     S
C522   C1258   1.391   .     S
C525   C530    1.415   .     A
C525   N563    1.435   .     S
C525   C691    1.389   1_455 S
C526   C529    1.415   .     A
C526   N566    1.434   .     S
C526   C610    1.391   .     S
C527   N569    1.436   .     S
C527   C529    1.415   .     A
C527   C607    1.389   .     S
C528   N572    1.436   .     S
C528   C530    1.413   .     A
C528   C690    1.391   1_455 S
C531   H535    1.081   .     S
C531   N540    1.366   .     A
C532   N539    1.366   .     A
C532   H536    1.081   .     S
C532   C41     1.415   1_565 S
C533   N540    1.366   .     A
C533   H537    1.082   .     S
C534   H538    1.082   .     S
C534   N539    1.366   .     A
C534   C39     1.415   1_565 S
N541   O543    1.301   .     A
N541   O542    1.301   .     A
N544   O546    1.302   .     A
N544   O545    1.301   .     A
C547   O548    1.222   .     D
C547   O549    1.398   .     S
O549   H550    1.014   .     S
C551   O552    1.221   .     D
C551   O553    1.398   .     S
O553   H554    1.014   .     S
C555   O557    1.398   .     S
C555   O556    1.224   .     D
O557   H558    1.014   .     S
C559   O560    1.223   .     D
C559   O561    1.398   .     S
O561   H562    1.014   .     S
N563   O565    1.301   .     A
N563   O564    1.301   .     A
N566   O568    1.301   .     A
N566   O567    1.301   .     A
N569   O570    1.301   .     A
N569   O571    1.301   .     A
N572   O574    1.301   .     A
N572   O573    1.301   .     A
O575   C579    1.294   .     A
O575   Cu587   1.982   .     S
O576   C580    1.292   .     A
O576   Cu588   1.982   .     S
O577   C580    1.292   .     A
O577   Cu587   1.984   .     S
O578   C579    1.290   .     A
O578   Cu588   1.984   .     S
C579   C612    1.464   .     S
C580   C611    1.466   .     S
O581   C585    1.287   .     A
O581   Cu587   1.967   .     S
O582   C586    1.286   .     A
O582   Cu588   1.967   .     S
O583   Cu587   1.967   .     S
O583   C586    1.289   .     A
O584   Cu588   1.967   .     S
O584   C585    1.287   .     A
C585   C592    1.453   .     S
C586   C591    1.453   .     S
Cu587  Cu588   2.671   .     S
Cu587  N621    2.008   .     S
Cu588  N622    2.008   .     S
C589   C599    1.414   .     A
C589   N623    1.437   .     S
C589   C591    1.403   .     A
C590   C600    1.415   .     A
C590   N626    1.438   .     S
C590   C592    1.404   .     A
C591   C593    1.405   .     A
C592   C594    1.404   .     A
C593   C595    1.408   .     A
C593   C629    1.489   .     S
C594   C633    1.488   .     S
C594   C596    1.408   .     A
C595   C601    1.403   .     A
C595   C597    1.417   .     A
C596   C602    1.402   .     A
C596   C598    1.417   .     A
C597   C599    1.424   .     A
C597   C1336   1.417   .     S
C598   C600    1.424   .     A
C598   C1335   1.417   1_554 S
C599   C604    1.420   .     A
C600   C603    1.420   .     A
C601   H605    1.083   .     S
C601   C1341   1.392   .     S
C602   H606    1.083   .     S
C602   C1342   1.391   1_554 S
C603   C637    1.483   .     S
C603   C1339   1.392   1_554 S
C604   C641    1.482   .     S
C604   C1340   1.391   .     S
C607   C612    1.415   .     A
C607   N645    1.435   .     S
C608   C611    1.415   .     A
C608   N648    1.434   .     S
C608   C692    1.391   .     S
C609   N651    1.436   .     S
C609   C611    1.415   .     A
C609   C689    1.389   .     S
C610   N654    1.436   .     S
C610   C612    1.413   .     A
C613   H617    1.081   .     S
C613   N622    1.366   .     A
C614   N621    1.366   .     A
C614   H618    1.081   .     S
C614   C123    1.415   1_565 S
C615   N622    1.366   .     A
C615   H619    1.082   .     S
C616   H620    1.082   .     S
C616   N621    1.366   .     A
C616   C121    1.415   1_565 S
N623   O625    1.301   .     A
N623   O624    1.301   .     A
N626   O628    1.302   .     A
N626   O627    1.301   .     A
C629   O630    1.222   .     D
C629   O631    1.398   .     S
O631   H632    1.014   .     S
C633   O634    1.221   .     D
C633   O635    1.398   .     S
O635   H636    1.014   .     S
C637   O639    1.398   .     S
C637   O638    1.224   .     D
O639   H640    1.014   .     S
C641   O642    1.223   .     D
C641   O643    1.398   .     S
O643   H644    1.014   .     S
N645   O647    1.301   .     A
N645   O646    1.301   .     A
N648   O650    1.301   .     A
N648   O649    1.301   .     A
N651   O652    1.301   .     A
N651   O653    1.301   .     A
N654   O656    1.301   .     A
N654   O655    1.301   .     A
O657   C661    1.294   .     A
O657   Cu669   1.982   .     S
O658   C662    1.292   .     A
O658   Cu670   1.982   .     S
O659   C662    1.292   .     A
O659   Cu669   1.984   .     S
O660   C661    1.290   .     A
O660   Cu670   1.984   .     S
C661   C694    1.464   .     S
C662   C693    1.466   .     S
O663   C667    1.287   .     A
O663   Cu669   1.967   .     S
O664   C668    1.286   .     A
O664   Cu670   1.967   .     S
O665   Cu669   1.967   .     S
O665   C668    1.289   .     A
O666   Cu670   1.967   .     S
O666   C667    1.287   .     A
C667   C674    1.453   .     S
C668   C673    1.453   .     S
Cu669  Cu670   2.671   .     S
Cu669  N703    2.008   .     S
Cu670  N704    2.008   .     S
C671   C681    1.414   .     A
C671   N705    1.437   .     S
C671   C673    1.403   .     A
C672   C682    1.415   .     A
C672   N708    1.438   .     S
C672   C674    1.404   .     A
C673   C675    1.405   .     A
C674   C676    1.404   .     A
C675   C677    1.408   .     A
C675   C711    1.489   .     S
C676   C715    1.488   .     S
C676   C678    1.408   .     A
C677   C683    1.403   .     A
C677   C679    1.417   .     A
C678   C684    1.402   .     A
C678   C680    1.417   .     A
C679   C681    1.424   .     A
C679   C1418   1.417   .     S
C680   C682    1.424   .     A
C680   C1417   1.417   1_554 S
C681   C686    1.420   .     A
C682   C685    1.420   .     A
C683   H687    1.083   .     S
C683   C1423   1.392   .     S
C684   H688    1.083   .     S
C684   C1424   1.391   1_554 S
C685   C719    1.483   .     S
C685   C1421   1.392   1_554 S
C686   C723    1.482   .     S
C686   C1422   1.391   .     S
C689   C694    1.415   .     A
C689   N727    1.435   .     S
C690   C693    1.415   .     A
C690   N730    1.434   .     S
C690   C528    1.391   1_655 S
C691   N733    1.436   .     S
C691   C693    1.415   .     A
C691   C525    1.389   1_655 S
C692   N736    1.436   .     S
C692   C694    1.413   .     A
C695   H699    1.081   .     S
C695   N704    1.366   .     A
C696   N703    1.366   .     A
C696   H700    1.081   .     S
C696   C205    1.415   1_565 S
C697   N704    1.366   .     A
C697   H701    1.082   .     S
C698   H702    1.082   .     S
C698   N703    1.366   .     A
C698   C203    1.415   1_565 S
N705   O707    1.301   .     A
N705   O706    1.301   .     A
N708   O710    1.302   .     A
N708   O709    1.301   .     A
C711   O712    1.222   .     D
C711   O713    1.398   .     S
O713   H714    1.014   .     S
C715   O716    1.221   .     D
C715   O717    1.398   .     S
O717   H718    1.014   .     S
C719   O721    1.398   .     S
C719   O720    1.224   .     D
O721   H722    1.014   .     S
C723   O724    1.223   .     D
C723   O725    1.398   .     S
O725   H726    1.014   .     S
N727   O729    1.301   .     A
N727   O728    1.301   .     A
N730   O732    1.301   .     A
N730   O731    1.301   .     A
N733   O734    1.301   .     A
N733   O735    1.301   .     A
N736   O738    1.301   .     A
N736   O737    1.301   .     A
O739   C743    1.294   .     A
O739   Cu751   1.982   .     S
O740   C744    1.292   .     A
O740   Cu752   1.982   .     S
O741   C744    1.292   .     A
O741   Cu751   1.984   .     S
O742   C743    1.290   .     A
O742   Cu752   1.984   .     S
C743   C776    1.464   .     S
C744   C775    1.466   .     S
O745   C749    1.287   .     A
O745   Cu751   1.967   .     S
O746   C750    1.286   .     A
O746   Cu752   1.967   .     S
O747   Cu751   1.967   .     S
O747   C750    1.289   .     A
O748   Cu752   1.967   .     S
O748   C749    1.287   .     A
C749   C756    1.453   .     S
C750   C755    1.453   .     S
Cu751  Cu752   2.671   .     S
Cu751  N785    2.008   .     S
Cu752  N786    2.008   .     S
C753   C763    1.414   .     A
C753   N787    1.437   .     S
C753   C755    1.403   .     A
C754   C764    1.415   .     A
C754   N790    1.438   .     S
C754   C756    1.404   .     A
C755   C757    1.405   .     A
C756   C758    1.404   .     A
C757   C759    1.408   .     A
C757   C793    1.489   .     S
C758   C797    1.488   .     S
C758   C760    1.408   .     A
C759   C765    1.403   .     A
C759   C761    1.417   .     A
C760   C766    1.402   .     A
C760   C762    1.417   .     A
C761   C763    1.424   .     A
C761   C24     1.417   1_556 S
C762   C764    1.424   .     A
C763   C768    1.420   .     A
C764   C767    1.420   .     A
C765   H769    1.083   .     S
C765   C29     1.392   1_556 S
C766   H770    1.083   .     S
C767   C801    1.483   .     S
C768   C805    1.482   .     S
C768   C28     1.391   1_556 S
C771   C776    1.415   .     A
C771   N809    1.435   .     S
C771   C937    1.389   1_455 S
C772   C775    1.415   .     A
C772   N812    1.434   .     S
C772   C856    1.391   .     S
C773   N815    1.436   .     S
C773   C775    1.415   .     A
C773   C853    1.389   .     S
C774   N818    1.436   .     S
C774   C776    1.413   .     A
C774   C936    1.391   1_455 S
C777   H781    1.081   .     S
C777   N786    1.366   .     A
C777   C1272   1.415   1_545 S
C778   N785    1.366   .     A
C778   H782    1.081   .     S
C778   C1025   1.415   .     S
C779   N786    1.366   .     A
C779   H783    1.082   .     S
C779   C1270   1.415   1_545 S
C780   H784    1.082   .     S
C780   N785    1.366   .     A
C780   C1023   1.415   .     S
N787   O789    1.301   .     A
N787   O788    1.301   .     A
N790   O792    1.302   .     A
N790   O791    1.301   .     A
C793   O794    1.222   .     D
C793   O795    1.398   .     S
O795   H796    1.014   .     S
C797   O798    1.221   .     D
C797   O799    1.398   .     S
O799   H800    1.014   .     S
C801   O803    1.398   .     S
C801   O802    1.224   .     D
O803   H804    1.014   .     S
C805   O806    1.223   .     D
C805   O807    1.398   .     S
O807   H808    1.014   .     S
N809   O811    1.301   .     A
N809   O810    1.301   .     A
N812   O814    1.301   .     A
N812   O813    1.301   .     A
N815   O816    1.301   .     A
N815   O817    1.301   .     A
N818   O820    1.301   .     A
N818   O819    1.301   .     A
O821   C825    1.294   .     A
O821   Cu833   1.982   .     S
O822   C826    1.292   .     A
O822   Cu834   1.982   .     S
O823   C826    1.292   .     A
O823   Cu833   1.984   .     S
O824   C825    1.290   .     A
O824   Cu834   1.984   .     S
C825   C858    1.464   .     S
C826   C857    1.466   .     S
O827   C831    1.287   .     A
O827   Cu833   1.967   .     S
O828   C832    1.286   .     A
O828   Cu834   1.967   .     S
O829   Cu833   1.967   .     S
O829   C832    1.289   .     A
O830   Cu834   1.967   .     S
O830   C831    1.287   .     A
C831   C838    1.453   .     S
C832   C837    1.453   .     S
Cu833  Cu834   2.671   .     S
Cu833  N867    2.008   .     S
Cu834  N868    2.008   .     S
C835   C845    1.414   .     A
C835   N869    1.437   .     S
C835   C837    1.403   .     A
C836   C846    1.415   .     A
C836   N872    1.438   .     S
C836   C838    1.404   .     A
C837   C839    1.405   .     A
C838   C840    1.404   .     A
C839   C841    1.408   .     A
C839   C875    1.489   .     S
C840   C879    1.488   .     S
C840   C842    1.408   .     A
C841   C847    1.403   .     A
C841   C843    1.417   .     A
C842   C848    1.402   .     A
C842   C844    1.417   .     A
C843   C845    1.424   .     A
C843   C106    1.417   1_556 S
C844   C846    1.424   .     A
C845   C850    1.420   .     A
C846   C849    1.420   .     A
C847   H851    1.083   .     S
C847   C111    1.392   1_556 S
C848   H852    1.083   .     S
C849   C883    1.483   .     S
C850   C887    1.482   .     S
C850   C110    1.391   1_556 S
C853   C858    1.415   .     A
C853   N891    1.435   .     S
C854   C857    1.415   .     A
C854   N894    1.434   .     S
C854   C938    1.391   .     S
C855   N897    1.436   .     S
C855   C857    1.415   .     A
C855   C935    1.389   .     S
C856   N900    1.436   .     S
C856   C858    1.413   .     A
C859   H863    1.081   .     S
C859   N868    1.366   .     A
C859   C1354   1.415   1_545 S
C860   N867    1.366   .     A
C860   H864    1.081   .     S
C860   C1107   1.415   .     S
C861   N868    1.366   .     A
C861   H865    1.082   .     S
C861   C1352   1.415   1_545 S
C862   H866    1.082   .     S
C862   N867    1.366   .     A
C862   C1105   1.415   .     S
N869   O871    1.301   .     A
N869   O870    1.301   .     A
N872   O874    1.302   .     A
N872   O873    1.301   .     A
C875   O876    1.222   .     D
C875   O877    1.398   .     S
O877   H878    1.014   .     S
C879   O880    1.221   .     D
C879   O881    1.398   .     S
O881   H882    1.014   .     S
C883   O885    1.398   .     S
C883   O884    1.224   .     D
O885   H886    1.014   .     S
C887   O888    1.223   .     D
C887   O889    1.398   .     S
O889   H890    1.014   .     S
N891   O893    1.301   .     A
N891   O892    1.301   .     A
N894   O896    1.301   .     A
N894   O895    1.301   .     A
N897   O898    1.301   .     A
N897   O899    1.301   .     A
N900   O902    1.301   .     A
N900   O901    1.301   .     A
O903   C907    1.294   .     A
O903   Cu915   1.982   .     S
O904   C908    1.292   .     A
O904   Cu916   1.982   .     S
O905   C908    1.292   .     A
O905   Cu915   1.984   .     S
O906   C907    1.290   .     A
O906   Cu916   1.984   .     S
C907   C940    1.464   .     S
C908   C939    1.466   .     S
O909   C913    1.287   .     A
O909   Cu915   1.967   .     S
O910   C914    1.286   .     A
O910   Cu916   1.967   .     S
O911   Cu915   1.967   .     S
O911   C914    1.289   .     A
O912   Cu916   1.967   .     S
O912   C913    1.287   .     A
C913   C920    1.453   .     S
C914   C919    1.453   .     S
Cu915  Cu916   2.671   .     S
Cu915  N949    2.008   .     S
Cu916  N950    2.008   .     S
C917   C927    1.414   .     A
C917   N951    1.437   .     S
C917   C919    1.403   .     A
C918   C928    1.415   .     A
C918   N954    1.438   .     S
C918   C920    1.404   .     A
C919   C921    1.405   .     A
C920   C922    1.404   .     A
C921   C923    1.408   .     A
C921   C957    1.489   .     S
C922   C961    1.488   .     S
C922   C924    1.408   .     A
C923   C929    1.403   .     A
C923   C925    1.417   .     A
C924   C930    1.402   .     A
C924   C926    1.417   .     A
C925   C927    1.424   .     A
C925   C188    1.417   1_556 S
C926   C928    1.424   .     A
C927   C932    1.420   .     A
C928   C931    1.420   .     A
C929   H933    1.083   .     S
C929   C193    1.392   1_556 S
C930   H934    1.083   .     S
C931   C965    1.483   .     S
C932   C969    1.482   .     S
C932   C192    1.391   1_556 S
C935   C940    1.415   .     A
C935   N973    1.435   .     S
C936   C939    1.415   .     A
C936   N976    1.434   .     S
C936   C774    1.391   1_655 S
C937   N979    1.436   .     S
C937   C939    1.415   .     A
C937   C771    1.389   1_655 S
C938   N982    1.436   .     S
C938   C940    1.413   .     A
C941   H945    1.081   .     S
C941   N950    1.366   .     A
C941   C1436   1.415   1_545 S
C942   N949    1.366   .     A
C942   H946    1.081   .     S
C942   C1189   1.415   .     S
C943   N950    1.366   .     A
C943   H947    1.082   .     S
C943   C1434   1.415   1_545 S
C944   H948    1.082   .     S
C944   N949    1.366   .     A
C944   C1187   1.415   .     S
N951   O953    1.301   .     A
N951   O952    1.301   .     A
N954   O956    1.302   .     A
N954   O955    1.301   .     A
C957   O958    1.222   .     D
C957   O959    1.398   .     S
O959   H960    1.014   .     S
C961   O962    1.221   .     D
C961   O963    1.398   .     S
O963   H964    1.014   .     S
C965   O967    1.398   .     S
C965   O966    1.224   .     D
O967   H968    1.014   .     S
C969   O970    1.223   .     D
C969   O971    1.398   .     S
O971   H972    1.014   .     S
N973   O975    1.301   .     A
N973   O974    1.301   .     A
N976   O978    1.301   .     A
N976   O977    1.301   .     A
N979   O980    1.301   .     A
N979   O981    1.301   .     A
N982   O984    1.301   .     A
N982   O983    1.301   .     A
O985   C989    1.294   .     A
O985   Cu997   1.982   .     S
O986   C990    1.292   .     A
O986   Cu998   1.982   .     S
O987   C990    1.292   .     A
O987   Cu997   1.984   .     S
O988   C989    1.290   .     A
O988   Cu998   1.984   .     S
C989   C1022   1.464   .     S
C990   C1021   1.466   .     S
O991   C995    1.287   .     A
O991   Cu997   1.967   .     S
O992   C996    1.286   .     A
O992   Cu998   1.967   .     S
O993   Cu997   1.967   .     S
O993   C996    1.289   .     A
O994   Cu998   1.967   .     S
O994   C995    1.287   .     A
C995   C1002   1.453   .     S
C996   C1001   1.453   .     S
Cu997  Cu998   2.671   .     S
Cu997  N1031   2.008   .     S
Cu998  N1032   2.008   .     S
C999   C1009   1.414   .     A
C999   N1033   1.437   .     S
C999   C1001   1.403   .     A
C1000  C1010   1.415   .     A
C1000  N1036   1.438   .     S
C1000  C1002   1.404   .     A
C1001  C1003   1.405   .     A
C1002  C1004   1.404   .     A
C1003  C1005   1.408   .     A
C1003  C1039   1.489   .     S
C1004  C1043   1.488   .     S
C1004  C1006   1.408   .     A
C1005  C1011   1.403   .     A
C1005  C1007   1.417   .     A
C1006  C1012   1.402   .     A
C1006  C1008   1.417   .     A
C1007  C1009   1.424   .     A
C1007  C270    1.417   1_556 S
C1008  C1010   1.424   .     A
C1009  C1014   1.420   .     A
C1010  C1013   1.420   .     A
C1011  H1015   1.083   .     S
C1011  C275    1.392   1_556 S
C1012  H1016   1.083   .     S
C1013  C1047   1.483   .     S
C1014  C1051   1.482   .     S
C1014  C274    1.391   1_556 S
C1017  C1022   1.415   .     A
C1017  N1055   1.435   .     S
C1017  C1183   1.389   1_455 S
C1018  C1021   1.415   .     A
C1018  N1058   1.434   .     S
C1018  C1102   1.391   .     S
C1019  N1061   1.436   .     S
C1019  C1021   1.415   .     A
C1019  C1099   1.389   .     S
C1020  N1064   1.436   .     S
C1020  C1022   1.413   .     A
C1020  C1182   1.391   1_455 S
C1023  H1027   1.081   .     S
C1023  N1032   1.366   .     A
C1024  N1031   1.366   .     A
C1024  H1028   1.081   .     S
C1024  C1271   1.415   .     S
C1025  N1032   1.366   .     A
C1025  H1029   1.082   .     S
C1026  H1030   1.082   .     S
C1026  N1031   1.366   .     A
C1026  C1269   1.415   .     S
N1033  O1035   1.301   .     A
N1033  O1034   1.301   .     A
N1036  O1038   1.302   .     A
N1036  O1037   1.301   .     A
C1039  O1040   1.222   .     D
C1039  O1041   1.398   .     S
O1041  H1042   1.014   .     S
C1043  O1044   1.221   .     D
C1043  O1045   1.398   .     S
O1045  H1046   1.014   .     S
C1047  O1049   1.398   .     S
C1047  O1048   1.224   .     D
O1049  H1050   1.014   .     S
C1051  O1052   1.223   .     D
C1051  O1053   1.398   .     S
O1053  H1054   1.014   .     S
N1055  O1057   1.301   .     A
N1055  O1056   1.301   .     A
N1058  O1060   1.301   .     A
N1058  O1059   1.301   .     A
N1061  O1062   1.301   .     A
N1061  O1063   1.301   .     A
N1064  O1066   1.301   .     A
N1064  O1065   1.301   .     A
O1067  C1071   1.294   .     A
O1067  Cu1079  1.982   .     S
O1068  C1072   1.292   .     A
O1068  Cu1080  1.982   .     S
O1069  C1072   1.292   .     A
O1069  Cu1079  1.984   .     S
O1070  C1071   1.290   .     A
O1070  Cu1080  1.984   .     S
C1071  C1104   1.464   .     S
C1072  C1103   1.466   .     S
O1073  C1077   1.287   .     A
O1073  Cu1079  1.967   .     S
O1074  C1078   1.286   .     A
O1074  Cu1080  1.967   .     S
O1075  Cu1079  1.967   .     S
O1075  C1078   1.289   .     A
O1076  Cu1080  1.967   .     S
O1076  C1077   1.287   .     A
C1077  C1084   1.453   .     S
C1078  C1083   1.453   .     S
Cu1079 Cu1080  2.671   .     S
Cu1079 N1113   2.008   .     S
Cu1080 N1114   2.008   .     S
C1081  C1091   1.414   .     A
C1081  N1115   1.437   .     S
C1081  C1083   1.403   .     A
C1082  C1092   1.415   .     A
C1082  N1118   1.438   .     S
C1082  C1084   1.404   .     A
C1083  C1085   1.405   .     A
C1084  C1086   1.404   .     A
C1085  C1087   1.408   .     A
C1085  C1121   1.489   .     S
C1086  C1125   1.488   .     S
C1086  C1088   1.408   .     A
C1087  C1093   1.403   .     A
C1087  C1089   1.417   .     A
C1088  C1094   1.402   .     A
C1088  C1090   1.417   .     A
C1089  C1091   1.424   .     A
C1089  C352    1.417   1_556 S
C1090  C1092   1.424   .     A
C1091  C1096   1.420   .     A
C1092  C1095   1.420   .     A
C1093  H1097   1.083   .     S
C1093  C357    1.392   1_556 S
C1094  H1098   1.083   .     S
C1095  C1129   1.483   .     S
C1096  C1133   1.482   .     S
C1096  C356    1.391   1_556 S
C1099  C1104   1.415   .     A
C1099  N1137   1.435   .     S
C1100  C1103   1.415   .     A
C1100  N1140   1.434   .     S
C1100  C1184   1.391   .     S
C1101  N1143   1.436   .     S
C1101  C1103   1.415   .     A
C1101  C1181   1.389   .     S
C1102  N1146   1.436   .     S
C1102  C1104   1.413   .     A
C1105  H1109   1.081   .     S
C1105  N1114   1.366   .     A
C1106  N1113   1.366   .     A
C1106  H1110   1.081   .     S
C1106  C1353   1.415   .     S
C1107  N1114   1.366   .     A
C1107  H1111   1.082   .     S
C1108  H1112   1.082   .     S
C1108  N1113   1.366   .     A
C1108  C1351   1.415   .     S
N1115  O1117   1.301   .     A
N1115  O1116   1.301   .     A
N1118  O1120   1.302   .     A
N1118  O1119   1.301   .     A
C1121  O1122   1.222   .     D
C1121  O1123   1.398   .     S
O1123  H1124   1.014   .     S
C1125  O1126   1.221   .     D
C1125  O1127   1.398   .     S
O1127  H1128   1.014   .     S
C1129  O1131   1.398   .     S
C1129  O1130   1.224   .     D
O1131  H1132   1.014   .     S
C1133  O1134   1.223   .     D
C1133  O1135   1.398   .     S
O1135  H1136   1.014   .     S
N1137  O1139   1.301   .     A
N1137  O1138   1.301   .     A
N1140  O1142   1.301   .     A
N1140  O1141   1.301   .     A
N1143  O1144   1.301   .     A
N1143  O1145   1.301   .     A
N1146  O1148   1.301   .     A
N1146  O1147   1.301   .     A
O1149  C1153   1.294   .     A
O1149  Cu1161  1.982   .     S
O1150  C1154   1.292   .     A
O1150  Cu1162  1.982   .     S
O1151  C1154   1.292   .     A
O1151  Cu1161  1.984   .     S
O1152  C1153   1.290   .     A
O1152  Cu1162  1.984   .     S
C1153  C1186   1.464   .     S
C1154  C1185   1.466   .     S
O1155  C1159   1.287   .     A
O1155  Cu1161  1.967   .     S
O1156  C1160   1.286   .     A
O1156  Cu1162  1.967   .     S
O1157  Cu1161  1.967   .     S
O1157  C1160   1.289   .     A
O1158  Cu1162  1.967   .     S
O1158  C1159   1.287   .     A
C1159  C1166   1.453   .     S
C1160  C1165   1.453   .     S
Cu1161 Cu1162  2.671   .     S
Cu1161 N1195   2.008   .     S
Cu1162 N1196   2.008   .     S
C1163  C1173   1.414   .     A
C1163  N1197   1.437   .     S
C1163  C1165   1.403   .     A
C1164  C1174   1.415   .     A
C1164  N1200   1.438   .     S
C1164  C1166   1.404   .     A
C1165  C1167   1.405   .     A
C1166  C1168   1.404   .     A
C1167  C1169   1.408   .     A
C1167  C1203   1.489   .     S
C1168  C1207   1.488   .     S
C1168  C1170   1.408   .     A
C1169  C1175   1.403   .     A
C1169  C1171   1.417   .     A
C1170  C1176   1.402   .     A
C1170  C1172   1.417   .     A
C1171  C1173   1.424   .     A
C1171  C434    1.417   1_556 S
C1172  C1174   1.424   .     A
C1173  C1178   1.420   .     A
C1174  C1177   1.420   .     A
C1175  H1179   1.083   .     S
C1175  C439    1.392   1_556 S
C1176  H1180   1.083   .     S
C1177  C1211   1.483   .     S
C1178  C1215   1.482   .     S
C1178  C438    1.391   1_556 S
C1181  C1186   1.415   .     A
C1181  N1219   1.435   .     S
C1182  C1185   1.415   .     A
C1182  N1222   1.434   .     S
C1182  C1020   1.391   1_655 S
C1183  N1225   1.436   .     S
C1183  C1185   1.415   .     A
C1183  C1017   1.389   1_655 S
C1184  N1228   1.436   .     S
C1184  C1186   1.413   .     A
C1187  H1191   1.081   .     S
C1187  N1196   1.366   .     A
C1188  N1195   1.366   .     A
C1188  H1192   1.081   .     S
C1188  C1435   1.415   .     S
C1189  N1196   1.366   .     A
C1189  H1193   1.082   .     S
C1190  H1194   1.082   .     S
C1190  N1195   1.366   .     A
C1190  C1433   1.415   .     S
N1197  O1199   1.301   .     A
N1197  O1198   1.301   .     A
N1200  O1202   1.302   .     A
N1200  O1201   1.301   .     A
C1203  O1204   1.222   .     D
C1203  O1205   1.398   .     S
O1205  H1206   1.014   .     S
C1207  O1208   1.221   .     D
C1207  O1209   1.398   .     S
O1209  H1210   1.014   .     S
C1211  O1213   1.398   .     S
C1211  O1212   1.224   .     D
O1213  H1214   1.014   .     S
C1215  O1216   1.223   .     D
C1215  O1217   1.398   .     S
O1217  H1218   1.014   .     S
N1219  O1221   1.301   .     A
N1219  O1220   1.301   .     A
N1222  O1224   1.301   .     A
N1222  O1223   1.301   .     A
N1225  O1226   1.301   .     A
N1225  O1227   1.301   .     A
N1228  O1230   1.301   .     A
N1228  O1229   1.301   .     A
O1231  C1235   1.294   .     A
O1231  Cu1243  1.982   .     S
O1232  C1236   1.292   .     A
O1232  Cu1244  1.982   .     S
O1233  C1236   1.292   .     A
O1233  Cu1243  1.984   .     S
O1234  C1235   1.290   .     A
O1234  Cu1244  1.984   .     S
C1235  C1268   1.464   .     S
C1236  C1267   1.466   .     S
O1237  C1241   1.287   .     A
O1237  Cu1243  1.967   .     S
O1238  C1242   1.286   .     A
O1238  Cu1244  1.967   .     S
O1239  Cu1243  1.967   .     S
O1239  C1242   1.289   .     A
O1240  Cu1244  1.967   .     S
O1240  C1241   1.287   .     A
C1241  C1248   1.453   .     S
C1242  C1247   1.453   .     S
Cu1243 Cu1244  2.671   .     S
Cu1243 N1277   2.008   .     S
Cu1244 N1278   2.008   .     S
C1245  C1255   1.414   .     A
C1245  N1279   1.437   .     S
C1245  C1247   1.403   .     A
C1246  C1256   1.415   .     A
C1246  N1282   1.438   .     S
C1246  C1248   1.404   .     A
C1247  C1249   1.405   .     A
C1248  C1250   1.404   .     A
C1249  C1251   1.408   .     A
C1249  C1285   1.489   .     S
C1250  C1289   1.488   .     S
C1250  C1252   1.408   .     A
C1251  C1257   1.403   .     A
C1251  C1253   1.417   .     A
C1252  C1258   1.402   .     A
C1252  C1254   1.417   .     A
C1253  C1255   1.424   .     A
C1253  C516    1.417   1_556 S
C1254  C1256   1.424   .     A
C1255  C1260   1.420   .     A
C1256  C1259   1.420   .     A
C1257  H1261   1.083   .     S
C1257  C521    1.392   1_556 S
C1258  H1262   1.083   .     S
C1259  C1293   1.483   .     S
C1260  C1297   1.482   .     S
C1260  C520    1.391   1_556 S
C1263  C1268   1.415   .     A
C1263  N1301   1.435   .     S
C1263  C1429   1.389   1_455 S
C1264  C1267   1.415   .     A
C1264  N1304   1.434   .     S
C1264  C1348   1.391   .     S
C1265  N1307   1.436   .     S
C1265  C1267   1.415   .     A
C1265  C1345   1.389   .     S
C1266  N1310   1.436   .     S
C1266  C1268   1.413   .     A
C1266  C1428   1.391   1_455 S
C1269  H1273   1.081   .     S
C1269  N1278   1.366   .     A
C1270  N1277   1.366   .     A
C1270  H1274   1.081   .     S
C1270  C779    1.415   1_565 S
C1271  N1278   1.366   .     A
C1271  H1275   1.082   .     S
C1272  H1276   1.082   .     S
C1272  N1277   1.366   .     A
C1272  C777    1.415   1_565 S
N1279  O1281   1.301   .     A
N1279  O1280   1.301   .     A
N1282  O1284   1.302   .     A
N1282  O1283   1.301   .     A
C1285  O1286   1.222   .     D
C1285  O1287   1.398   .     S
O1287  H1288   1.014   .     S
C1289  O1290   1.221   .     D
C1289  O1291   1.398   .     S
O1291  H1292   1.014   .     S
C1293  O1295   1.398   .     S
C1293  O1294   1.224   .     D
O1295  H1296   1.014   .     S
C1297  O1298   1.223   .     D
C1297  O1299   1.398   .     S
O1299  H1300   1.014   .     S
N1301  O1303   1.301   .     A
N1301  O1302   1.301   .     A
N1304  O1306   1.301   .     A
N1304  O1305   1.301   .     A
N1307  O1308   1.301   .     A
N1307  O1309   1.301   .     A
N1310  O1312   1.301   .     A
N1310  O1311   1.301   .     A
O1313  C1317   1.294   .     A
O1313  Cu1325  1.982   .     S
O1314  C1318   1.292   .     A
O1314  Cu1326  1.982   .     S
O1315  C1318   1.292   .     A
O1315  Cu1325  1.984   .     S
O1316  C1317   1.290   .     A
O1316  Cu1326  1.984   .     S
C1317  C1350   1.464   .     S
C1318  C1349   1.466   .     S
O1319  C1323   1.287   .     A
O1319  Cu1325  1.967   .     S
O1320  C1324   1.286   .     A
O1320  Cu1326  1.967   .     S
O1321  Cu1325  1.967   .     S
O1321  C1324   1.289   .     A
O1322  Cu1326  1.967   .     S
O1322  C1323   1.287   .     A
C1323  C1330   1.453   .     S
C1324  C1329   1.453   .     S
Cu1325 Cu1326  2.671   .     S
Cu1325 N1359   2.008   .     S
Cu1326 N1360   2.008   .     S
C1327  C1337   1.414   .     A
C1327  N1361   1.437   .     S
C1327  C1329   1.403   .     A
C1328  C1338   1.415   .     A
C1328  N1364   1.438   .     S
C1328  C1330   1.404   .     A
C1329  C1331   1.405   .     A
C1330  C1332   1.404   .     A
C1331  C1333   1.408   .     A
C1331  C1367   1.489   .     S
C1332  C1371   1.488   .     S
C1332  C1334   1.408   .     A
C1333  C1339   1.403   .     A
C1333  C1335   1.417   .     A
C1334  C1340   1.402   .     A
C1334  C1336   1.417   .     A
C1335  C1337   1.424   .     A
C1335  C598    1.417   1_556 S
C1336  C1338   1.424   .     A
C1337  C1342   1.420   .     A
C1338  C1341   1.420   .     A
C1339  H1343   1.083   .     S
C1339  C603    1.392   1_556 S
C1340  H1344   1.083   .     S
C1341  C1375   1.483   .     S
C1342  C1379   1.482   .     S
C1342  C602    1.391   1_556 S
C1345  C1350   1.415   .     A
C1345  N1383   1.435   .     S
C1346  C1349   1.415   .     A
C1346  N1386   1.434   .     S
C1346  C1430   1.391   .     S
C1347  N1389   1.436   .     S
C1347  C1349   1.415   .     A
C1347  C1427   1.389   .     S
C1348  N1392   1.436   .     S
C1348  C1350   1.413   .     A
C1351  H1355   1.081   .     S
C1351  N1360   1.366   .     A
C1352  N1359   1.366   .     A
C1352  H1356   1.081   .     S
C1352  C861    1.415   1_565 S
C1353  N1360   1.366   .     A
C1353  H1357   1.082   .     S
C1354  H1358   1.082   .     S
C1354  N1359   1.366   .     A
C1354  C859    1.415   1_565 S
N1361  O1363   1.301   .     A
N1361  O1362   1.301   .     A
N1364  O1366   1.302   .     A
N1364  O1365   1.301   .     A
C1367  O1368   1.222   .     D
C1367  O1369   1.398   .     S
O1369  H1370   1.014   .     S
C1371  O1372   1.221   .     D
C1371  O1373   1.398   .     S
O1373  H1374   1.014   .     S
C1375  O1377   1.398   .     S
C1375  O1376   1.224   .     D
O1377  H1378   1.014   .     S
C1379  O1380   1.223   .     D
C1379  O1381   1.398   .     S
O1381  H1382   1.014   .     S
N1383  O1385   1.301   .     A
N1383  O1384   1.301   .     A
N1386  O1388   1.301   .     A
N1386  O1387   1.301   .     A
N1389  O1390   1.301   .     A
N1389  O1391   1.301   .     A
N1392  O1394   1.301   .     A
N1392  O1393   1.301   .     A
O1395  C1399   1.294   .     A
O1395  Cu1407  1.982   .     S
O1396  C1400   1.292   .     A
O1396  Cu1408  1.982   .     S
O1397  C1400   1.292   .     A
O1397  Cu1407  1.984   .     S
O1398  C1399   1.290   .     A
O1398  Cu1408  1.984   .     S
C1399  C1432   1.464   .     S
C1400  C1431   1.466   .     S
O1401  C1405   1.287   .     A
O1401  Cu1407  1.967   .     S
O1402  C1406   1.286   .     A
O1402  Cu1408  1.967   .     S
O1403  Cu1407  1.967   .     S
O1403  C1406   1.289   .     A
O1404  Cu1408  1.967   .     S
O1404  C1405   1.287   .     A
C1405  C1412   1.453   .     S
C1406  C1411   1.453   .     S
Cu1407 Cu1408  2.671   .     S
Cu1407 N1441   2.008   .     S
Cu1408 N1442   2.008   .     S
C1409  C1419   1.414   .     A
C1409  N1443   1.437   .     S
C1409  C1411   1.403   .     A
C1410  C1420   1.415   .     A
C1410  N1446   1.438   .     S
C1410  C1412   1.404   .     A
C1411  C1413   1.405   .     A
C1412  C1414   1.404   .     A
C1413  C1415   1.408   .     A
C1413  C1449   1.489   .     S
C1414  C1453   1.488   .     S
C1414  C1416   1.408   .     A
C1415  C1421   1.403   .     A
C1415  C1417   1.417   .     A
C1416  C1422   1.402   .     A
C1416  C1418   1.417   .     A
C1417  C1419   1.424   .     A
C1417  C680    1.417   1_556 S
C1418  C1420   1.424   .     A
C1419  C1424   1.420   .     A
C1420  C1423   1.420   .     A
C1421  H1425   1.083   .     S
C1421  C685    1.392   1_556 S
C1422  H1426   1.083   .     S
C1423  C1457   1.483   .     S
C1424  C1461   1.482   .     S
C1424  C684    1.391   1_556 S
C1427  C1432   1.415   .     A
C1427  N1465   1.435   .     S
C1428  C1431   1.415   .     A
C1428  N1468   1.434   .     S
C1428  C1266   1.391   1_655 S
C1429  N1471   1.436   .     S
C1429  C1431   1.415   .     A
C1429  C1263   1.389   1_655 S
C1430  N1474   1.436   .     S
C1430  C1432   1.413   .     A
C1433  H1437   1.081   .     S
C1433  N1442   1.366   .     A
C1434  N1441   1.366   .     A
C1434  H1438   1.081   .     S
C1434  C943    1.415   1_565 S
C1435  N1442   1.366   .     A
C1435  H1439   1.082   .     S
C1436  H1440   1.082   .     S
C1436  N1441   1.366   .     A
C1436  C941    1.415   1_565 S
N1443  O1445   1.301   .     A
N1443  O1444   1.301   .     A
N1446  O1448   1.302   .     A
N1446  O1447   1.301   .     A
C1449  O1450   1.222   .     D
C1449  O1451   1.398   .     S
O1451  H1452   1.014   .     S
C1453  O1454   1.221   .     D
C1453  O1455   1.398   .     S
O1455  H1456   1.014   .     S
C1457  O1459   1.398   .     S
C1457  O1458   1.224   .     D
O1459  H1460   1.014   .     S
C1461  O1462   1.223   .     D
C1461  O1463   1.398   .     S
O1463  H1464   1.014   .     S
N1465  O1467   1.301   .     A
N1465  O1466   1.301   .     A
N1468  O1470   1.301   .     A
N1468  O1469   1.301   .     A
N1471  O1472   1.301   .     A
N1471  O1473   1.301   .     A
N1474  O1476   1.301   .     A
N1474  O1475   1.301   .     A
