data_str_m2_o1_o17_pcu_sym.92
_audit_creation_date              2020-01-03
_audit_creation_method            'Materials Studio'
_symmetry_space_group_name_H-M    'P1'
_symmetry_Int_Tables_number       1
_symmetry_cell_setting            triclinic
loop_
_symmetry_equiv_pos_as_xyz
  x,y,z
_cell_length_a                    32.7796
_cell_length_b                    28.5459
_cell_length_c                    30.2287
_cell_angle_alpha                 89.7762
_cell_angle_beta                  90.8068
_cell_angle_gamma                 89.2466
loop_
_atom_site_label
_atom_site_type_symbol
_atom_site_fract_x
_atom_site_fract_y
_atom_site_fract_z
_atom_site_U_iso_or_equiv
_atom_site_adp_type
_atom_site_occupancy
C1     C     0.08744   0.16689   0.24990   0.00000  Uiso   1.00
C2     C     0.04278   0.16689   0.24921   0.00000  Uiso   1.00
C3     C     0.14902   0.02521   0.21593   0.00000  Uiso   1.00
C4     C     0.18425   0.30814   0.28410   0.00000  Uiso   1.00
C5     C     0.18405   0.02438   0.28420   0.00000  Uiso   1.00
C6     C     0.14923   0.30897   0.21583   0.00000  Uiso   1.00
C7     C     0.16637   0.16674   0.16467   0.00000  Uiso   1.00
C8     C     0.16699   0.16669   0.33543   0.00000  Uiso   1.00
C9     C     0.20436   0.16466   0.40739   0.00000  Uiso   1.00
C10    C     0.12846   0.17168   0.09324   0.00000  Uiso   1.00
C11    C     0.16708   0.16754   0.38374   0.00000  Uiso   1.00
C12    C     0.24591   0.16625   0.24892   0.00000  Uiso   1.00
C13    C     0.16580   0.16716   0.11651   0.00000  Uiso   1.00
C14    C     0.12983   0.17496   0.40544   0.00000  Uiso   1.00
C15    C     0.20308   0.16369   0.09453   0.00000  Uiso   1.00
C16    C     0.12895   0.17795   0.45235   0.00000  Uiso   1.00
C17    C     0.20421   0.16870   0.04794   0.00000  Uiso   1.00
C18    C     0.16644   0.17317   0.47663   0.00000  Uiso   1.00
C19    C     0.16663   0.17275   0.02377   0.00000  Uiso   1.00
C20    C     0.20392   0.16868   0.45404   0.00000  Uiso   1.00
C21    C     0.12913   0.17557   0.04655   0.00000  Uiso   1.00
C22    C     0.09240   0.18568   0.47638   0.00000  Uiso   1.00
C23    C     0.09300   0.18338   0.02221   0.00000  Uiso   1.00
C24    C     0.24128   0.17016   0.02433   0.00000  Uiso   1.00
C25    C     0.24456   0.15681   0.38308   0.00000  Uiso   1.00
C26    C     0.26189   0.10711   0.39168   0.00000  Uiso   1.00
C27    C     0.30839   0.10575   0.38937   0.00000  Uiso   1.00
C28    C     0.08832   0.16770   0.11827   0.00000  Uiso   1.00
C29    C     0.06947   0.11925   0.11098   0.00000  Uiso   1.00
C30    C     0.03526   0.11013   0.14342   0.00000  Uiso   1.00
C31    C     0.09302   0.17806   0.37820   0.00000  Uiso   1.00
C32    C     0.23889   0.15021   0.12066   0.00000  Uiso   1.00
C33    C     0.05322   0.19809   0.45662   0.00000  Uiso   1.00
C34    C     0.24060   0.16920   0.47857   0.00000  Uiso   1.00
C35    C     0.28112   0.17561   0.04485   0.00000  Uiso   1.00
C36    C     0.04394   0.09202   0.29282   0.00000  Uiso   1.00
C37    C     0.28898   0.23913   0.20238   0.00000  Uiso   1.00
C38    C     0.29353   0.08396   0.27938   0.00000  Uiso   1.00
C39    C     0.04104   0.23996   0.20322   0.00000  Uiso   1.00
C40    C     0.02210   0.12886   0.26836   0.00000  Uiso   1.00
C41    C     0.31125   0.20254   0.22660   0.00000  Uiso   1.00
C42    C     0.31303   0.12673   0.26498   0.00000  Uiso   1.00
C43    C     0.02058   0.20305   0.22719   0.00000  Uiso   1.00
C44    C     0.29060   0.16514   0.24688   0.00000  Uiso   1.00
Cu45   Cu    0.16667   0.21355   0.25000   0.00000  Uiso   1.00
Cu46   Cu    0.16667   0.11978   0.25000   0.00000  Uiso   1.00
H47    H     0.06425   0.18870   0.03856   0.00000  Uiso   1.00
H48    H     0.25307   0.09350   0.42462   0.00000  Uiso   1.00
H49    H     0.24881   0.08295   0.36671   0.00000  Uiso   1.00
H50    H     0.24156   0.16152   0.34678   0.00000  Uiso   1.00
H51    H     0.26652   0.18437   0.39279   0.00000  Uiso   1.00
H52    H     0.04823   0.10421   0.17711   0.00000  Uiso   1.00
H53    H     0.01377   0.14044   0.14403   0.00000  Uiso   1.00
H54    H     0.01840   0.07831   0.13336   0.00000  Uiso   1.00
H55    H     0.05705   0.11659   0.07675   0.00000  Uiso   1.00
H56    H     0.09326   0.09144   0.11560   0.00000  Uiso   1.00
H57    H     0.09260   0.17274   0.15429   0.00000  Uiso   1.00
H58    H     0.26982   0.16912   0.46252   0.00000  Uiso   1.00
H59    H     0.06659   0.19623   0.10879   0.00000  Uiso   1.00
H60    H     0.13469   0.04411   0.18868   0.00000  Uiso   1.00
H61    H     0.19858   0.28925   0.31136   0.00000  Uiso   1.00
H62    H     0.19790   0.04264   0.31170   0.00000  Uiso   1.00
H63    H     0.13556   0.29073   0.18825   0.00000  Uiso   1.00
H64    H     0.31898   0.12475   0.35972   0.00000  Uiso   1.00
H65    H     0.32181   0.12233   0.41924   0.00000  Uiso   1.00
H66    H     0.31939   0.06884   0.38796   0.00000  Uiso   1.00
N67    N     0.16667   0.28402   0.25000   0.00000  Uiso   1.00
N68    N     0.05689   0.26949   0.18388   0.00000  Uiso   1.00
N69    N     0.16667   0.04931   0.25000   0.00000  Uiso   1.00
N70    N     0.06391   0.18067   0.35617   0.00000  Uiso   1.00
N71    N     0.26697   0.13898   0.14194   0.00000  Uiso   1.00
N72    N     0.02169   0.20834   0.44151   0.00000  Uiso   1.00
N73    N     0.31313   0.18019   0.06080   0.00000  Uiso   1.00
N74    N     0.06118   0.06273   0.31232   0.00000  Uiso   1.00
N75    N     0.27133   0.26823   0.18306   0.00000  Uiso   1.00
N76    N     0.27866   0.04942   0.29055   0.00000  Uiso   1.00
O77    O     0.10655   0.20625   0.25000   0.00000  Uiso   1.00
O78    O     0.22679   0.12709   0.25000   0.00000  Uiso   1.00
O79    O     0.22679   0.20625   0.25001   0.00000  Uiso   1.00
O80    O     0.10655   0.12709   0.25000   0.00000  Uiso   1.00
O81    O     0.16666   0.20627   0.18513   0.00000  Uiso   1.00
O82    O     0.16668   0.12707   0.31487   0.00000  Uiso   1.00
O83    O     0.16668   0.20627   0.31487   0.00000  Uiso   1.00
O84    O     0.16666   0.12707   0.18513   0.00000  Uiso   1.00
C85    C     0.42077   0.16689   0.24990   0.00000  Uiso   1.00
C86    C     0.37611   0.16689   0.24921   0.00000  Uiso   1.00
C87    C     0.48236   0.02521   0.21593   0.00000  Uiso   1.00
C88    C     0.51759   0.30814   0.28410   0.00000  Uiso   1.00
C89    C     0.51739   0.02438   0.28420   0.00000  Uiso   1.00
C90    C     0.48257   0.30897   0.21583   0.00000  Uiso   1.00
C91    C     0.49970   0.16674   0.16467   0.00000  Uiso   1.00
C92    C     0.50032   0.16669   0.33543   0.00000  Uiso   1.00
C93    C     0.53770   0.16466   0.40739   0.00000  Uiso   1.00
C94    C     0.46180   0.17168   0.09324   0.00000  Uiso   1.00
C95    C     0.50042   0.16754   0.38374   0.00000  Uiso   1.00
C96    C     0.57924   0.16625   0.24892   0.00000  Uiso   1.00
C97    C     0.49914   0.16716   0.11651   0.00000  Uiso   1.00
C98    C     0.46316   0.17496   0.40544   0.00000  Uiso   1.00
C99    C     0.53641   0.16369   0.09453   0.00000  Uiso   1.00
C100   C     0.46228   0.17795   0.45235   0.00000  Uiso   1.00
C101   C     0.53754   0.16870   0.04794   0.00000  Uiso   1.00
C102   C     0.49977   0.17317   0.47663   0.00000  Uiso   1.00
C103   C     0.49996   0.17275   0.02377   0.00000  Uiso   1.00
C104   C     0.53726   0.16868   0.45404   0.00000  Uiso   1.00
C105   C     0.46246   0.17557   0.04655   0.00000  Uiso   1.00
C106   C     0.42574   0.18568   0.47638   0.00000  Uiso   1.00
C107   C     0.42633   0.18338   0.02221   0.00000  Uiso   1.00
C108   C     0.57462   0.17016   0.02433   0.00000  Uiso   1.00
C109   C     0.57790   0.15681   0.38308   0.00000  Uiso   1.00
C110   C     0.59522   0.10711   0.39168   0.00000  Uiso   1.00
C111   C     0.64172   0.10575   0.38937   0.00000  Uiso   1.00
C112   C     0.42165   0.16770   0.11827   0.00000  Uiso   1.00
C113   C     0.40281   0.11925   0.11098   0.00000  Uiso   1.00
C114   C     0.36860   0.11013   0.14342   0.00000  Uiso   1.00
C115   C     0.42635   0.17806   0.37820   0.00000  Uiso   1.00
C116   C     0.57222   0.15021   0.12066   0.00000  Uiso   1.00
C117   C     0.38655   0.19809   0.45662   0.00000  Uiso   1.00
C118   C     0.57393   0.16920   0.47857   0.00000  Uiso   1.00
C119   C     0.61446   0.17561   0.04485   0.00000  Uiso   1.00
C120   C     0.37727   0.09202   0.29282   0.00000  Uiso   1.00
C121   C     0.62232   0.23913   0.20238   0.00000  Uiso   1.00
C122   C     0.62687   0.08396   0.27938   0.00000  Uiso   1.00
C123   C     0.37437   0.23996   0.20322   0.00000  Uiso   1.00
C124   C     0.35543   0.12886   0.26836   0.00000  Uiso   1.00
C125   C     0.64458   0.20254   0.22660   0.00000  Uiso   1.00
C126   C     0.64636   0.12673   0.26498   0.00000  Uiso   1.00
C127   C     0.35392   0.20305   0.22719   0.00000  Uiso   1.00
C128   C     0.62393   0.16514   0.24688   0.00000  Uiso   1.00
Cu129  Cu    0.50000   0.21355   0.25000   0.00000  Uiso   1.00
Cu130  Cu    0.50000   0.11978   0.25000   0.00000  Uiso   1.00
H131   H     0.39758   0.18870   0.03856   0.00000  Uiso   1.00
H132   H     0.58640   0.09350   0.42462   0.00000  Uiso   1.00
H133   H     0.58214   0.08295   0.36671   0.00000  Uiso   1.00
H134   H     0.57489   0.16152   0.34678   0.00000  Uiso   1.00
H135   H     0.59985   0.18437   0.39279   0.00000  Uiso   1.00
H136   H     0.38156   0.10421   0.17711   0.00000  Uiso   1.00
H137   H     0.34710   0.14044   0.14403   0.00000  Uiso   1.00
H138   H     0.35173   0.07831   0.13336   0.00000  Uiso   1.00
H139   H     0.39039   0.11659   0.07675   0.00000  Uiso   1.00
H140   H     0.42659   0.09144   0.11560   0.00000  Uiso   1.00
H141   H     0.42594   0.17274   0.15429   0.00000  Uiso   1.00
H142   H     0.60315   0.16912   0.46252   0.00000  Uiso   1.00
H143   H     0.39992   0.19623   0.10879   0.00000  Uiso   1.00
H144   H     0.46802   0.04411   0.18868   0.00000  Uiso   1.00
H145   H     0.53191   0.28925   0.31136   0.00000  Uiso   1.00
H146   H     0.53123   0.04264   0.31170   0.00000  Uiso   1.00
H147   H     0.46889   0.29073   0.18825   0.00000  Uiso   1.00
H148   H     0.65231   0.12475   0.35972   0.00000  Uiso   1.00
H149   H     0.65514   0.12233   0.41924   0.00000  Uiso   1.00
H150   H     0.65272   0.06884   0.38796   0.00000  Uiso   1.00
N151   N     0.50000   0.28402   0.25000   0.00000  Uiso   1.00
N152   N     0.39023   0.26949   0.18388   0.00000  Uiso   1.00
N153   N     0.50000   0.04931   0.25000   0.00000  Uiso   1.00
N154   N     0.39724   0.18067   0.35617   0.00000  Uiso   1.00
N155   N     0.60030   0.13898   0.14194   0.00000  Uiso   1.00
N156   N     0.35502   0.20834   0.44151   0.00000  Uiso   1.00
N157   N     0.64646   0.18019   0.06080   0.00000  Uiso   1.00
N158   N     0.39452   0.06273   0.31232   0.00000  Uiso   1.00
N159   N     0.60466   0.26823   0.18306   0.00000  Uiso   1.00
N160   N     0.61199   0.04942   0.29055   0.00000  Uiso   1.00
O161   O     0.43988   0.20625   0.25000   0.00000  Uiso   1.00
O162   O     0.56012   0.12709   0.25000   0.00000  Uiso   1.00
O163   O     0.56012   0.20625   0.25001   0.00000  Uiso   1.00
O164   O     0.43988   0.12709   0.25000   0.00000  Uiso   1.00
O165   O     0.49999   0.20627   0.18513   0.00000  Uiso   1.00
O166   O     0.50001   0.12707   0.31487   0.00000  Uiso   1.00
O167   O     0.50001   0.20627   0.31487   0.00000  Uiso   1.00
O168   O     0.49999   0.12707   0.18513   0.00000  Uiso   1.00
C169   C     0.75411   0.16689   0.24990   0.00000  Uiso   1.00
C170   C     0.70944   0.16689   0.24921   0.00000  Uiso   1.00
C171   C     0.81569   0.02521   0.21593   0.00000  Uiso   1.00
C172   C     0.85092   0.30814   0.28410   0.00000  Uiso   1.00
C173   C     0.85072   0.02438   0.28420   0.00000  Uiso   1.00
C174   C     0.81590   0.30897   0.21583   0.00000  Uiso   1.00
C175   C     0.83303   0.16674   0.16467   0.00000  Uiso   1.00
C176   C     0.83366   0.16669   0.33543   0.00000  Uiso   1.00
C177   C     0.87103   0.16466   0.40739   0.00000  Uiso   1.00
C178   C     0.79513   0.17168   0.09324   0.00000  Uiso   1.00
C179   C     0.83375   0.16754   0.38374   0.00000  Uiso   1.00
C180   C     0.91258   0.16625   0.24892   0.00000  Uiso   1.00
C181   C     0.83247   0.16716   0.11651   0.00000  Uiso   1.00
C182   C     0.79650   0.17496   0.40544   0.00000  Uiso   1.00
C183   C     0.86974   0.16369   0.09453   0.00000  Uiso   1.00
C184   C     0.79562   0.17795   0.45235   0.00000  Uiso   1.00
C185   C     0.87087   0.16870   0.04794   0.00000  Uiso   1.00
C186   C     0.83311   0.17317   0.47663   0.00000  Uiso   1.00
C187   C     0.83330   0.17275   0.02377   0.00000  Uiso   1.00
C188   C     0.87059   0.16868   0.45404   0.00000  Uiso   1.00
C189   C     0.79580   0.17557   0.04655   0.00000  Uiso   1.00
C190   C     0.75907   0.18568   0.47638   0.00000  Uiso   1.00
C191   C     0.75966   0.18338   0.02221   0.00000  Uiso   1.00
C192   C     0.90795   0.17016   0.02433   0.00000  Uiso   1.00
C193   C     0.91123   0.15681   0.38308   0.00000  Uiso   1.00
C194   C     0.92855   0.10711   0.39168   0.00000  Uiso   1.00
C195   C     0.97505   0.10575   0.38937   0.00000  Uiso   1.00
C196   C     0.75499   0.16770   0.11827   0.00000  Uiso   1.00
C197   C     0.73614   0.11925   0.11098   0.00000  Uiso   1.00
C198   C     0.70193   0.11013   0.14342   0.00000  Uiso   1.00
C199   C     0.75968   0.17806   0.37820   0.00000  Uiso   1.00
C200   C     0.90556   0.15021   0.12066   0.00000  Uiso   1.00
C201   C     0.71989   0.19809   0.45662   0.00000  Uiso   1.00
C202   C     0.90726   0.16920   0.47857   0.00000  Uiso   1.00
C203   C     0.94779   0.17561   0.04485   0.00000  Uiso   1.00
C204   C     0.71060   0.09202   0.29282   0.00000  Uiso   1.00
C205   C     0.95565   0.23913   0.20238   0.00000  Uiso   1.00
C206   C     0.96020   0.08396   0.27938   0.00000  Uiso   1.00
C207   C     0.70771   0.23996   0.20322   0.00000  Uiso   1.00
C208   C     0.68877   0.12886   0.26836   0.00000  Uiso   1.00
C209   C     0.97791   0.20254   0.22660   0.00000  Uiso   1.00
C210   C     0.97970   0.12673   0.26498   0.00000  Uiso   1.00
C211   C     0.68725   0.20305   0.22719   0.00000  Uiso   1.00
C212   C     0.95727   0.16514   0.24688   0.00000  Uiso   1.00
Cu213  Cu    0.83333   0.21355   0.25000   0.00000  Uiso   1.00
Cu214  Cu    0.83333   0.11978   0.25000   0.00000  Uiso   1.00
H215   H     0.73092   0.18870   0.03856   0.00000  Uiso   1.00
H216   H     0.91973   0.09350   0.42462   0.00000  Uiso   1.00
H217   H     0.91548   0.08295   0.36671   0.00000  Uiso   1.00
H218   H     0.90823   0.16152   0.34678   0.00000  Uiso   1.00
H219   H     0.93319   0.18437   0.39279   0.00000  Uiso   1.00
H220   H     0.71490   0.10421   0.17711   0.00000  Uiso   1.00
H221   H     0.68043   0.14044   0.14403   0.00000  Uiso   1.00
H222   H     0.68506   0.07831   0.13336   0.00000  Uiso   1.00
H223   H     0.72372   0.11659   0.07675   0.00000  Uiso   1.00
H224   H     0.75992   0.09144   0.11560   0.00000  Uiso   1.00
H225   H     0.75927   0.17274   0.15429   0.00000  Uiso   1.00
H226   H     0.93648   0.16912   0.46252   0.00000  Uiso   1.00
H227   H     0.73326   0.19623   0.10879   0.00000  Uiso   1.00
H228   H     0.80136   0.04411   0.18868   0.00000  Uiso   1.00
H229   H     0.86525   0.28925   0.31136   0.00000  Uiso   1.00
H230   H     0.86456   0.04264   0.31170   0.00000  Uiso   1.00
H231   H     0.80222   0.29073   0.18825   0.00000  Uiso   1.00
H232   H     0.98565   0.12475   0.35972   0.00000  Uiso   1.00
H233   H     0.98848   0.12233   0.41924   0.00000  Uiso   1.00
H234   H     0.98605   0.06884   0.38796   0.00000  Uiso   1.00
N235   N     0.83333   0.28402   0.25000   0.00000  Uiso   1.00
N236   N     0.72356   0.26949   0.18388   0.00000  Uiso   1.00
N237   N     0.83333   0.04931   0.25000   0.00000  Uiso   1.00
N238   N     0.73058   0.18067   0.35617   0.00000  Uiso   1.00
N239   N     0.93363   0.13898   0.14194   0.00000  Uiso   1.00
N240   N     0.68835   0.20834   0.44151   0.00000  Uiso   1.00
N241   N     0.97979   0.18019   0.06080   0.00000  Uiso   1.00
N242   N     0.72785   0.06273   0.31232   0.00000  Uiso   1.00
N243   N     0.93800   0.26823   0.18306   0.00000  Uiso   1.00
N244   N     0.94533   0.04942   0.29055   0.00000  Uiso   1.00
O245   O     0.77321   0.20625   0.25000   0.00000  Uiso   1.00
O246   O     0.89345   0.12709   0.25000   0.00000  Uiso   1.00
O247   O     0.89345   0.20625   0.25001   0.00000  Uiso   1.00
O248   O     0.77321   0.12709   0.25000   0.00000  Uiso   1.00
O249   O     0.83332   0.20627   0.18513   0.00000  Uiso   1.00
O250   O     0.83334   0.12707   0.31487   0.00000  Uiso   1.00
O251   O     0.83334   0.20627   0.31487   0.00000  Uiso   1.00
O252   O     0.83332   0.12707   0.18513   0.00000  Uiso   1.00
C253   C     0.08744   0.50022   0.24990   0.00000  Uiso   1.00
C254   C     0.04278   0.50022   0.24921   0.00000  Uiso   1.00
C255   C     0.14902   0.35854   0.21593   0.00000  Uiso   1.00
C256   C     0.18425   0.64147   0.28410   0.00000  Uiso   1.00
C257   C     0.18405   0.35771   0.28420   0.00000  Uiso   1.00
C258   C     0.14923   0.64230   0.21583   0.00000  Uiso   1.00
C259   C     0.16637   0.50007   0.16467   0.00000  Uiso   1.00
C260   C     0.16699   0.50003   0.33543   0.00000  Uiso   1.00
C261   C     0.20436   0.49799   0.40739   0.00000  Uiso   1.00
C262   C     0.12846   0.50501   0.09324   0.00000  Uiso   1.00
C263   C     0.16708   0.50087   0.38374   0.00000  Uiso   1.00
C264   C     0.24591   0.49958   0.24892   0.00000  Uiso   1.00
C265   C     0.16580   0.50050   0.11651   0.00000  Uiso   1.00
C266   C     0.12983   0.50829   0.40544   0.00000  Uiso   1.00
C267   C     0.20308   0.49703   0.09453   0.00000  Uiso   1.00
C268   C     0.12895   0.51128   0.45235   0.00000  Uiso   1.00
C269   C     0.20421   0.50203   0.04794   0.00000  Uiso   1.00
C270   C     0.16644   0.50651   0.47663   0.00000  Uiso   1.00
C271   C     0.16663   0.50609   0.02377   0.00000  Uiso   1.00
C272   C     0.20392   0.50202   0.45404   0.00000  Uiso   1.00
C273   C     0.12913   0.50891   0.04655   0.00000  Uiso   1.00
C274   C     0.09240   0.51902   0.47638   0.00000  Uiso   1.00
C275   C     0.09300   0.51671   0.02221   0.00000  Uiso   1.00
C276   C     0.24128   0.50349   0.02433   0.00000  Uiso   1.00
C277   C     0.24456   0.49014   0.38308   0.00000  Uiso   1.00
C278   C     0.26189   0.44044   0.39168   0.00000  Uiso   1.00
C279   C     0.30839   0.43908   0.38937   0.00000  Uiso   1.00
C280   C     0.08832   0.50103   0.11827   0.00000  Uiso   1.00
C281   C     0.06947   0.45259   0.11098   0.00000  Uiso   1.00
C282   C     0.03526   0.44346   0.14342   0.00000  Uiso   1.00
C283   C     0.09302   0.51139   0.37820   0.00000  Uiso   1.00
C284   C     0.23889   0.48354   0.12066   0.00000  Uiso   1.00
C285   C     0.05322   0.53142   0.45662   0.00000  Uiso   1.00
C286   C     0.24060   0.50253   0.47857   0.00000  Uiso   1.00
C287   C     0.28112   0.50894   0.04485   0.00000  Uiso   1.00
C288   C     0.04394   0.42535   0.29282   0.00000  Uiso   1.00
C289   C     0.28898   0.57247   0.20238   0.00000  Uiso   1.00
C290   C     0.29353   0.41729   0.27938   0.00000  Uiso   1.00
C291   C     0.04104   0.57330   0.20322   0.00000  Uiso   1.00
C292   C     0.02210   0.46219   0.26836   0.00000  Uiso   1.00
C293   C     0.31125   0.53587   0.22660   0.00000  Uiso   1.00
C294   C     0.31303   0.46006   0.26498   0.00000  Uiso   1.00
C295   C     0.02058   0.53639   0.22719   0.00000  Uiso   1.00
C296   C     0.29060   0.49847   0.24688   0.00000  Uiso   1.00
Cu297  Cu    0.16667   0.54689   0.25000   0.00000  Uiso   1.00
Cu298  Cu    0.16667   0.45311   0.25000   0.00000  Uiso   1.00
H299   H     0.06425   0.52204   0.03856   0.00000  Uiso   1.00
H300   H     0.25307   0.42683   0.42462   0.00000  Uiso   1.00
H301   H     0.24881   0.41628   0.36671   0.00000  Uiso   1.00
H302   H     0.24156   0.49485   0.34678   0.00000  Uiso   1.00
H303   H     0.26652   0.51771   0.39279   0.00000  Uiso   1.00
H304   H     0.04823   0.43755   0.17711   0.00000  Uiso   1.00
H305   H     0.01377   0.47378   0.14403   0.00000  Uiso   1.00
H306   H     0.01840   0.41165   0.13336   0.00000  Uiso   1.00
H307   H     0.05705   0.44992   0.07675   0.00000  Uiso   1.00
H308   H     0.09326   0.42477   0.11560   0.00000  Uiso   1.00
H309   H     0.09260   0.50608   0.15429   0.00000  Uiso   1.00
H310   H     0.26982   0.50245   0.46252   0.00000  Uiso   1.00
H311   H     0.06659   0.52956   0.10879   0.00000  Uiso   1.00
H312   H     0.13469   0.37745   0.18868   0.00000  Uiso   1.00
H313   H     0.19858   0.62258   0.31136   0.00000  Uiso   1.00
H314   H     0.19790   0.37597   0.31170   0.00000  Uiso   1.00
H315   H     0.13556   0.62406   0.18825   0.00000  Uiso   1.00
H316   H     0.31898   0.45808   0.35972   0.00000  Uiso   1.00
H317   H     0.32181   0.45567   0.41924   0.00000  Uiso   1.00
H318   H     0.31939   0.40217   0.38796   0.00000  Uiso   1.00
N319   N     0.16667   0.61736   0.25000   0.00000  Uiso   1.00
N320   N     0.05689   0.60282   0.18388   0.00000  Uiso   1.00
N321   N     0.16667   0.38264   0.25000   0.00000  Uiso   1.00
N322   N     0.06391   0.51400   0.35617   0.00000  Uiso   1.00
N323   N     0.26697   0.47231   0.14194   0.00000  Uiso   1.00
N324   N     0.02169   0.54167   0.44151   0.00000  Uiso   1.00
N325   N     0.31313   0.51352   0.06080   0.00000  Uiso   1.00
N326   N     0.06118   0.39607   0.31232   0.00000  Uiso   1.00
N327   N     0.27133   0.60156   0.18306   0.00000  Uiso   1.00
N328   N     0.27866   0.38275   0.29055   0.00000  Uiso   1.00
O329   O     0.10655   0.53958   0.25000   0.00000  Uiso   1.00
O330   O     0.22679   0.46042   0.25000   0.00000  Uiso   1.00
O331   O     0.22679   0.53958   0.25001   0.00000  Uiso   1.00
O332   O     0.10655   0.46042   0.25000   0.00000  Uiso   1.00
O333   O     0.16666   0.53960   0.18513   0.00000  Uiso   1.00
O334   O     0.16668   0.46040   0.31487   0.00000  Uiso   1.00
O335   O     0.16668   0.53960   0.31487   0.00000  Uiso   1.00
O336   O     0.16666   0.46040   0.18513   0.00000  Uiso   1.00
C337   C     0.42077   0.50022   0.24990   0.00000  Uiso   1.00
C338   C     0.37611   0.50022   0.24921   0.00000  Uiso   1.00
C339   C     0.48236   0.35854   0.21593   0.00000  Uiso   1.00
C340   C     0.51759   0.64147   0.28410   0.00000  Uiso   1.00
C341   C     0.51739   0.35771   0.28420   0.00000  Uiso   1.00
C342   C     0.48257   0.64230   0.21583   0.00000  Uiso   1.00
C343   C     0.49970   0.50007   0.16467   0.00000  Uiso   1.00
C344   C     0.50032   0.50003   0.33543   0.00000  Uiso   1.00
C345   C     0.53770   0.49799   0.40739   0.00000  Uiso   1.00
C346   C     0.46180   0.50501   0.09324   0.00000  Uiso   1.00
C347   C     0.50042   0.50087   0.38374   0.00000  Uiso   1.00
C348   C     0.57924   0.49958   0.24892   0.00000  Uiso   1.00
C349   C     0.49914   0.50050   0.11651   0.00000  Uiso   1.00
C350   C     0.46316   0.50829   0.40544   0.00000  Uiso   1.00
C351   C     0.53641   0.49703   0.09453   0.00000  Uiso   1.00
C352   C     0.46228   0.51128   0.45235   0.00000  Uiso   1.00
C353   C     0.53754   0.50203   0.04794   0.00000  Uiso   1.00
C354   C     0.49977   0.50651   0.47663   0.00000  Uiso   1.00
C355   C     0.49996   0.50609   0.02377   0.00000  Uiso   1.00
C356   C     0.53726   0.50202   0.45404   0.00000  Uiso   1.00
C357   C     0.46246   0.50891   0.04655   0.00000  Uiso   1.00
C358   C     0.42574   0.51902   0.47638   0.00000  Uiso   1.00
C359   C     0.42633   0.51671   0.02221   0.00000  Uiso   1.00
C360   C     0.57462   0.50349   0.02433   0.00000  Uiso   1.00
C361   C     0.57790   0.49014   0.38308   0.00000  Uiso   1.00
C362   C     0.59522   0.44044   0.39168   0.00000  Uiso   1.00
C363   C     0.64172   0.43908   0.38937   0.00000  Uiso   1.00
C364   C     0.42165   0.50103   0.11827   0.00000  Uiso   1.00
C365   C     0.40281   0.45259   0.11098   0.00000  Uiso   1.00
C366   C     0.36860   0.44346   0.14342   0.00000  Uiso   1.00
C367   C     0.42635   0.51139   0.37820   0.00000  Uiso   1.00
C368   C     0.57222   0.48354   0.12066   0.00000  Uiso   1.00
C369   C     0.38655   0.53142   0.45662   0.00000  Uiso   1.00
C370   C     0.57393   0.50253   0.47857   0.00000  Uiso   1.00
C371   C     0.61446   0.50894   0.04485   0.00000  Uiso   1.00
C372   C     0.37727   0.42535   0.29282   0.00000  Uiso   1.00
C373   C     0.62232   0.57247   0.20238   0.00000  Uiso   1.00
C374   C     0.62687   0.41729   0.27938   0.00000  Uiso   1.00
C375   C     0.37437   0.57330   0.20322   0.00000  Uiso   1.00
C376   C     0.35543   0.46219   0.26836   0.00000  Uiso   1.00
C377   C     0.64458   0.53587   0.22660   0.00000  Uiso   1.00
C378   C     0.64636   0.46006   0.26498   0.00000  Uiso   1.00
C379   C     0.35392   0.53639   0.22719   0.00000  Uiso   1.00
C380   C     0.62393   0.49847   0.24688   0.00000  Uiso   1.00
Cu381  Cu    0.50000   0.54689   0.25000   0.00000  Uiso   1.00
Cu382  Cu    0.50000   0.45311   0.25000   0.00000  Uiso   1.00
H383   H     0.39758   0.52204   0.03856   0.00000  Uiso   1.00
H384   H     0.58640   0.42683   0.42462   0.00000  Uiso   1.00
H385   H     0.58214   0.41628   0.36671   0.00000  Uiso   1.00
H386   H     0.57489   0.49485   0.34678   0.00000  Uiso   1.00
H387   H     0.59985   0.51771   0.39279   0.00000  Uiso   1.00
H388   H     0.38156   0.43755   0.17711   0.00000  Uiso   1.00
H389   H     0.34710   0.47378   0.14403   0.00000  Uiso   1.00
H390   H     0.35173   0.41165   0.13336   0.00000  Uiso   1.00
H391   H     0.39039   0.44992   0.07675   0.00000  Uiso   1.00
H392   H     0.42659   0.42477   0.11560   0.00000  Uiso   1.00
H393   H     0.42594   0.50608   0.15429   0.00000  Uiso   1.00
H394   H     0.60315   0.50245   0.46252   0.00000  Uiso   1.00
H395   H     0.39992   0.52956   0.10879   0.00000  Uiso   1.00
H396   H     0.46802   0.37745   0.18868   0.00000  Uiso   1.00
H397   H     0.53191   0.62258   0.31136   0.00000  Uiso   1.00
H398   H     0.53123   0.37597   0.31170   0.00000  Uiso   1.00
H399   H     0.46889   0.62406   0.18825   0.00000  Uiso   1.00
H400   H     0.65231   0.45808   0.35972   0.00000  Uiso   1.00
H401   H     0.65514   0.45567   0.41924   0.00000  Uiso   1.00
H402   H     0.65272   0.40217   0.38796   0.00000  Uiso   1.00
N403   N     0.50000   0.61736   0.25000   0.00000  Uiso   1.00
N404   N     0.39023   0.60282   0.18388   0.00000  Uiso   1.00
N405   N     0.50000   0.38264   0.25000   0.00000  Uiso   1.00
N406   N     0.39724   0.51400   0.35617   0.00000  Uiso   1.00
N407   N     0.60030   0.47231   0.14194   0.00000  Uiso   1.00
N408   N     0.35502   0.54167   0.44151   0.00000  Uiso   1.00
N409   N     0.64646   0.51352   0.06080   0.00000  Uiso   1.00
N410   N     0.39452   0.39607   0.31232   0.00000  Uiso   1.00
N411   N     0.60466   0.60156   0.18306   0.00000  Uiso   1.00
N412   N     0.61199   0.38275   0.29055   0.00000  Uiso   1.00
O413   O     0.43988   0.53958   0.25000   0.00000  Uiso   1.00
O414   O     0.56012   0.46042   0.25000   0.00000  Uiso   1.00
O415   O     0.56012   0.53958   0.25001   0.00000  Uiso   1.00
O416   O     0.43988   0.46042   0.25000   0.00000  Uiso   1.00
O417   O     0.49999   0.53960   0.18513   0.00000  Uiso   1.00
O418   O     0.50001   0.46040   0.31487   0.00000  Uiso   1.00
O419   O     0.50001   0.53960   0.31487   0.00000  Uiso   1.00
O420   O     0.49999   0.46040   0.18513   0.00000  Uiso   1.00
C421   C     0.75411   0.50022   0.24990   0.00000  Uiso   1.00
C422   C     0.70944   0.50022   0.24921   0.00000  Uiso   1.00
C423   C     0.81569   0.35854   0.21593   0.00000  Uiso   1.00
C424   C     0.85092   0.64147   0.28410   0.00000  Uiso   1.00
C425   C     0.85072   0.35771   0.28420   0.00000  Uiso   1.00
C426   C     0.81590   0.64230   0.21583   0.00000  Uiso   1.00
C427   C     0.83303   0.50007   0.16467   0.00000  Uiso   1.00
C428   C     0.83366   0.50003   0.33543   0.00000  Uiso   1.00
C429   C     0.87103   0.49799   0.40739   0.00000  Uiso   1.00
C430   C     0.79513   0.50501   0.09324   0.00000  Uiso   1.00
C431   C     0.83375   0.50087   0.38374   0.00000  Uiso   1.00
C432   C     0.91258   0.49958   0.24892   0.00000  Uiso   1.00
C433   C     0.83247   0.50050   0.11651   0.00000  Uiso   1.00
C434   C     0.79650   0.50829   0.40544   0.00000  Uiso   1.00
C435   C     0.86974   0.49703   0.09453   0.00000  Uiso   1.00
C436   C     0.79562   0.51128   0.45235   0.00000  Uiso   1.00
C437   C     0.87087   0.50203   0.04794   0.00000  Uiso   1.00
C438   C     0.83311   0.50651   0.47663   0.00000  Uiso   1.00
C439   C     0.83330   0.50609   0.02377   0.00000  Uiso   1.00
C440   C     0.87059   0.50202   0.45404   0.00000  Uiso   1.00
C441   C     0.79580   0.50891   0.04655   0.00000  Uiso   1.00
C442   C     0.75907   0.51902   0.47638   0.00000  Uiso   1.00
C443   C     0.75966   0.51671   0.02221   0.00000  Uiso   1.00
C444   C     0.90795   0.50349   0.02433   0.00000  Uiso   1.00
C445   C     0.91123   0.49014   0.38308   0.00000  Uiso   1.00
C446   C     0.92855   0.44044   0.39168   0.00000  Uiso   1.00
C447   C     0.97505   0.43908   0.38937   0.00000  Uiso   1.00
C448   C     0.75499   0.50103   0.11827   0.00000  Uiso   1.00
C449   C     0.73614   0.45259   0.11098   0.00000  Uiso   1.00
C450   C     0.70193   0.44346   0.14342   0.00000  Uiso   1.00
C451   C     0.75968   0.51139   0.37820   0.00000  Uiso   1.00
C452   C     0.90556   0.48354   0.12066   0.00000  Uiso   1.00
C453   C     0.71989   0.53142   0.45662   0.00000  Uiso   1.00
C454   C     0.90726   0.50253   0.47857   0.00000  Uiso   1.00
C455   C     0.94779   0.50894   0.04485   0.00000  Uiso   1.00
C456   C     0.71060   0.42535   0.29282   0.00000  Uiso   1.00
C457   C     0.95565   0.57247   0.20238   0.00000  Uiso   1.00
C458   C     0.96020   0.41729   0.27938   0.00000  Uiso   1.00
C459   C     0.70771   0.57330   0.20322   0.00000  Uiso   1.00
C460   C     0.68877   0.46219   0.26836   0.00000  Uiso   1.00
C461   C     0.97791   0.53587   0.22660   0.00000  Uiso   1.00
C462   C     0.97970   0.46006   0.26498   0.00000  Uiso   1.00
C463   C     0.68725   0.53639   0.22719   0.00000  Uiso   1.00
C464   C     0.95727   0.49847   0.24688   0.00000  Uiso   1.00
Cu465  Cu    0.83333   0.54689   0.25000   0.00000  Uiso   1.00
Cu466  Cu    0.83333   0.45311   0.25000   0.00000  Uiso   1.00
H467   H     0.73092   0.52204   0.03856   0.00000  Uiso   1.00
H468   H     0.91973   0.42683   0.42462   0.00000  Uiso   1.00
H469   H     0.91548   0.41628   0.36671   0.00000  Uiso   1.00
H470   H     0.90823   0.49485   0.34678   0.00000  Uiso   1.00
H471   H     0.93319   0.51771   0.39279   0.00000  Uiso   1.00
H472   H     0.71490   0.43755   0.17711   0.00000  Uiso   1.00
H473   H     0.68043   0.47378   0.14403   0.00000  Uiso   1.00
H474   H     0.68506   0.41165   0.13336   0.00000  Uiso   1.00
H475   H     0.72372   0.44992   0.07675   0.00000  Uiso   1.00
H476   H     0.75992   0.42477   0.11560   0.00000  Uiso   1.00
H477   H     0.75927   0.50608   0.15429   0.00000  Uiso   1.00
H478   H     0.93648   0.50245   0.46252   0.00000  Uiso   1.00
H479   H     0.73326   0.52956   0.10879   0.00000  Uiso   1.00
H480   H     0.80136   0.37745   0.18868   0.00000  Uiso   1.00
H481   H     0.86525   0.62258   0.31136   0.00000  Uiso   1.00
H482   H     0.86456   0.37597   0.31170   0.00000  Uiso   1.00
H483   H     0.80222   0.62406   0.18825   0.00000  Uiso   1.00
H484   H     0.98565   0.45808   0.35972   0.00000  Uiso   1.00
H485   H     0.98848   0.45567   0.41924   0.00000  Uiso   1.00
H486   H     0.98605   0.40217   0.38796   0.00000  Uiso   1.00
N487   N     0.83333   0.61736   0.25000   0.00000  Uiso   1.00
N488   N     0.72356   0.60282   0.18388   0.00000  Uiso   1.00
N489   N     0.83333   0.38264   0.25000   0.00000  Uiso   1.00
N490   N     0.73058   0.51400   0.35617   0.00000  Uiso   1.00
N491   N     0.93363   0.47231   0.14194   0.00000  Uiso   1.00
N492   N     0.68835   0.54167   0.44151   0.00000  Uiso   1.00
N493   N     0.97979   0.51352   0.06080   0.00000  Uiso   1.00
N494   N     0.72785   0.39607   0.31232   0.00000  Uiso   1.00
N495   N     0.93800   0.60156   0.18306   0.00000  Uiso   1.00
N496   N     0.94533   0.38275   0.29055   0.00000  Uiso   1.00
O497   O     0.77321   0.53958   0.25000   0.00000  Uiso   1.00
O498   O     0.89345   0.46042   0.25000   0.00000  Uiso   1.00
O499   O     0.89345   0.53958   0.25001   0.00000  Uiso   1.00
O500   O     0.77321   0.46042   0.25000   0.00000  Uiso   1.00
O501   O     0.83332   0.53960   0.18513   0.00000  Uiso   1.00
O502   O     0.83334   0.46040   0.31487   0.00000  Uiso   1.00
O503   O     0.83334   0.53960   0.31487   0.00000  Uiso   1.00
O504   O     0.83332   0.46040   0.18513   0.00000  Uiso   1.00
C505   C     0.08744   0.83356   0.24990   0.00000  Uiso   1.00
C506   C     0.04278   0.83356   0.24921   0.00000  Uiso   1.00
C507   C     0.14902   0.69187   0.21593   0.00000  Uiso   1.00
C508   C     0.18425   0.97481   0.28410   0.00000  Uiso   1.00
C509   C     0.18405   0.69105   0.28420   0.00000  Uiso   1.00
C510   C     0.14923   0.97563   0.21583   0.00000  Uiso   1.00
C511   C     0.16637   0.83341   0.16467   0.00000  Uiso   1.00
C512   C     0.16699   0.83336   0.33543   0.00000  Uiso   1.00
C513   C     0.20436   0.83132   0.40739   0.00000  Uiso   1.00
C514   C     0.12846   0.83835   0.09324   0.00000  Uiso   1.00
C515   C     0.16708   0.83420   0.38374   0.00000  Uiso   1.00
C516   C     0.24591   0.83291   0.24892   0.00000  Uiso   1.00
C517   C     0.16580   0.83383   0.11651   0.00000  Uiso   1.00
C518   C     0.12983   0.84163   0.40544   0.00000  Uiso   1.00
C519   C     0.20308   0.83036   0.09453   0.00000  Uiso   1.00
C520   C     0.12895   0.84462   0.45235   0.00000  Uiso   1.00
C521   C     0.20421   0.83537   0.04794   0.00000  Uiso   1.00
C522   C     0.16644   0.83984   0.47663   0.00000  Uiso   1.00
C523   C     0.16663   0.83942   0.02377   0.00000  Uiso   1.00
C524   C     0.20392   0.83535   0.45404   0.00000  Uiso   1.00
C525   C     0.12913   0.84224   0.04655   0.00000  Uiso   1.00
C526   C     0.09240   0.85235   0.47638   0.00000  Uiso   1.00
C527   C     0.09300   0.85005   0.02221   0.00000  Uiso   1.00
C528   C     0.24128   0.83683   0.02433   0.00000  Uiso   1.00
C529   C     0.24456   0.82348   0.38308   0.00000  Uiso   1.00
C530   C     0.26189   0.77378   0.39168   0.00000  Uiso   1.00
C531   C     0.30839   0.77242   0.38937   0.00000  Uiso   1.00
C532   C     0.08832   0.83437   0.11827   0.00000  Uiso   1.00
C533   C     0.06947   0.78592   0.11098   0.00000  Uiso   1.00
C534   C     0.03526   0.77680   0.14342   0.00000  Uiso   1.00
C535   C     0.09302   0.84473   0.37820   0.00000  Uiso   1.00
C536   C     0.23889   0.81687   0.12066   0.00000  Uiso   1.00
C537   C     0.05322   0.86475   0.45662   0.00000  Uiso   1.00
C538   C     0.24060   0.83586   0.47857   0.00000  Uiso   1.00
C539   C     0.28112   0.84227   0.04485   0.00000  Uiso   1.00
C540   C     0.04394   0.75868   0.29282   0.00000  Uiso   1.00
C541   C     0.28898   0.90580   0.20238   0.00000  Uiso   1.00
C542   C     0.29353   0.75063   0.27938   0.00000  Uiso   1.00
C543   C     0.04104   0.90663   0.20322   0.00000  Uiso   1.00
C544   C     0.02210   0.79552   0.26836   0.00000  Uiso   1.00
C545   C     0.31125   0.86921   0.22660   0.00000  Uiso   1.00
C546   C     0.31303   0.79340   0.26498   0.00000  Uiso   1.00
C547   C     0.02058   0.86972   0.22719   0.00000  Uiso   1.00
C548   C     0.29060   0.83181   0.24688   0.00000  Uiso   1.00
Cu549  Cu    0.16667   0.88022   0.25000   0.00000  Uiso   1.00
Cu550  Cu    0.16667   0.78645   0.25000   0.00000  Uiso   1.00
H551   H     0.06425   0.85537   0.03856   0.00000  Uiso   1.00
H552   H     0.25307   0.76016   0.42462   0.00000  Uiso   1.00
H553   H     0.24881   0.74962   0.36671   0.00000  Uiso   1.00
H554   H     0.24156   0.82818   0.34678   0.00000  Uiso   1.00
H555   H     0.26652   0.85104   0.39279   0.00000  Uiso   1.00
H556   H     0.04823   0.77088   0.17711   0.00000  Uiso   1.00
H557   H     0.01377   0.80711   0.14403   0.00000  Uiso   1.00
H558   H     0.01840   0.74498   0.13336   0.00000  Uiso   1.00
H559   H     0.05705   0.78325   0.07675   0.00000  Uiso   1.00
H560   H     0.09326   0.75810   0.11560   0.00000  Uiso   1.00
H561   H     0.09260   0.83941   0.15429   0.00000  Uiso   1.00
H562   H     0.26982   0.83579   0.46252   0.00000  Uiso   1.00
H563   H     0.06659   0.86289   0.10879   0.00000  Uiso   1.00
H564   H     0.13469   0.71078   0.18868   0.00000  Uiso   1.00
H565   H     0.19858   0.95591   0.31136   0.00000  Uiso   1.00
H566   H     0.19790   0.70930   0.31170   0.00000  Uiso   1.00
H567   H     0.13556   0.95739   0.18825   0.00000  Uiso   1.00
H568   H     0.31898   0.79141   0.35972   0.00000  Uiso   1.00
H569   H     0.32181   0.78900   0.41924   0.00000  Uiso   1.00
H570   H     0.31939   0.73551   0.38796   0.00000  Uiso   1.00
N571   N     0.16667   0.95069   0.25000   0.00000  Uiso   1.00
N572   N     0.05689   0.93615   0.18388   0.00000  Uiso   1.00
N573   N     0.16667   0.71598   0.25000   0.00000  Uiso   1.00
N574   N     0.06391   0.84734   0.35617   0.00000  Uiso   1.00
N575   N     0.26697   0.80565   0.14194   0.00000  Uiso   1.00
N576   N     0.02169   0.87501   0.44151   0.00000  Uiso   1.00
N577   N     0.31313   0.84685   0.06080   0.00000  Uiso   1.00
N578   N     0.06118   0.72940   0.31232   0.00000  Uiso   1.00
N579   N     0.27133   0.93490   0.18306   0.00000  Uiso   1.00
N580   N     0.27866   0.71609   0.29055   0.00000  Uiso   1.00
O581   O     0.10655   0.87291   0.25000   0.00000  Uiso   1.00
O582   O     0.22679   0.79375   0.25000   0.00000  Uiso   1.00
O583   O     0.22679   0.87291   0.25001   0.00000  Uiso   1.00
O584   O     0.10655   0.79375   0.25000   0.00000  Uiso   1.00
O585   O     0.16666   0.87293   0.18513   0.00000  Uiso   1.00
O586   O     0.16668   0.79373   0.31487   0.00000  Uiso   1.00
O587   O     0.16668   0.87293   0.31487   0.00000  Uiso   1.00
O588   O     0.16666   0.79373   0.18513   0.00000  Uiso   1.00
C589   C     0.42077   0.83356   0.24990   0.00000  Uiso   1.00
C590   C     0.37611   0.83356   0.24921   0.00000  Uiso   1.00
C591   C     0.48236   0.69187   0.21593   0.00000  Uiso   1.00
C592   C     0.51759   0.97481   0.28410   0.00000  Uiso   1.00
C593   C     0.51739   0.69105   0.28420   0.00000  Uiso   1.00
C594   C     0.48257   0.97563   0.21583   0.00000  Uiso   1.00
C595   C     0.49970   0.83341   0.16467   0.00000  Uiso   1.00
C596   C     0.50032   0.83336   0.33543   0.00000  Uiso   1.00
C597   C     0.53770   0.83132   0.40739   0.00000  Uiso   1.00
C598   C     0.46180   0.83835   0.09324   0.00000  Uiso   1.00
C599   C     0.50042   0.83420   0.38374   0.00000  Uiso   1.00
C600   C     0.57924   0.83291   0.24892   0.00000  Uiso   1.00
C601   C     0.49914   0.83383   0.11651   0.00000  Uiso   1.00
C602   C     0.46316   0.84163   0.40544   0.00000  Uiso   1.00
C603   C     0.53641   0.83036   0.09453   0.00000  Uiso   1.00
C604   C     0.46228   0.84462   0.45235   0.00000  Uiso   1.00
C605   C     0.53754   0.83537   0.04794   0.00000  Uiso   1.00
C606   C     0.49977   0.83984   0.47663   0.00000  Uiso   1.00
C607   C     0.49996   0.83942   0.02377   0.00000  Uiso   1.00
C608   C     0.53726   0.83535   0.45404   0.00000  Uiso   1.00
C609   C     0.46246   0.84224   0.04655   0.00000  Uiso   1.00
C610   C     0.42574   0.85235   0.47638   0.00000  Uiso   1.00
C611   C     0.42633   0.85005   0.02221   0.00000  Uiso   1.00
C612   C     0.57462   0.83683   0.02433   0.00000  Uiso   1.00
C613   C     0.57790   0.82348   0.38308   0.00000  Uiso   1.00
C614   C     0.59522   0.77378   0.39168   0.00000  Uiso   1.00
C615   C     0.64172   0.77242   0.38937   0.00000  Uiso   1.00
C616   C     0.42165   0.83437   0.11827   0.00000  Uiso   1.00
C617   C     0.40281   0.78592   0.11098   0.00000  Uiso   1.00
C618   C     0.36860   0.77680   0.14342   0.00000  Uiso   1.00
C619   C     0.42635   0.84473   0.37820   0.00000  Uiso   1.00
C620   C     0.57222   0.81687   0.12066   0.00000  Uiso   1.00
C621   C     0.38655   0.86475   0.45662   0.00000  Uiso   1.00
C622   C     0.57393   0.83586   0.47857   0.00000  Uiso   1.00
C623   C     0.61446   0.84227   0.04485   0.00000  Uiso   1.00
C624   C     0.37727   0.75868   0.29282   0.00000  Uiso   1.00
C625   C     0.62232   0.90580   0.20238   0.00000  Uiso   1.00
C626   C     0.62687   0.75063   0.27938   0.00000  Uiso   1.00
C627   C     0.37437   0.90663   0.20322   0.00000  Uiso   1.00
C628   C     0.35543   0.79552   0.26836   0.00000  Uiso   1.00
C629   C     0.64458   0.86921   0.22660   0.00000  Uiso   1.00
C630   C     0.64636   0.79340   0.26498   0.00000  Uiso   1.00
C631   C     0.35392   0.86972   0.22719   0.00000  Uiso   1.00
C632   C     0.62393   0.83181   0.24688   0.00000  Uiso   1.00
Cu633  Cu    0.50000   0.88022   0.25000   0.00000  Uiso   1.00
Cu634  Cu    0.50000   0.78645   0.25000   0.00000  Uiso   1.00
H635   H     0.39758   0.85537   0.03856   0.00000  Uiso   1.00
H636   H     0.58640   0.76016   0.42462   0.00000  Uiso   1.00
H637   H     0.58214   0.74962   0.36671   0.00000  Uiso   1.00
H638   H     0.57489   0.82818   0.34678   0.00000  Uiso   1.00
H639   H     0.59985   0.85104   0.39279   0.00000  Uiso   1.00
H640   H     0.38156   0.77088   0.17711   0.00000  Uiso   1.00
H641   H     0.34710   0.80711   0.14403   0.00000  Uiso   1.00
H642   H     0.35173   0.74498   0.13336   0.00000  Uiso   1.00
H643   H     0.39039   0.78325   0.07675   0.00000  Uiso   1.00
H644   H     0.42659   0.75810   0.11560   0.00000  Uiso   1.00
H645   H     0.42594   0.83941   0.15429   0.00000  Uiso   1.00
H646   H     0.60315   0.83579   0.46252   0.00000  Uiso   1.00
H647   H     0.39992   0.86289   0.10879   0.00000  Uiso   1.00
H648   H     0.46802   0.71078   0.18868   0.00000  Uiso   1.00
H649   H     0.53191   0.95591   0.31136   0.00000  Uiso   1.00
H650   H     0.53123   0.70930   0.31170   0.00000  Uiso   1.00
H651   H     0.46889   0.95739   0.18825   0.00000  Uiso   1.00
H652   H     0.65231   0.79141   0.35972   0.00000  Uiso   1.00
H653   H     0.65514   0.78900   0.41924   0.00000  Uiso   1.00
H654   H     0.65272   0.73551   0.38796   0.00000  Uiso   1.00
N655   N     0.50000   0.95069   0.25000   0.00000  Uiso   1.00
N656   N     0.39023   0.93615   0.18388   0.00000  Uiso   1.00
N657   N     0.50000   0.71598   0.25000   0.00000  Uiso   1.00
N658   N     0.39724   0.84734   0.35617   0.00000  Uiso   1.00
N659   N     0.60030   0.80565   0.14194   0.00000  Uiso   1.00
N660   N     0.35502   0.87501   0.44151   0.00000  Uiso   1.00
N661   N     0.64646   0.84685   0.06080   0.00000  Uiso   1.00
N662   N     0.39452   0.72940   0.31232   0.00000  Uiso   1.00
N663   N     0.60466   0.93490   0.18306   0.00000  Uiso   1.00
N664   N     0.61199   0.71609   0.29055   0.00000  Uiso   1.00
O665   O     0.43988   0.87291   0.25000   0.00000  Uiso   1.00
O666   O     0.56012   0.79375   0.25000   0.00000  Uiso   1.00
O667   O     0.56012   0.87291   0.25001   0.00000  Uiso   1.00
O668   O     0.43988   0.79375   0.25000   0.00000  Uiso   1.00
O669   O     0.49999   0.87293   0.18513   0.00000  Uiso   1.00
O670   O     0.50001   0.79373   0.31487   0.00000  Uiso   1.00
O671   O     0.50001   0.87293   0.31487   0.00000  Uiso   1.00
O672   O     0.49999   0.79373   0.18513   0.00000  Uiso   1.00
C673   C     0.75411   0.83356   0.24990   0.00000  Uiso   1.00
C674   C     0.70944   0.83356   0.24921   0.00000  Uiso   1.00
C675   C     0.81569   0.69187   0.21593   0.00000  Uiso   1.00
C676   C     0.85092   0.97481   0.28410   0.00000  Uiso   1.00
C677   C     0.85072   0.69105   0.28420   0.00000  Uiso   1.00
C678   C     0.81590   0.97563   0.21583   0.00000  Uiso   1.00
C679   C     0.83303   0.83341   0.16467   0.00000  Uiso   1.00
C680   C     0.83366   0.83336   0.33543   0.00000  Uiso   1.00
C681   C     0.87103   0.83132   0.40739   0.00000  Uiso   1.00
C682   C     0.79513   0.83835   0.09324   0.00000  Uiso   1.00
C683   C     0.83375   0.83420   0.38374   0.00000  Uiso   1.00
C684   C     0.91258   0.83291   0.24892   0.00000  Uiso   1.00
C685   C     0.83247   0.83383   0.11651   0.00000  Uiso   1.00
C686   C     0.79650   0.84163   0.40544   0.00000  Uiso   1.00
C687   C     0.86974   0.83036   0.09453   0.00000  Uiso   1.00
C688   C     0.79562   0.84462   0.45235   0.00000  Uiso   1.00
C689   C     0.87087   0.83537   0.04794   0.00000  Uiso   1.00
C690   C     0.83311   0.83984   0.47663   0.00000  Uiso   1.00
C691   C     0.83330   0.83942   0.02377   0.00000  Uiso   1.00
C692   C     0.87059   0.83535   0.45404   0.00000  Uiso   1.00
C693   C     0.79580   0.84224   0.04655   0.00000  Uiso   1.00
C694   C     0.75907   0.85235   0.47638   0.00000  Uiso   1.00
C695   C     0.75966   0.85005   0.02221   0.00000  Uiso   1.00
C696   C     0.90795   0.83683   0.02433   0.00000  Uiso   1.00
C697   C     0.91123   0.82348   0.38308   0.00000  Uiso   1.00
C698   C     0.92855   0.77378   0.39168   0.00000  Uiso   1.00
C699   C     0.97505   0.77242   0.38937   0.00000  Uiso   1.00
C700   C     0.75499   0.83437   0.11827   0.00000  Uiso   1.00
C701   C     0.73614   0.78592   0.11098   0.00000  Uiso   1.00
C702   C     0.70193   0.77680   0.14342   0.00000  Uiso   1.00
C703   C     0.75968   0.84473   0.37820   0.00000  Uiso   1.00
C704   C     0.90556   0.81687   0.12066   0.00000  Uiso   1.00
C705   C     0.71989   0.86475   0.45662   0.00000  Uiso   1.00
C706   C     0.90726   0.83586   0.47857   0.00000  Uiso   1.00
C707   C     0.94779   0.84227   0.04485   0.00000  Uiso   1.00
C708   C     0.71060   0.75868   0.29282   0.00000  Uiso   1.00
C709   C     0.95565   0.90580   0.20238   0.00000  Uiso   1.00
C710   C     0.96020   0.75063   0.27938   0.00000  Uiso   1.00
C711   C     0.70771   0.90663   0.20322   0.00000  Uiso   1.00
C712   C     0.68877   0.79552   0.26836   0.00000  Uiso   1.00
C713   C     0.97791   0.86921   0.22660   0.00000  Uiso   1.00
C714   C     0.97970   0.79340   0.26498   0.00000  Uiso   1.00
C715   C     0.68725   0.86972   0.22719   0.00000  Uiso   1.00
C716   C     0.95727   0.83181   0.24688   0.00000  Uiso   1.00
Cu717  Cu    0.83333   0.88022   0.25000   0.00000  Uiso   1.00
Cu718  Cu    0.83333   0.78645   0.25000   0.00000  Uiso   1.00
H719   H     0.73092   0.85537   0.03856   0.00000  Uiso   1.00
H720   H     0.91973   0.76016   0.42462   0.00000  Uiso   1.00
H721   H     0.91548   0.74962   0.36671   0.00000  Uiso   1.00
H722   H     0.90823   0.82818   0.34678   0.00000  Uiso   1.00
H723   H     0.93319   0.85104   0.39279   0.00000  Uiso   1.00
H724   H     0.71490   0.77088   0.17711   0.00000  Uiso   1.00
H725   H     0.68043   0.80711   0.14403   0.00000  Uiso   1.00
H726   H     0.68506   0.74498   0.13336   0.00000  Uiso   1.00
H727   H     0.72372   0.78325   0.07675   0.00000  Uiso   1.00
H728   H     0.75992   0.75810   0.11560   0.00000  Uiso   1.00
H729   H     0.75927   0.83941   0.15429   0.00000  Uiso   1.00
H730   H     0.93648   0.83579   0.46252   0.00000  Uiso   1.00
H731   H     0.73326   0.86289   0.10879   0.00000  Uiso   1.00
H732   H     0.80136   0.71078   0.18868   0.00000  Uiso   1.00
H733   H     0.86525   0.95591   0.31136   0.00000  Uiso   1.00
H734   H     0.86456   0.70930   0.31170   0.00000  Uiso   1.00
H735   H     0.80222   0.95739   0.18825   0.00000  Uiso   1.00
H736   H     0.98565   0.79141   0.35972   0.00000  Uiso   1.00
H737   H     0.98848   0.78900   0.41924   0.00000  Uiso   1.00
H738   H     0.98605   0.73551   0.38796   0.00000  Uiso   1.00
N739   N     0.83333   0.95069   0.25000   0.00000  Uiso   1.00
N740   N     0.72356   0.93615   0.18388   0.00000  Uiso   1.00
N741   N     0.83333   0.71598   0.25000   0.00000  Uiso   1.00
N742   N     0.73058   0.84734   0.35617   0.00000  Uiso   1.00
N743   N     0.93363   0.80565   0.14194   0.00000  Uiso   1.00
N744   N     0.68835   0.87501   0.44151   0.00000  Uiso   1.00
N745   N     0.97979   0.84685   0.06080   0.00000  Uiso   1.00
N746   N     0.72785   0.72940   0.31232   0.00000  Uiso   1.00
N747   N     0.93800   0.93490   0.18306   0.00000  Uiso   1.00
N748   N     0.94533   0.71609   0.29055   0.00000  Uiso   1.00
O749   O     0.77321   0.87291   0.25000   0.00000  Uiso   1.00
O750   O     0.89345   0.79375   0.25000   0.00000  Uiso   1.00
O751   O     0.89345   0.87291   0.25001   0.00000  Uiso   1.00
O752   O     0.77321   0.79375   0.25000   0.00000  Uiso   1.00
O753   O     0.83332   0.87293   0.18513   0.00000  Uiso   1.00
O754   O     0.83334   0.79373   0.31487   0.00000  Uiso   1.00
O755   O     0.83334   0.87293   0.31487   0.00000  Uiso   1.00
O756   O     0.83332   0.79373   0.18513   0.00000  Uiso   1.00
C757   C     0.08744   0.16689   0.74990   0.00000  Uiso   1.00
C758   C     0.04278   0.16689   0.74921   0.00000  Uiso   1.00
C759   C     0.14902   0.02521   0.71593   0.00000  Uiso   1.00
C760   C     0.18425   0.30814   0.78410   0.00000  Uiso   1.00
C761   C     0.18405   0.02438   0.78420   0.00000  Uiso   1.00
C762   C     0.14923   0.30897   0.71583   0.00000  Uiso   1.00
C763   C     0.16637   0.16674   0.66467   0.00000  Uiso   1.00
C764   C     0.16699   0.16669   0.83543   0.00000  Uiso   1.00
C765   C     0.20436   0.16466   0.90739   0.00000  Uiso   1.00
C766   C     0.12846   0.17168   0.59324   0.00000  Uiso   1.00
C767   C     0.16708   0.16754   0.88374   0.00000  Uiso   1.00
C768   C     0.24591   0.16625   0.74892   0.00000  Uiso   1.00
C769   C     0.16580   0.16716   0.61651   0.00000  Uiso   1.00
C770   C     0.12983   0.17496   0.90544   0.00000  Uiso   1.00
C771   C     0.20308   0.16369   0.59453   0.00000  Uiso   1.00
C772   C     0.12895   0.17795   0.95235   0.00000  Uiso   1.00
C773   C     0.20421   0.16870   0.54794   0.00000  Uiso   1.00
C774   C     0.16644   0.17317   0.97663   0.00000  Uiso   1.00
C775   C     0.16663   0.17275   0.52377   0.00000  Uiso   1.00
C776   C     0.20392   0.16868   0.95404   0.00000  Uiso   1.00
C777   C     0.12913   0.17557   0.54655   0.00000  Uiso   1.00
C778   C     0.09240   0.18568   0.97638   0.00000  Uiso   1.00
C779   C     0.09300   0.18338   0.52221   0.00000  Uiso   1.00
C780   C     0.24128   0.17016   0.52433   0.00000  Uiso   1.00
C781   C     0.24456   0.15681   0.88308   0.00000  Uiso   1.00
C782   C     0.26189   0.10711   0.89168   0.00000  Uiso   1.00
C783   C     0.30839   0.10575   0.88937   0.00000  Uiso   1.00
C784   C     0.08832   0.16770   0.61827   0.00000  Uiso   1.00
C785   C     0.06947   0.11925   0.61098   0.00000  Uiso   1.00
C786   C     0.03526   0.11013   0.64342   0.00000  Uiso   1.00
C787   C     0.09302   0.17806   0.87820   0.00000  Uiso   1.00
C788   C     0.23889   0.15021   0.62066   0.00000  Uiso   1.00
C789   C     0.05322   0.19809   0.95662   0.00000  Uiso   1.00
C790   C     0.24060   0.16920   0.97857   0.00000  Uiso   1.00
C791   C     0.28112   0.17561   0.54485   0.00000  Uiso   1.00
C792   C     0.04394   0.09202   0.79282   0.00000  Uiso   1.00
C793   C     0.28898   0.23913   0.70238   0.00000  Uiso   1.00
C794   C     0.29353   0.08396   0.77938   0.00000  Uiso   1.00
C795   C     0.04104   0.23996   0.70322   0.00000  Uiso   1.00
C796   C     0.02210   0.12886   0.76836   0.00000  Uiso   1.00
C797   C     0.31125   0.20254   0.72660   0.00000  Uiso   1.00
C798   C     0.31303   0.12673   0.76498   0.00000  Uiso   1.00
C799   C     0.02058   0.20305   0.72719   0.00000  Uiso   1.00
C800   C     0.29060   0.16514   0.74688   0.00000  Uiso   1.00
Cu801  Cu    0.16667   0.21355   0.75000   0.00000  Uiso   1.00
Cu802  Cu    0.16667   0.11978   0.75000   0.00000  Uiso   1.00
H803   H     0.06425   0.18870   0.53856   0.00000  Uiso   1.00
H804   H     0.25307   0.09350   0.92462   0.00000  Uiso   1.00
H805   H     0.24881   0.08295   0.86671   0.00000  Uiso   1.00
H806   H     0.24156   0.16152   0.84678   0.00000  Uiso   1.00
H807   H     0.26652   0.18437   0.89279   0.00000  Uiso   1.00
H808   H     0.04823   0.10421   0.67711   0.00000  Uiso   1.00
H809   H     0.01377   0.14044   0.64403   0.00000  Uiso   1.00
H810   H     0.01840   0.07831   0.63336   0.00000  Uiso   1.00
H811   H     0.05705   0.11659   0.57675   0.00000  Uiso   1.00
H812   H     0.09326   0.09144   0.61560   0.00000  Uiso   1.00
H813   H     0.09260   0.17274   0.65429   0.00000  Uiso   1.00
H814   H     0.26982   0.16912   0.96252   0.00000  Uiso   1.00
H815   H     0.06659   0.19623   0.60879   0.00000  Uiso   1.00
H816   H     0.13469   0.04411   0.68868   0.00000  Uiso   1.00
H817   H     0.19858   0.28925   0.81136   0.00000  Uiso   1.00
H818   H     0.19790   0.04264   0.81170   0.00000  Uiso   1.00
H819   H     0.13556   0.29073   0.68825   0.00000  Uiso   1.00
H820   H     0.31898   0.12475   0.85972   0.00000  Uiso   1.00
H821   H     0.32181   0.12233   0.91924   0.00000  Uiso   1.00
H822   H     0.31939   0.06884   0.88796   0.00000  Uiso   1.00
N823   N     0.16667   0.28402   0.75000   0.00000  Uiso   1.00
N824   N     0.05689   0.26949   0.68388   0.00000  Uiso   1.00
N825   N     0.16667   0.04931   0.75000   0.00000  Uiso   1.00
N826   N     0.06391   0.18067   0.85617   0.00000  Uiso   1.00
N827   N     0.26697   0.13898   0.64194   0.00000  Uiso   1.00
N828   N     0.02169   0.20834   0.94151   0.00000  Uiso   1.00
N829   N     0.31313   0.18019   0.56080   0.00000  Uiso   1.00
N830   N     0.06118   0.06273   0.81232   0.00000  Uiso   1.00
N831   N     0.27133   0.26823   0.68306   0.00000  Uiso   1.00
N832   N     0.27866   0.04942   0.79055   0.00000  Uiso   1.00
O833   O     0.10655   0.20625   0.75000   0.00000  Uiso   1.00
O834   O     0.22679   0.12709   0.75000   0.00000  Uiso   1.00
O835   O     0.22679   0.20625   0.75001   0.00000  Uiso   1.00
O836   O     0.10655   0.12709   0.75000   0.00000  Uiso   1.00
O837   O     0.16666   0.20627   0.68513   0.00000  Uiso   1.00
O838   O     0.16668   0.12707   0.81487   0.00000  Uiso   1.00
O839   O     0.16668   0.20627   0.81487   0.00000  Uiso   1.00
O840   O     0.16666   0.12707   0.68513   0.00000  Uiso   1.00
C841   C     0.42077   0.16689   0.74990   0.00000  Uiso   1.00
C842   C     0.37611   0.16689   0.74921   0.00000  Uiso   1.00
C843   C     0.48236   0.02521   0.71593   0.00000  Uiso   1.00
C844   C     0.51759   0.30814   0.78410   0.00000  Uiso   1.00
C845   C     0.51739   0.02438   0.78420   0.00000  Uiso   1.00
C846   C     0.48257   0.30897   0.71583   0.00000  Uiso   1.00
C847   C     0.49970   0.16674   0.66467   0.00000  Uiso   1.00
C848   C     0.50032   0.16669   0.83543   0.00000  Uiso   1.00
C849   C     0.53770   0.16466   0.90739   0.00000  Uiso   1.00
C850   C     0.46180   0.17168   0.59324   0.00000  Uiso   1.00
C851   C     0.50042   0.16754   0.88374   0.00000  Uiso   1.00
C852   C     0.57924   0.16625   0.74892   0.00000  Uiso   1.00
C853   C     0.49914   0.16716   0.61651   0.00000  Uiso   1.00
C854   C     0.46316   0.17496   0.90544   0.00000  Uiso   1.00
C855   C     0.53641   0.16369   0.59453   0.00000  Uiso   1.00
C856   C     0.46228   0.17795   0.95235   0.00000  Uiso   1.00
C857   C     0.53754   0.16870   0.54794   0.00000  Uiso   1.00
C858   C     0.49977   0.17317   0.97663   0.00000  Uiso   1.00
C859   C     0.49996   0.17275   0.52377   0.00000  Uiso   1.00
C860   C     0.53726   0.16868   0.95404   0.00000  Uiso   1.00
C861   C     0.46246   0.17557   0.54655   0.00000  Uiso   1.00
C862   C     0.42574   0.18568   0.97638   0.00000  Uiso   1.00
C863   C     0.42633   0.18338   0.52221   0.00000  Uiso   1.00
C864   C     0.57462   0.17016   0.52433   0.00000  Uiso   1.00
C865   C     0.57790   0.15681   0.88308   0.00000  Uiso   1.00
C866   C     0.59522   0.10711   0.89168   0.00000  Uiso   1.00
C867   C     0.64172   0.10575   0.88937   0.00000  Uiso   1.00
C868   C     0.42165   0.16770   0.61827   0.00000  Uiso   1.00
C869   C     0.40281   0.11925   0.61098   0.00000  Uiso   1.00
C870   C     0.36860   0.11013   0.64342   0.00000  Uiso   1.00
C871   C     0.42635   0.17806   0.87820   0.00000  Uiso   1.00
C872   C     0.57222   0.15021   0.62066   0.00000  Uiso   1.00
C873   C     0.38655   0.19809   0.95662   0.00000  Uiso   1.00
C874   C     0.57393   0.16920   0.97857   0.00000  Uiso   1.00
C875   C     0.61446   0.17561   0.54485   0.00000  Uiso   1.00
C876   C     0.37727   0.09202   0.79282   0.00000  Uiso   1.00
C877   C     0.62232   0.23913   0.70238   0.00000  Uiso   1.00
C878   C     0.62687   0.08396   0.77938   0.00000  Uiso   1.00
C879   C     0.37437   0.23996   0.70322   0.00000  Uiso   1.00
C880   C     0.35543   0.12886   0.76836   0.00000  Uiso   1.00
C881   C     0.64458   0.20254   0.72660   0.00000  Uiso   1.00
C882   C     0.64636   0.12673   0.76498   0.00000  Uiso   1.00
C883   C     0.35392   0.20305   0.72719   0.00000  Uiso   1.00
C884   C     0.62393   0.16514   0.74688   0.00000  Uiso   1.00
Cu885  Cu    0.50000   0.21355   0.75000   0.00000  Uiso   1.00
Cu886  Cu    0.50000   0.11978   0.75000   0.00000  Uiso   1.00
H887   H     0.39758   0.18870   0.53856   0.00000  Uiso   1.00
H888   H     0.58640   0.09350   0.92462   0.00000  Uiso   1.00
H889   H     0.58214   0.08295   0.86671   0.00000  Uiso   1.00
H890   H     0.57489   0.16152   0.84678   0.00000  Uiso   1.00
H891   H     0.59985   0.18437   0.89279   0.00000  Uiso   1.00
H892   H     0.38156   0.10421   0.67711   0.00000  Uiso   1.00
H893   H     0.34710   0.14044   0.64403   0.00000  Uiso   1.00
H894   H     0.35173   0.07831   0.63336   0.00000  Uiso   1.00
H895   H     0.39039   0.11659   0.57675   0.00000  Uiso   1.00
H896   H     0.42659   0.09144   0.61560   0.00000  Uiso   1.00
H897   H     0.42594   0.17274   0.65429   0.00000  Uiso   1.00
H898   H     0.60315   0.16912   0.96252   0.00000  Uiso   1.00
H899   H     0.39992   0.19623   0.60879   0.00000  Uiso   1.00
H900   H     0.46802   0.04411   0.68868   0.00000  Uiso   1.00
H901   H     0.53191   0.28925   0.81136   0.00000  Uiso   1.00
H902   H     0.53123   0.04264   0.81170   0.00000  Uiso   1.00
H903   H     0.46889   0.29073   0.68825   0.00000  Uiso   1.00
H904   H     0.65231   0.12475   0.85972   0.00000  Uiso   1.00
H905   H     0.65514   0.12233   0.91924   0.00000  Uiso   1.00
H906   H     0.65272   0.06884   0.88796   0.00000  Uiso   1.00
N907   N     0.50000   0.28402   0.75000   0.00000  Uiso   1.00
N908   N     0.39023   0.26949   0.68388   0.00000  Uiso   1.00
N909   N     0.50000   0.04931   0.75000   0.00000  Uiso   1.00
N910   N     0.39724   0.18067   0.85617   0.00000  Uiso   1.00
N911   N     0.60030   0.13898   0.64194   0.00000  Uiso   1.00
N912   N     0.35502   0.20834   0.94151   0.00000  Uiso   1.00
N913   N     0.64646   0.18019   0.56080   0.00000  Uiso   1.00
N914   N     0.39452   0.06273   0.81232   0.00000  Uiso   1.00
N915   N     0.60466   0.26823   0.68306   0.00000  Uiso   1.00
N916   N     0.61199   0.04942   0.79055   0.00000  Uiso   1.00
O917   O     0.43988   0.20625   0.75000   0.00000  Uiso   1.00
O918   O     0.56012   0.12709   0.75000   0.00000  Uiso   1.00
O919   O     0.56012   0.20625   0.75001   0.00000  Uiso   1.00
O920   O     0.43988   0.12709   0.75000   0.00000  Uiso   1.00
O921   O     0.49999   0.20627   0.68513   0.00000  Uiso   1.00
O922   O     0.50001   0.12707   0.81487   0.00000  Uiso   1.00
O923   O     0.50001   0.20627   0.81487   0.00000  Uiso   1.00
O924   O     0.49999   0.12707   0.68513   0.00000  Uiso   1.00
C925   C     0.75411   0.16689   0.74990   0.00000  Uiso   1.00
C926   C     0.70944   0.16689   0.74921   0.00000  Uiso   1.00
C927   C     0.81569   0.02521   0.71593   0.00000  Uiso   1.00
C928   C     0.85092   0.30814   0.78410   0.00000  Uiso   1.00
C929   C     0.85072   0.02438   0.78420   0.00000  Uiso   1.00
C930   C     0.81590   0.30897   0.71583   0.00000  Uiso   1.00
C931   C     0.83303   0.16674   0.66467   0.00000  Uiso   1.00
C932   C     0.83366   0.16669   0.83543   0.00000  Uiso   1.00
C933   C     0.87103   0.16466   0.90739   0.00000  Uiso   1.00
C934   C     0.79513   0.17168   0.59324   0.00000  Uiso   1.00
C935   C     0.83375   0.16754   0.88374   0.00000  Uiso   1.00
C936   C     0.91258   0.16625   0.74892   0.00000  Uiso   1.00
C937   C     0.83247   0.16716   0.61651   0.00000  Uiso   1.00
C938   C     0.79650   0.17496   0.90544   0.00000  Uiso   1.00
C939   C     0.86974   0.16369   0.59453   0.00000  Uiso   1.00
C940   C     0.79562   0.17795   0.95235   0.00000  Uiso   1.00
C941   C     0.87087   0.16870   0.54794   0.00000  Uiso   1.00
C942   C     0.83311   0.17317   0.97663   0.00000  Uiso   1.00
C943   C     0.83330   0.17275   0.52377   0.00000  Uiso   1.00
C944   C     0.87059   0.16868   0.95404   0.00000  Uiso   1.00
C945   C     0.79580   0.17557   0.54655   0.00000  Uiso   1.00
C946   C     0.75907   0.18568   0.97638   0.00000  Uiso   1.00
C947   C     0.75966   0.18338   0.52221   0.00000  Uiso   1.00
C948   C     0.90795   0.17016   0.52433   0.00000  Uiso   1.00
C949   C     0.91123   0.15681   0.88308   0.00000  Uiso   1.00
C950   C     0.92855   0.10711   0.89168   0.00000  Uiso   1.00
C951   C     0.97505   0.10575   0.88937   0.00000  Uiso   1.00
C952   C     0.75499   0.16770   0.61827   0.00000  Uiso   1.00
C953   C     0.73614   0.11925   0.61098   0.00000  Uiso   1.00
C954   C     0.70193   0.11013   0.64342   0.00000  Uiso   1.00
C955   C     0.75968   0.17806   0.87820   0.00000  Uiso   1.00
C956   C     0.90556   0.15021   0.62066   0.00000  Uiso   1.00
C957   C     0.71989   0.19809   0.95662   0.00000  Uiso   1.00
C958   C     0.90726   0.16920   0.97857   0.00000  Uiso   1.00
C959   C     0.94779   0.17561   0.54485   0.00000  Uiso   1.00
C960   C     0.71060   0.09202   0.79282   0.00000  Uiso   1.00
C961   C     0.95565   0.23913   0.70238   0.00000  Uiso   1.00
C962   C     0.96020   0.08396   0.77938   0.00000  Uiso   1.00
C963   C     0.70771   0.23996   0.70322   0.00000  Uiso   1.00
C964   C     0.68877   0.12886   0.76836   0.00000  Uiso   1.00
C965   C     0.97791   0.20254   0.72660   0.00000  Uiso   1.00
C966   C     0.97970   0.12673   0.76498   0.00000  Uiso   1.00
C967   C     0.68725   0.20305   0.72719   0.00000  Uiso   1.00
C968   C     0.95727   0.16514   0.74688   0.00000  Uiso   1.00
Cu969  Cu    0.83333   0.21355   0.75000   0.00000  Uiso   1.00
Cu970  Cu    0.83333   0.11978   0.75000   0.00000  Uiso   1.00
H971   H     0.73092   0.18870   0.53856   0.00000  Uiso   1.00
H972   H     0.91973   0.09350   0.92462   0.00000  Uiso   1.00
H973   H     0.91548   0.08295   0.86671   0.00000  Uiso   1.00
H974   H     0.90823   0.16152   0.84678   0.00000  Uiso   1.00
H975   H     0.93319   0.18437   0.89279   0.00000  Uiso   1.00
H976   H     0.71490   0.10421   0.67711   0.00000  Uiso   1.00
H977   H     0.68043   0.14044   0.64403   0.00000  Uiso   1.00
H978   H     0.68506   0.07831   0.63336   0.00000  Uiso   1.00
H979   H     0.72372   0.11659   0.57675   0.00000  Uiso   1.00
H980   H     0.75992   0.09144   0.61560   0.00000  Uiso   1.00
H981   H     0.75927   0.17274   0.65429   0.00000  Uiso   1.00
H982   H     0.93648   0.16912   0.96252   0.00000  Uiso   1.00
H983   H     0.73326   0.19623   0.60879   0.00000  Uiso   1.00
H984   H     0.80136   0.04411   0.68868   0.00000  Uiso   1.00
H985   H     0.86525   0.28925   0.81136   0.00000  Uiso   1.00
H986   H     0.86456   0.04264   0.81170   0.00000  Uiso   1.00
H987   H     0.80222   0.29073   0.68825   0.00000  Uiso   1.00
H988   H     0.98565   0.12475   0.85972   0.00000  Uiso   1.00
H989   H     0.98848   0.12233   0.91924   0.00000  Uiso   1.00
H990   H     0.98605   0.06884   0.88796   0.00000  Uiso   1.00
N991   N     0.83333   0.28402   0.75000   0.00000  Uiso   1.00
N992   N     0.72356   0.26949   0.68388   0.00000  Uiso   1.00
N993   N     0.83333   0.04931   0.75000   0.00000  Uiso   1.00
N994   N     0.73058   0.18067   0.85617   0.00000  Uiso   1.00
N995   N     0.93363   0.13898   0.64194   0.00000  Uiso   1.00
N996   N     0.68835   0.20834   0.94151   0.00000  Uiso   1.00
N997   N     0.97979   0.18019   0.56080   0.00000  Uiso   1.00
N998   N     0.72785   0.06273   0.81232   0.00000  Uiso   1.00
N999   N     0.93800   0.26823   0.68306   0.00000  Uiso   1.00
N1000  N     0.94533   0.04942   0.79055   0.00000  Uiso   1.00
O1001  O     0.77321   0.20625   0.75000   0.00000  Uiso   1.00
O1002  O     0.89345   0.12709   0.75000   0.00000  Uiso   1.00
O1003  O     0.89345   0.20625   0.75001   0.00000  Uiso   1.00
O1004  O     0.77321   0.12709   0.75000   0.00000  Uiso   1.00
O1005  O     0.83332   0.20627   0.68513   0.00000  Uiso   1.00
O1006  O     0.83334   0.12707   0.81487   0.00000  Uiso   1.00
O1007  O     0.83334   0.20627   0.81487   0.00000  Uiso   1.00
O1008  O     0.83332   0.12707   0.68513   0.00000  Uiso   1.00
C1009  C     0.08744   0.50022   0.74990   0.00000  Uiso   1.00
C1010  C     0.04278   0.50022   0.74921   0.00000  Uiso   1.00
C1011  C     0.14902   0.35854   0.71593   0.00000  Uiso   1.00
C1012  C     0.18425   0.64147   0.78410   0.00000  Uiso   1.00
C1013  C     0.18405   0.35771   0.78420   0.00000  Uiso   1.00
C1014  C     0.14923   0.64230   0.71583   0.00000  Uiso   1.00
C1015  C     0.16637   0.50007   0.66467   0.00000  Uiso   1.00
C1016  C     0.16699   0.50003   0.83543   0.00000  Uiso   1.00
C1017  C     0.20436   0.49799   0.90739   0.00000  Uiso   1.00
C1018  C     0.12846   0.50501   0.59324   0.00000  Uiso   1.00
C1019  C     0.16708   0.50087   0.88374   0.00000  Uiso   1.00
C1020  C     0.24591   0.49958   0.74892   0.00000  Uiso   1.00
C1021  C     0.16580   0.50050   0.61651   0.00000  Uiso   1.00
C1022  C     0.12983   0.50829   0.90544   0.00000  Uiso   1.00
C1023  C     0.20308   0.49703   0.59453   0.00000  Uiso   1.00
C1024  C     0.12895   0.51128   0.95235   0.00000  Uiso   1.00
C1025  C     0.20421   0.50203   0.54794   0.00000  Uiso   1.00
C1026  C     0.16644   0.50651   0.97663   0.00000  Uiso   1.00
C1027  C     0.16663   0.50609   0.52377   0.00000  Uiso   1.00
C1028  C     0.20392   0.50202   0.95404   0.00000  Uiso   1.00
C1029  C     0.12913   0.50891   0.54655   0.00000  Uiso   1.00
C1030  C     0.09240   0.51902   0.97638   0.00000  Uiso   1.00
C1031  C     0.09300   0.51671   0.52221   0.00000  Uiso   1.00
C1032  C     0.24128   0.50349   0.52433   0.00000  Uiso   1.00
C1033  C     0.24456   0.49014   0.88308   0.00000  Uiso   1.00
C1034  C     0.26189   0.44044   0.89168   0.00000  Uiso   1.00
C1035  C     0.30839   0.43908   0.88937   0.00000  Uiso   1.00
C1036  C     0.08832   0.50103   0.61827   0.00000  Uiso   1.00
C1037  C     0.06947   0.45259   0.61098   0.00000  Uiso   1.00
C1038  C     0.03526   0.44346   0.64342   0.00000  Uiso   1.00
C1039  C     0.09302   0.51139   0.87820   0.00000  Uiso   1.00
C1040  C     0.23889   0.48354   0.62066   0.00000  Uiso   1.00
C1041  C     0.05322   0.53142   0.95662   0.00000  Uiso   1.00
C1042  C     0.24060   0.50253   0.97857   0.00000  Uiso   1.00
C1043  C     0.28112   0.50894   0.54485   0.00000  Uiso   1.00
C1044  C     0.04394   0.42535   0.79282   0.00000  Uiso   1.00
C1045  C     0.28898   0.57247   0.70238   0.00000  Uiso   1.00
C1046  C     0.29353   0.41729   0.77938   0.00000  Uiso   1.00
C1047  C     0.04104   0.57330   0.70322   0.00000  Uiso   1.00
C1048  C     0.02210   0.46219   0.76836   0.00000  Uiso   1.00
C1049  C     0.31125   0.53587   0.72660   0.00000  Uiso   1.00
C1050  C     0.31303   0.46006   0.76498   0.00000  Uiso   1.00
C1051  C     0.02058   0.53639   0.72719   0.00000  Uiso   1.00
C1052  C     0.29060   0.49847   0.74688   0.00000  Uiso   1.00
Cu1053 Cu    0.16667   0.54689   0.75000   0.00000  Uiso   1.00
Cu1054 Cu    0.16667   0.45311   0.75000   0.00000  Uiso   1.00
H1055  H     0.06425   0.52204   0.53856   0.00000  Uiso   1.00
H1056  H     0.25307   0.42683   0.92462   0.00000  Uiso   1.00
H1057  H     0.24881   0.41628   0.86671   0.00000  Uiso   1.00
H1058  H     0.24156   0.49485   0.84678   0.00000  Uiso   1.00
H1059  H     0.26652   0.51771   0.89279   0.00000  Uiso   1.00
H1060  H     0.04823   0.43755   0.67711   0.00000  Uiso   1.00
H1061  H     0.01377   0.47378   0.64403   0.00000  Uiso   1.00
H1062  H     0.01840   0.41165   0.63336   0.00000  Uiso   1.00
H1063  H     0.05705   0.44992   0.57675   0.00000  Uiso   1.00
H1064  H     0.09326   0.42477   0.61560   0.00000  Uiso   1.00
H1065  H     0.09260   0.50608   0.65429   0.00000  Uiso   1.00
H1066  H     0.26982   0.50245   0.96252   0.00000  Uiso   1.00
H1067  H     0.06659   0.52956   0.60879   0.00000  Uiso   1.00
H1068  H     0.13469   0.37745   0.68868   0.00000  Uiso   1.00
H1069  H     0.19858   0.62258   0.81136   0.00000  Uiso   1.00
H1070  H     0.19790   0.37597   0.81170   0.00000  Uiso   1.00
H1071  H     0.13556   0.62406   0.68825   0.00000  Uiso   1.00
H1072  H     0.31898   0.45808   0.85972   0.00000  Uiso   1.00
H1073  H     0.32181   0.45567   0.91924   0.00000  Uiso   1.00
H1074  H     0.31939   0.40217   0.88796   0.00000  Uiso   1.00
N1075  N     0.16667   0.61736   0.75000   0.00000  Uiso   1.00
N1076  N     0.05689   0.60282   0.68388   0.00000  Uiso   1.00
N1077  N     0.16667   0.38264   0.75000   0.00000  Uiso   1.00
N1078  N     0.06391   0.51400   0.85617   0.00000  Uiso   1.00
N1079  N     0.26697   0.47231   0.64194   0.00000  Uiso   1.00
N1080  N     0.02169   0.54167   0.94151   0.00000  Uiso   1.00
N1081  N     0.31313   0.51352   0.56080   0.00000  Uiso   1.00
N1082  N     0.06118   0.39607   0.81232   0.00000  Uiso   1.00
N1083  N     0.27133   0.60156   0.68306   0.00000  Uiso   1.00
N1084  N     0.27866   0.38275   0.79055   0.00000  Uiso   1.00
O1085  O     0.10655   0.53958   0.75000   0.00000  Uiso   1.00
O1086  O     0.22679   0.46042   0.75000   0.00000  Uiso   1.00
O1087  O     0.22679   0.53958   0.75001   0.00000  Uiso   1.00
O1088  O     0.10655   0.46042   0.75000   0.00000  Uiso   1.00
O1089  O     0.16666   0.53960   0.68513   0.00000  Uiso   1.00
O1090  O     0.16668   0.46040   0.81487   0.00000  Uiso   1.00
O1091  O     0.16668   0.53960   0.81487   0.00000  Uiso   1.00
O1092  O     0.16666   0.46040   0.68513   0.00000  Uiso   1.00
C1093  C     0.42077   0.50022   0.74990   0.00000  Uiso   1.00
C1094  C     0.37611   0.50022   0.74921   0.00000  Uiso   1.00
C1095  C     0.48236   0.35854   0.71593   0.00000  Uiso   1.00
C1096  C     0.51759   0.64147   0.78410   0.00000  Uiso   1.00
C1097  C     0.51739   0.35771   0.78420   0.00000  Uiso   1.00
C1098  C     0.48257   0.64230   0.71583   0.00000  Uiso   1.00
C1099  C     0.49970   0.50007   0.66467   0.00000  Uiso   1.00
C1100  C     0.50032   0.50003   0.83543   0.00000  Uiso   1.00
C1101  C     0.53770   0.49799   0.90739   0.00000  Uiso   1.00
C1102  C     0.46180   0.50501   0.59324   0.00000  Uiso   1.00
C1103  C     0.50042   0.50087   0.88374   0.00000  Uiso   1.00
C1104  C     0.57924   0.49958   0.74892   0.00000  Uiso   1.00
C1105  C     0.49914   0.50050   0.61651   0.00000  Uiso   1.00
C1106  C     0.46316   0.50829   0.90544   0.00000  Uiso   1.00
C1107  C     0.53641   0.49703   0.59453   0.00000  Uiso   1.00
C1108  C     0.46228   0.51128   0.95235   0.00000  Uiso   1.00
C1109  C     0.53754   0.50203   0.54794   0.00000  Uiso   1.00
C1110  C     0.49977   0.50651   0.97663   0.00000  Uiso   1.00
C1111  C     0.49996   0.50609   0.52377   0.00000  Uiso   1.00
C1112  C     0.53726   0.50202   0.95404   0.00000  Uiso   1.00
C1113  C     0.46246   0.50891   0.54655   0.00000  Uiso   1.00
C1114  C     0.42574   0.51902   0.97638   0.00000  Uiso   1.00
C1115  C     0.42633   0.51671   0.52221   0.00000  Uiso   1.00
C1116  C     0.57462   0.50349   0.52433   0.00000  Uiso   1.00
C1117  C     0.57790   0.49014   0.88308   0.00000  Uiso   1.00
C1118  C     0.59522   0.44044   0.89168   0.00000  Uiso   1.00
C1119  C     0.64172   0.43908   0.88937   0.00000  Uiso   1.00
C1120  C     0.42165   0.50103   0.61827   0.00000  Uiso   1.00
C1121  C     0.40281   0.45259   0.61098   0.00000  Uiso   1.00
C1122  C     0.36860   0.44346   0.64342   0.00000  Uiso   1.00
C1123  C     0.42635   0.51139   0.87820   0.00000  Uiso   1.00
C1124  C     0.57222   0.48354   0.62066   0.00000  Uiso   1.00
C1125  C     0.38655   0.53142   0.95662   0.00000  Uiso   1.00
C1126  C     0.57393   0.50253   0.97857   0.00000  Uiso   1.00
C1127  C     0.61446   0.50894   0.54485   0.00000  Uiso   1.00
C1128  C     0.37727   0.42535   0.79282   0.00000  Uiso   1.00
C1129  C     0.62232   0.57247   0.70238   0.00000  Uiso   1.00
C1130  C     0.62687   0.41729   0.77938   0.00000  Uiso   1.00
C1131  C     0.37437   0.57330   0.70322   0.00000  Uiso   1.00
C1132  C     0.35543   0.46219   0.76836   0.00000  Uiso   1.00
C1133  C     0.64458   0.53587   0.72660   0.00000  Uiso   1.00
C1134  C     0.64636   0.46006   0.76498   0.00000  Uiso   1.00
C1135  C     0.35392   0.53639   0.72719   0.00000  Uiso   1.00
C1136  C     0.62393   0.49847   0.74688   0.00000  Uiso   1.00
Cu1137 Cu    0.50000   0.54689   0.75000   0.00000  Uiso   1.00
Cu1138 Cu    0.50000   0.45311   0.75000   0.00000  Uiso   1.00
H1139  H     0.39758   0.52204   0.53856   0.00000  Uiso   1.00
H1140  H     0.58640   0.42683   0.92462   0.00000  Uiso   1.00
H1141  H     0.58214   0.41628   0.86671   0.00000  Uiso   1.00
H1142  H     0.57489   0.49485   0.84678   0.00000  Uiso   1.00
H1143  H     0.59985   0.51771   0.89279   0.00000  Uiso   1.00
H1144  H     0.38156   0.43755   0.67711   0.00000  Uiso   1.00
H1145  H     0.34710   0.47378   0.64403   0.00000  Uiso   1.00
H1146  H     0.35173   0.41165   0.63336   0.00000  Uiso   1.00
H1147  H     0.39039   0.44992   0.57675   0.00000  Uiso   1.00
H1148  H     0.42659   0.42477   0.61560   0.00000  Uiso   1.00
H1149  H     0.42594   0.50608   0.65429   0.00000  Uiso   1.00
H1150  H     0.60315   0.50245   0.96252   0.00000  Uiso   1.00
H1151  H     0.39992   0.52956   0.60879   0.00000  Uiso   1.00
H1152  H     0.46802   0.37745   0.68868   0.00000  Uiso   1.00
H1153  H     0.53191   0.62258   0.81136   0.00000  Uiso   1.00
H1154  H     0.53123   0.37597   0.81170   0.00000  Uiso   1.00
H1155  H     0.46889   0.62406   0.68825   0.00000  Uiso   1.00
H1156  H     0.65231   0.45808   0.85972   0.00000  Uiso   1.00
H1157  H     0.65514   0.45567   0.91924   0.00000  Uiso   1.00
H1158  H     0.65272   0.40217   0.88796   0.00000  Uiso   1.00
N1159  N     0.50000   0.61736   0.75000   0.00000  Uiso   1.00
N1160  N     0.39023   0.60282   0.68388   0.00000  Uiso   1.00
N1161  N     0.50000   0.38264   0.75000   0.00000  Uiso   1.00
N1162  N     0.39724   0.51400   0.85617   0.00000  Uiso   1.00
N1163  N     0.60030   0.47231   0.64194   0.00000  Uiso   1.00
N1164  N     0.35502   0.54167   0.94151   0.00000  Uiso   1.00
N1165  N     0.64646   0.51352   0.56080   0.00000  Uiso   1.00
N1166  N     0.39452   0.39607   0.81232   0.00000  Uiso   1.00
N1167  N     0.60466   0.60156   0.68306   0.00000  Uiso   1.00
N1168  N     0.61199   0.38275   0.79055   0.00000  Uiso   1.00
O1169  O     0.43988   0.53958   0.75000   0.00000  Uiso   1.00
O1170  O     0.56012   0.46042   0.75000   0.00000  Uiso   1.00
O1171  O     0.56012   0.53958   0.75001   0.00000  Uiso   1.00
O1172  O     0.43988   0.46042   0.75000   0.00000  Uiso   1.00
O1173  O     0.49999   0.53960   0.68513   0.00000  Uiso   1.00
O1174  O     0.50001   0.46040   0.81487   0.00000  Uiso   1.00
O1175  O     0.50001   0.53960   0.81487   0.00000  Uiso   1.00
O1176  O     0.49999   0.46040   0.68513   0.00000  Uiso   1.00
C1177  C     0.75411   0.50022   0.74990   0.00000  Uiso   1.00
C1178  C     0.70944   0.50022   0.74921   0.00000  Uiso   1.00
C1179  C     0.81569   0.35854   0.71593   0.00000  Uiso   1.00
C1180  C     0.85092   0.64147   0.78410   0.00000  Uiso   1.00
C1181  C     0.85072   0.35771   0.78420   0.00000  Uiso   1.00
C1182  C     0.81590   0.64230   0.71583   0.00000  Uiso   1.00
C1183  C     0.83303   0.50007   0.66467   0.00000  Uiso   1.00
C1184  C     0.83366   0.50003   0.83543   0.00000  Uiso   1.00
C1185  C     0.87103   0.49799   0.90739   0.00000  Uiso   1.00
C1186  C     0.79513   0.50501   0.59324   0.00000  Uiso   1.00
C1187  C     0.83375   0.50087   0.88374   0.00000  Uiso   1.00
C1188  C     0.91258   0.49958   0.74892   0.00000  Uiso   1.00
C1189  C     0.83247   0.50050   0.61651   0.00000  Uiso   1.00
C1190  C     0.79650   0.50829   0.90544   0.00000  Uiso   1.00
C1191  C     0.86974   0.49703   0.59453   0.00000  Uiso   1.00
C1192  C     0.79562   0.51128   0.95235   0.00000  Uiso   1.00
C1193  C     0.87087   0.50203   0.54794   0.00000  Uiso   1.00
C1194  C     0.83311   0.50651   0.97663   0.00000  Uiso   1.00
C1195  C     0.83330   0.50609   0.52377   0.00000  Uiso   1.00
C1196  C     0.87059   0.50202   0.95404   0.00000  Uiso   1.00
C1197  C     0.79580   0.50891   0.54655   0.00000  Uiso   1.00
C1198  C     0.75907   0.51902   0.97638   0.00000  Uiso   1.00
C1199  C     0.75966   0.51671   0.52221   0.00000  Uiso   1.00
C1200  C     0.90795   0.50349   0.52433   0.00000  Uiso   1.00
C1201  C     0.91123   0.49014   0.88308   0.00000  Uiso   1.00
C1202  C     0.92855   0.44044   0.89168   0.00000  Uiso   1.00
C1203  C     0.97505   0.43908   0.88937   0.00000  Uiso   1.00
C1204  C     0.75499   0.50103   0.61827   0.00000  Uiso   1.00
C1205  C     0.73614   0.45259   0.61098   0.00000  Uiso   1.00
C1206  C     0.70193   0.44346   0.64342   0.00000  Uiso   1.00
C1207  C     0.75968   0.51139   0.87820   0.00000  Uiso   1.00
C1208  C     0.90556   0.48354   0.62066   0.00000  Uiso   1.00
C1209  C     0.71989   0.53142   0.95662   0.00000  Uiso   1.00
C1210  C     0.90726   0.50253   0.97857   0.00000  Uiso   1.00
C1211  C     0.94779   0.50894   0.54485   0.00000  Uiso   1.00
C1212  C     0.71060   0.42535   0.79282   0.00000  Uiso   1.00
C1213  C     0.95565   0.57247   0.70238   0.00000  Uiso   1.00
C1214  C     0.96020   0.41729   0.77938   0.00000  Uiso   1.00
C1215  C     0.70771   0.57330   0.70322   0.00000  Uiso   1.00
C1216  C     0.68877   0.46219   0.76836   0.00000  Uiso   1.00
C1217  C     0.97791   0.53587   0.72660   0.00000  Uiso   1.00
C1218  C     0.97970   0.46006   0.76498   0.00000  Uiso   1.00
C1219  C     0.68725   0.53639   0.72719   0.00000  Uiso   1.00
C1220  C     0.95727   0.49847   0.74688   0.00000  Uiso   1.00
Cu1221 Cu    0.83333   0.54689   0.75000   0.00000  Uiso   1.00
Cu1222 Cu    0.83333   0.45311   0.75000   0.00000  Uiso   1.00
H1223  H     0.73092   0.52204   0.53856   0.00000  Uiso   1.00
H1224  H     0.91973   0.42683   0.92462   0.00000  Uiso   1.00
H1225  H     0.91548   0.41628   0.86671   0.00000  Uiso   1.00
H1226  H     0.90823   0.49485   0.84678   0.00000  Uiso   1.00
H1227  H     0.93319   0.51771   0.89279   0.00000  Uiso   1.00
H1228  H     0.71490   0.43755   0.67711   0.00000  Uiso   1.00
H1229  H     0.68043   0.47378   0.64403   0.00000  Uiso   1.00
H1230  H     0.68506   0.41165   0.63336   0.00000  Uiso   1.00
H1231  H     0.72372   0.44992   0.57675   0.00000  Uiso   1.00
H1232  H     0.75992   0.42477   0.61560   0.00000  Uiso   1.00
H1233  H     0.75927   0.50608   0.65429   0.00000  Uiso   1.00
H1234  H     0.93648   0.50245   0.96252   0.00000  Uiso   1.00
H1235  H     0.73326   0.52956   0.60879   0.00000  Uiso   1.00
H1236  H     0.80136   0.37745   0.68868   0.00000  Uiso   1.00
H1237  H     0.86525   0.62258   0.81136   0.00000  Uiso   1.00
H1238  H     0.86456   0.37597   0.81170   0.00000  Uiso   1.00
H1239  H     0.80222   0.62406   0.68825   0.00000  Uiso   1.00
H1240  H     0.98565   0.45808   0.85972   0.00000  Uiso   1.00
H1241  H     0.98848   0.45567   0.91924   0.00000  Uiso   1.00
H1242  H     0.98605   0.40217   0.88796   0.00000  Uiso   1.00
N1243  N     0.83333   0.61736   0.75000   0.00000  Uiso   1.00
N1244  N     0.72356   0.60282   0.68388   0.00000  Uiso   1.00
N1245  N     0.83333   0.38264   0.75000   0.00000  Uiso   1.00
N1246  N     0.73058   0.51400   0.85617   0.00000  Uiso   1.00
N1247  N     0.93363   0.47231   0.64194   0.00000  Uiso   1.00
N1248  N     0.68835   0.54167   0.94151   0.00000  Uiso   1.00
N1249  N     0.97979   0.51352   0.56080   0.00000  Uiso   1.00
N1250  N     0.72785   0.39607   0.81232   0.00000  Uiso   1.00
N1251  N     0.93800   0.60156   0.68306   0.00000  Uiso   1.00
N1252  N     0.94533   0.38275   0.79055   0.00000  Uiso   1.00
O1253  O     0.77321   0.53958   0.75000   0.00000  Uiso   1.00
O1254  O     0.89345   0.46042   0.75000   0.00000  Uiso   1.00
O1255  O     0.89345   0.53958   0.75001   0.00000  Uiso   1.00
O1256  O     0.77321   0.46042   0.75000   0.00000  Uiso   1.00
O1257  O     0.83332   0.53960   0.68513   0.00000  Uiso   1.00
O1258  O     0.83334   0.46040   0.81487   0.00000  Uiso   1.00
O1259  O     0.83334   0.53960   0.81487   0.00000  Uiso   1.00
O1260  O     0.83332   0.46040   0.68513   0.00000  Uiso   1.00
C1261  C     0.08744   0.83356   0.74990   0.00000  Uiso   1.00
C1262  C     0.04278   0.83356   0.74921   0.00000  Uiso   1.00
C1263  C     0.14902   0.69187   0.71593   0.00000  Uiso   1.00
C1264  C     0.18425   0.97481   0.78410   0.00000  Uiso   1.00
C1265  C     0.18405   0.69105   0.78420   0.00000  Uiso   1.00
C1266  C     0.14923   0.97563   0.71583   0.00000  Uiso   1.00
C1267  C     0.16637   0.83341   0.66467   0.00000  Uiso   1.00
C1268  C     0.16699   0.83336   0.83543   0.00000  Uiso   1.00
C1269  C     0.20436   0.83132   0.90739   0.00000  Uiso   1.00
C1270  C     0.12846   0.83835   0.59324   0.00000  Uiso   1.00
C1271  C     0.16708   0.83420   0.88374   0.00000  Uiso   1.00
C1272  C     0.24591   0.83291   0.74892   0.00000  Uiso   1.00
C1273  C     0.16580   0.83383   0.61651   0.00000  Uiso   1.00
C1274  C     0.12983   0.84163   0.90544   0.00000  Uiso   1.00
C1275  C     0.20308   0.83036   0.59453   0.00000  Uiso   1.00
C1276  C     0.12895   0.84462   0.95235   0.00000  Uiso   1.00
C1277  C     0.20421   0.83537   0.54794   0.00000  Uiso   1.00
C1278  C     0.16644   0.83984   0.97663   0.00000  Uiso   1.00
C1279  C     0.16663   0.83942   0.52377   0.00000  Uiso   1.00
C1280  C     0.20392   0.83535   0.95404   0.00000  Uiso   1.00
C1281  C     0.12913   0.84224   0.54655   0.00000  Uiso   1.00
C1282  C     0.09240   0.85235   0.97638   0.00000  Uiso   1.00
C1283  C     0.09300   0.85005   0.52221   0.00000  Uiso   1.00
C1284  C     0.24128   0.83683   0.52433   0.00000  Uiso   1.00
C1285  C     0.24456   0.82348   0.88308   0.00000  Uiso   1.00
C1286  C     0.26189   0.77378   0.89168   0.00000  Uiso   1.00
C1287  C     0.30839   0.77242   0.88937   0.00000  Uiso   1.00
C1288  C     0.08832   0.83437   0.61827   0.00000  Uiso   1.00
C1289  C     0.06947   0.78592   0.61098   0.00000  Uiso   1.00
C1290  C     0.03526   0.77680   0.64342   0.00000  Uiso   1.00
C1291  C     0.09302   0.84473   0.87820   0.00000  Uiso   1.00
C1292  C     0.23889   0.81687   0.62066   0.00000  Uiso   1.00
C1293  C     0.05322   0.86475   0.95662   0.00000  Uiso   1.00
C1294  C     0.24060   0.83586   0.97857   0.00000  Uiso   1.00
C1295  C     0.28112   0.84227   0.54485   0.00000  Uiso   1.00
C1296  C     0.04394   0.75868   0.79282   0.00000  Uiso   1.00
C1297  C     0.28898   0.90580   0.70238   0.00000  Uiso   1.00
C1298  C     0.29353   0.75063   0.77938   0.00000  Uiso   1.00
C1299  C     0.04104   0.90663   0.70322   0.00000  Uiso   1.00
C1300  C     0.02210   0.79552   0.76836   0.00000  Uiso   1.00
C1301  C     0.31125   0.86921   0.72660   0.00000  Uiso   1.00
C1302  C     0.31303   0.79340   0.76498   0.00000  Uiso   1.00
C1303  C     0.02058   0.86972   0.72719   0.00000  Uiso   1.00
C1304  C     0.29060   0.83181   0.74688   0.00000  Uiso   1.00
Cu1305 Cu    0.16667   0.88022   0.75000   0.00000  Uiso   1.00
Cu1306 Cu    0.16667   0.78645   0.75000   0.00000  Uiso   1.00
H1307  H     0.06425   0.85537   0.53856   0.00000  Uiso   1.00
H1308  H     0.25307   0.76016   0.92462   0.00000  Uiso   1.00
H1309  H     0.24881   0.74962   0.86671   0.00000  Uiso   1.00
H1310  H     0.24156   0.82818   0.84678   0.00000  Uiso   1.00
H1311  H     0.26652   0.85104   0.89279   0.00000  Uiso   1.00
H1312  H     0.04823   0.77088   0.67711   0.00000  Uiso   1.00
H1313  H     0.01377   0.80711   0.64403   0.00000  Uiso   1.00
H1314  H     0.01840   0.74498   0.63336   0.00000  Uiso   1.00
H1315  H     0.05705   0.78325   0.57675   0.00000  Uiso   1.00
H1316  H     0.09326   0.75810   0.61560   0.00000  Uiso   1.00
H1317  H     0.09260   0.83941   0.65429   0.00000  Uiso   1.00
H1318  H     0.26982   0.83579   0.96252   0.00000  Uiso   1.00
H1319  H     0.06659   0.86289   0.60879   0.00000  Uiso   1.00
H1320  H     0.13469   0.71078   0.68868   0.00000  Uiso   1.00
H1321  H     0.19858   0.95591   0.81136   0.00000  Uiso   1.00
H1322  H     0.19790   0.70930   0.81170   0.00000  Uiso   1.00
H1323  H     0.13556   0.95739   0.68825   0.00000  Uiso   1.00
H1324  H     0.31898   0.79141   0.85972   0.00000  Uiso   1.00
H1325  H     0.32181   0.78900   0.91924   0.00000  Uiso   1.00
H1326  H     0.31939   0.73551   0.88796   0.00000  Uiso   1.00
N1327  N     0.16667   0.95069   0.75000   0.00000  Uiso   1.00
N1328  N     0.05689   0.93615   0.68388   0.00000  Uiso   1.00
N1329  N     0.16667   0.71598   0.75000   0.00000  Uiso   1.00
N1330  N     0.06391   0.84734   0.85617   0.00000  Uiso   1.00
N1331  N     0.26697   0.80565   0.64194   0.00000  Uiso   1.00
N1332  N     0.02169   0.87501   0.94151   0.00000  Uiso   1.00
N1333  N     0.31313   0.84685   0.56080   0.00000  Uiso   1.00
N1334  N     0.06118   0.72940   0.81232   0.00000  Uiso   1.00
N1335  N     0.27133   0.93490   0.68306   0.00000  Uiso   1.00
N1336  N     0.27866   0.71609   0.79055   0.00000  Uiso   1.00
O1337  O     0.10655   0.87291   0.75000   0.00000  Uiso   1.00
O1338  O     0.22679   0.79375   0.75000   0.00000  Uiso   1.00
O1339  O     0.22679   0.87291   0.75001   0.00000  Uiso   1.00
O1340  O     0.10655   0.79375   0.75000   0.00000  Uiso   1.00
O1341  O     0.16666   0.87293   0.68513   0.00000  Uiso   1.00
O1342  O     0.16668   0.79373   0.81487   0.00000  Uiso   1.00
O1343  O     0.16668   0.87293   0.81487   0.00000  Uiso   1.00
O1344  O     0.16666   0.79373   0.68513   0.00000  Uiso   1.00
C1345  C     0.42077   0.83356   0.74990   0.00000  Uiso   1.00
C1346  C     0.37611   0.83356   0.74921   0.00000  Uiso   1.00
C1347  C     0.48236   0.69187   0.71593   0.00000  Uiso   1.00
C1348  C     0.51759   0.97481   0.78410   0.00000  Uiso   1.00
C1349  C     0.51739   0.69105   0.78420   0.00000  Uiso   1.00
C1350  C     0.48257   0.97563   0.71583   0.00000  Uiso   1.00
C1351  C     0.49970   0.83341   0.66467   0.00000  Uiso   1.00
C1352  C     0.50032   0.83336   0.83543   0.00000  Uiso   1.00
C1353  C     0.53770   0.83132   0.90739   0.00000  Uiso   1.00
C1354  C     0.46180   0.83835   0.59324   0.00000  Uiso   1.00
C1355  C     0.50042   0.83420   0.88374   0.00000  Uiso   1.00
C1356  C     0.57924   0.83291   0.74892   0.00000  Uiso   1.00
C1357  C     0.49914   0.83383   0.61651   0.00000  Uiso   1.00
C1358  C     0.46316   0.84163   0.90544   0.00000  Uiso   1.00
C1359  C     0.53641   0.83036   0.59453   0.00000  Uiso   1.00
C1360  C     0.46228   0.84462   0.95235   0.00000  Uiso   1.00
C1361  C     0.53754   0.83537   0.54794   0.00000  Uiso   1.00
C1362  C     0.49977   0.83984   0.97663   0.00000  Uiso   1.00
C1363  C     0.49996   0.83942   0.52377   0.00000  Uiso   1.00
C1364  C     0.53726   0.83535   0.95404   0.00000  Uiso   1.00
C1365  C     0.46246   0.84224   0.54655   0.00000  Uiso   1.00
C1366  C     0.42574   0.85235   0.97638   0.00000  Uiso   1.00
C1367  C     0.42633   0.85005   0.52221   0.00000  Uiso   1.00
C1368  C     0.57462   0.83683   0.52433   0.00000  Uiso   1.00
C1369  C     0.57790   0.82348   0.88308   0.00000  Uiso   1.00
C1370  C     0.59522   0.77378   0.89168   0.00000  Uiso   1.00
C1371  C     0.64172   0.77242   0.88937   0.00000  Uiso   1.00
C1372  C     0.42165   0.83437   0.61827   0.00000  Uiso   1.00
C1373  C     0.40281   0.78592   0.61098   0.00000  Uiso   1.00
C1374  C     0.36860   0.77680   0.64342   0.00000  Uiso   1.00
C1375  C     0.42635   0.84473   0.87820   0.00000  Uiso   1.00
C1376  C     0.57222   0.81687   0.62066   0.00000  Uiso   1.00
C1377  C     0.38655   0.86475   0.95662   0.00000  Uiso   1.00
C1378  C     0.57393   0.83586   0.97857   0.00000  Uiso   1.00
C1379  C     0.61446   0.84227   0.54485   0.00000  Uiso   1.00
C1380  C     0.37727   0.75868   0.79282   0.00000  Uiso   1.00
C1381  C     0.62232   0.90580   0.70238   0.00000  Uiso   1.00
C1382  C     0.62687   0.75063   0.77938   0.00000  Uiso   1.00
C1383  C     0.37437   0.90663   0.70322   0.00000  Uiso   1.00
C1384  C     0.35543   0.79552   0.76836   0.00000  Uiso   1.00
C1385  C     0.64458   0.86921   0.72660   0.00000  Uiso   1.00
C1386  C     0.64636   0.79340   0.76498   0.00000  Uiso   1.00
C1387  C     0.35392   0.86972   0.72719   0.00000  Uiso   1.00
C1388  C     0.62393   0.83181   0.74688   0.00000  Uiso   1.00
Cu1389 Cu    0.50000   0.88022   0.75000   0.00000  Uiso   1.00
Cu1390 Cu    0.50000   0.78645   0.75000   0.00000  Uiso   1.00
H1391  H     0.39758   0.85537   0.53856   0.00000  Uiso   1.00
H1392  H     0.58640   0.76016   0.92462   0.00000  Uiso   1.00
H1393  H     0.58214   0.74962   0.86671   0.00000  Uiso   1.00
H1394  H     0.57489   0.82818   0.84678   0.00000  Uiso   1.00
H1395  H     0.59985   0.85104   0.89279   0.00000  Uiso   1.00
H1396  H     0.38156   0.77088   0.67711   0.00000  Uiso   1.00
H1397  H     0.34710   0.80711   0.64403   0.00000  Uiso   1.00
H1398  H     0.35173   0.74498   0.63336   0.00000  Uiso   1.00
H1399  H     0.39039   0.78325   0.57675   0.00000  Uiso   1.00
H1400  H     0.42659   0.75810   0.61560   0.00000  Uiso   1.00
H1401  H     0.42594   0.83941   0.65429   0.00000  Uiso   1.00
H1402  H     0.60315   0.83579   0.96252   0.00000  Uiso   1.00
H1403  H     0.39992   0.86289   0.60879   0.00000  Uiso   1.00
H1404  H     0.46802   0.71078   0.68868   0.00000  Uiso   1.00
H1405  H     0.53191   0.95591   0.81136   0.00000  Uiso   1.00
H1406  H     0.53123   0.70930   0.81170   0.00000  Uiso   1.00
H1407  H     0.46889   0.95739   0.68825   0.00000  Uiso   1.00
H1408  H     0.65231   0.79141   0.85972   0.00000  Uiso   1.00
H1409  H     0.65514   0.78900   0.91924   0.00000  Uiso   1.00
H1410  H     0.65272   0.73551   0.88796   0.00000  Uiso   1.00
N1411  N     0.50000   0.95069   0.75000   0.00000  Uiso   1.00
N1412  N     0.39023   0.93615   0.68388   0.00000  Uiso   1.00
N1413  N     0.50000   0.71598   0.75000   0.00000  Uiso   1.00
N1414  N     0.39724   0.84734   0.85617   0.00000  Uiso   1.00
N1415  N     0.60030   0.80565   0.64194   0.00000  Uiso   1.00
N1416  N     0.35502   0.87501   0.94151   0.00000  Uiso   1.00
N1417  N     0.64646   0.84685   0.56080   0.00000  Uiso   1.00
N1418  N     0.39452   0.72940   0.81232   0.00000  Uiso   1.00
N1419  N     0.60466   0.93490   0.68306   0.00000  Uiso   1.00
N1420  N     0.61199   0.71609   0.79055   0.00000  Uiso   1.00
O1421  O     0.43988   0.87291   0.75000   0.00000  Uiso   1.00
O1422  O     0.56012   0.79375   0.75000   0.00000  Uiso   1.00
O1423  O     0.56012   0.87291   0.75001   0.00000  Uiso   1.00
O1424  O     0.43988   0.79375   0.75000   0.00000  Uiso   1.00
O1425  O     0.49999   0.87293   0.68513   0.00000  Uiso   1.00
O1426  O     0.50001   0.79373   0.81487   0.00000  Uiso   1.00
O1427  O     0.50001   0.87293   0.81487   0.00000  Uiso   1.00
O1428  O     0.49999   0.79373   0.68513   0.00000  Uiso   1.00
C1429  C     0.75411   0.83356   0.74990   0.00000  Uiso   1.00
C1430  C     0.70944   0.83356   0.74921   0.00000  Uiso   1.00
C1431  C     0.81569   0.69187   0.71593   0.00000  Uiso   1.00
C1432  C     0.85092   0.97481   0.78410   0.00000  Uiso   1.00
C1433  C     0.85072   0.69105   0.78420   0.00000  Uiso   1.00
C1434  C     0.81590   0.97563   0.71583   0.00000  Uiso   1.00
C1435  C     0.83303   0.83341   0.66467   0.00000  Uiso   1.00
C1436  C     0.83366   0.83336   0.83543   0.00000  Uiso   1.00
C1437  C     0.87103   0.83132   0.90739   0.00000  Uiso   1.00
C1438  C     0.79513   0.83835   0.59324   0.00000  Uiso   1.00
C1439  C     0.83375   0.83420   0.88374   0.00000  Uiso   1.00
C1440  C     0.91258   0.83291   0.74892   0.00000  Uiso   1.00
C1441  C     0.83247   0.83383   0.61651   0.00000  Uiso   1.00
C1442  C     0.79650   0.84163   0.90544   0.00000  Uiso   1.00
C1443  C     0.86974   0.83036   0.59453   0.00000  Uiso   1.00
C1444  C     0.79562   0.84462   0.95235   0.00000  Uiso   1.00
C1445  C     0.87087   0.83537   0.54794   0.00000  Uiso   1.00
C1446  C     0.83311   0.83984   0.97663   0.00000  Uiso   1.00
C1447  C     0.83330   0.83942   0.52377   0.00000  Uiso   1.00
C1448  C     0.87059   0.83535   0.95404   0.00000  Uiso   1.00
C1449  C     0.79580   0.84224   0.54655   0.00000  Uiso   1.00
C1450  C     0.75907   0.85235   0.97638   0.00000  Uiso   1.00
C1451  C     0.75966   0.85005   0.52221   0.00000  Uiso   1.00
C1452  C     0.90795   0.83683   0.52433   0.00000  Uiso   1.00
C1453  C     0.91123   0.82348   0.88308   0.00000  Uiso   1.00
C1454  C     0.92855   0.77378   0.89168   0.00000  Uiso   1.00
C1455  C     0.97505   0.77242   0.88937   0.00000  Uiso   1.00
C1456  C     0.75499   0.83437   0.61827   0.00000  Uiso   1.00
C1457  C     0.73614   0.78592   0.61098   0.00000  Uiso   1.00
C1458  C     0.70193   0.77680   0.64342   0.00000  Uiso   1.00
C1459  C     0.75968   0.84473   0.87820   0.00000  Uiso   1.00
C1460  C     0.90556   0.81687   0.62066   0.00000  Uiso   1.00
C1461  C     0.71989   0.86475   0.95662   0.00000  Uiso   1.00
C1462  C     0.90726   0.83586   0.97857   0.00000  Uiso   1.00
C1463  C     0.94779   0.84227   0.54485   0.00000  Uiso   1.00
C1464  C     0.71060   0.75868   0.79282   0.00000  Uiso   1.00
C1465  C     0.95565   0.90580   0.70238   0.00000  Uiso   1.00
C1466  C     0.96020   0.75063   0.77938   0.00000  Uiso   1.00
C1467  C     0.70771   0.90663   0.70322   0.00000  Uiso   1.00
C1468  C     0.68877   0.79552   0.76836   0.00000  Uiso   1.00
C1469  C     0.97791   0.86921   0.72660   0.00000  Uiso   1.00
C1470  C     0.97970   0.79340   0.76498   0.00000  Uiso   1.00
C1471  C     0.68725   0.86972   0.72719   0.00000  Uiso   1.00
C1472  C     0.95727   0.83181   0.74688   0.00000  Uiso   1.00
Cu1473 Cu    0.83333   0.88022   0.75000   0.00000  Uiso   1.00
Cu1474 Cu    0.83333   0.78645   0.75000   0.00000  Uiso   1.00
H1475  H     0.73092   0.85537   0.53856   0.00000  Uiso   1.00
H1476  H     0.91973   0.76016   0.92462   0.00000  Uiso   1.00
H1477  H     0.91548   0.74962   0.86671   0.00000  Uiso   1.00
H1478  H     0.90823   0.82818   0.84678   0.00000  Uiso   1.00
H1479  H     0.93319   0.85104   0.89279   0.00000  Uiso   1.00
H1480  H     0.71490   0.77088   0.67711   0.00000  Uiso   1.00
H1481  H     0.68043   0.80711   0.64403   0.00000  Uiso   1.00
H1482  H     0.68506   0.74498   0.63336   0.00000  Uiso   1.00
H1483  H     0.72372   0.78325   0.57675   0.00000  Uiso   1.00
H1484  H     0.75992   0.75810   0.61560   0.00000  Uiso   1.00
H1485  H     0.75927   0.83941   0.65429   0.00000  Uiso   1.00
H1486  H     0.93648   0.83579   0.96252   0.00000  Uiso   1.00
H1487  H     0.73326   0.86289   0.60879   0.00000  Uiso   1.00
H1488  H     0.80136   0.71078   0.68868   0.00000  Uiso   1.00
H1489  H     0.86525   0.95591   0.81136   0.00000  Uiso   1.00
H1490  H     0.86456   0.70930   0.81170   0.00000  Uiso   1.00
H1491  H     0.80222   0.95739   0.68825   0.00000  Uiso   1.00
H1492  H     0.98565   0.79141   0.85972   0.00000  Uiso   1.00
H1493  H     0.98848   0.78900   0.91924   0.00000  Uiso   1.00
H1494  H     0.98605   0.73551   0.88796   0.00000  Uiso   1.00
N1495  N     0.83333   0.95069   0.75000   0.00000  Uiso   1.00
N1496  N     0.72356   0.93615   0.68388   0.00000  Uiso   1.00
N1497  N     0.83333   0.71598   0.75000   0.00000  Uiso   1.00
N1498  N     0.73058   0.84734   0.85617   0.00000  Uiso   1.00
N1499  N     0.93363   0.80565   0.64194   0.00000  Uiso   1.00
N1500  N     0.68835   0.87501   0.94151   0.00000  Uiso   1.00
N1501  N     0.97979   0.84685   0.56080   0.00000  Uiso   1.00
N1502  N     0.72785   0.72940   0.81232   0.00000  Uiso   1.00
N1503  N     0.93800   0.93490   0.68306   0.00000  Uiso   1.00
N1504  N     0.94533   0.71609   0.79055   0.00000  Uiso   1.00
O1505  O     0.77321   0.87291   0.75000   0.00000  Uiso   1.00
O1506  O     0.89345   0.79375   0.75000   0.00000  Uiso   1.00
O1507  O     0.89345   0.87291   0.75001   0.00000  Uiso   1.00
O1508  O     0.77321   0.79375   0.75000   0.00000  Uiso   1.00
O1509  O     0.83332   0.87293   0.68513   0.00000  Uiso   1.00
O1510  O     0.83334   0.79373   0.81487   0.00000  Uiso   1.00
O1511  O     0.83334   0.87293   0.81487   0.00000  Uiso   1.00
O1512  O     0.83332   0.79373   0.68513   0.00000  Uiso   1.00
loop_
_geom_bond_atom_site_label_1
_geom_bond_atom_site_label_2
_geom_bond_distance
_geom_bond_site_symmetry_2
_ccdc_geom_bond_type
C1     O77     1.293   .     A
C1     C2      1.464   .     S
C1     O80     1.290   .     A
C2     C43     1.414   .     A
C2     C40     1.414   .     A
C3     H60     1.081   .     S
C3     N69     1.367   .     A
C3     C510    1.415   1_545 S
C4     H61     1.081   .     S
C4     N67     1.367   .     A
C4     C257    1.415   .     S
C5     N69     1.366   .     A
C5     H62     1.081   .     S
C5     C508    1.415   1_545 S
C6     H63     1.080   .     S
C6     N67     1.367   .     A
C6     C255    1.415   .     S
C7     O84     1.288   .     A
C7     O81     1.289   .     A
C7     C13     1.456   .     S
C8     O83     1.287   .     A
C8     O82     1.293   .     A
C8     C11     1.461   .     S
C9     C25     1.532   .     S
C9     C20     1.416   .     A
C9     C11     1.408   .     A
C10    C21     1.416   .     A
C10    C28     1.532   .     S
C10    C13     1.407   .     A
C11    C14     1.408   .     A
C12    O79     1.296   .     A
C12    O78     1.289   .     A
C12    C44     1.467   .     S
C13    C15     1.402   .     A
C14    C31     1.453   .     S
C14    C16     1.422   .     A
C15    C32     1.453   .     S
C15    C17     1.416   .     A
C16    C22     1.425   .     A
C16    C18     1.427   .     A
C17    C24     1.419   .     A
C17    C19     1.426   .     A
C18    C20     1.419   .     A
C18    C775    1.425   .     S
C19    C21     1.419   .     A
C19    C774    1.425   1_554 S
C20    C34     1.404   .     A
C21    C23     1.400   .     A
C22    C33     1.448   .     S
C22    C779    1.387   .     S
C23    H47     1.079   .     S
C23    C778    1.387   1_554 S
C24    C35     1.448   .     S
C24    C790    1.384   1_554 S
C25    H50     1.108   .     S
C25    C26     1.541   .     S
C25    H51     1.111   .     S
C26    C27     1.527   .     S
C26    H48     1.111   .     S
C26    H49     1.110   .     S
C27    H65     1.109   .     S
C27    H66     1.110   .     S
C27    H64     1.108   .     S
C28    C29     1.537   .     S
C28    H57     1.106   .     S
C28    H59     1.109   .     S
C29    H55     1.110   .     S
C29    C30     1.524   .     S
C29    H56     1.112   .     S
C30    H54     1.111   .     S
C30    H53     1.109   .     S
C30    H52     1.109   .     S
C31    N70     1.157   .     T
C32    N71     1.157   .     T
C33    N72     1.158   .     T
C34    H58     1.080   .     S
C34    C780    1.384   .     S
C35    N73     1.158   .     T
C36    C40     1.457   .     S
C36    N74     1.158   .     T
C37    N75     1.158   .     T
C37    C41     1.455   .     S
C38    N76     1.157   .     T
C38    C42     1.454   .     S
C39    N68     1.157   .     T
C39    C43     1.453   .     S
C40    C210    1.394   1_455 S
C41    C44     1.414   .     A
C41    C127    1.399   .     S
C42    C44     1.416   .     A
C42    C124    1.394   .     S
C43    C209    1.399   1_455 S
Cu45   Cu46    2.677   .     S
Cu45   N67     2.012   .     S
Cu45   O83     1.971   .     S
Cu45   O79     1.979   .     S
Cu45   O81     1.973   .     S
Cu45   O77     1.984   .     S
Cu46   N69     2.012   .     S
Cu46   O82     1.973   .     S
Cu46   O78     1.984   .     S
Cu46   O84     1.971   .     S
Cu46   O80     1.979   .     S
C85    O161    1.293   .     A
C85    C86     1.464   .     S
C85    O164    1.290   .     A
C86    C127    1.414   .     A
C86    C124    1.414   .     A
C87    H144    1.081   .     S
C87    N153    1.367   .     A
C87    C594    1.415   1_545 S
C88    H145    1.081   .     S
C88    N151    1.367   .     A
C88    C341    1.415   .     S
C89    N153    1.366   .     A
C89    H146    1.081   .     S
C89    C592    1.415   1_545 S
C90    H147    1.080   .     S
C90    N151    1.367   .     A
C90    C339    1.415   .     S
C91    O168    1.288   .     A
C91    O165    1.289   .     A
C91    C97     1.456   .     S
C92    O167    1.287   .     A
C92    O166    1.293   .     A
C92    C95     1.461   .     S
C93    C109    1.532   .     S
C93    C104    1.416   .     A
C93    C95     1.408   .     A
C94    C105    1.416   .     A
C94    C112    1.532   .     S
C94    C97     1.407   .     A
C95    C98     1.408   .     A
C96    O163    1.296   .     A
C96    O162    1.289   .     A
C96    C128    1.467   .     S
C97    C99     1.402   .     A
C98    C115    1.453   .     S
C98    C100    1.422   .     A
C99    C116    1.453   .     S
C99    C101    1.416   .     A
C100   C106    1.425   .     A
C100   C102    1.427   .     A
C101   C108    1.419   .     A
C101   C103    1.426   .     A
C102   C104    1.419   .     A
C102   C859    1.425   .     S
C103   C105    1.419   .     A
C103   C858    1.425   1_554 S
C104   C118    1.404   .     A
C105   C107    1.400   .     A
C106   C117    1.448   .     S
C106   C863    1.387   .     S
C107   H131    1.079   .     S
C107   C862    1.387   1_554 S
C108   C119    1.448   .     S
C108   C874    1.384   1_554 S
C109   H134    1.108   .     S
C109   C110    1.541   .     S
C109   H135    1.111   .     S
C110   C111    1.527   .     S
C110   H132    1.111   .     S
C110   H133    1.110   .     S
C111   H149    1.109   .     S
C111   H150    1.110   .     S
C111   H148    1.108   .     S
C112   C113    1.537   .     S
C112   H141    1.106   .     S
C112   H143    1.109   .     S
C113   H139    1.110   .     S
C113   C114    1.524   .     S
C113   H140    1.112   .     S
C114   H138    1.111   .     S
C114   H137    1.109   .     S
C114   H136    1.109   .     S
C115   N154    1.157   .     T
C116   N155    1.157   .     T
C117   N156    1.158   .     T
C118   H142    1.080   .     S
C118   C864    1.384   .     S
C119   N157    1.158   .     T
C120   C124    1.457   .     S
C120   N158    1.158   .     T
C121   N159    1.158   .     T
C121   C125    1.455   .     S
C122   N160    1.157   .     T
C122   C126    1.454   .     S
C123   N152    1.157   .     T
C123   C127    1.453   .     S
C125   C128    1.414   .     A
C125   C211    1.399   .     S
C126   C128    1.416   .     A
C126   C208    1.394   .     S
Cu129  Cu130   2.677   .     S
Cu129  N151    2.012   .     S
Cu129  O167    1.971   .     S
Cu129  O163    1.979   .     S
Cu129  O165    1.973   .     S
Cu129  O161    1.984   .     S
Cu130  N153    2.012   .     S
Cu130  O166    1.973   .     S
Cu130  O162    1.984   .     S
Cu130  O168    1.971   .     S
Cu130  O164    1.979   .     S
C169   O245    1.293   .     A
C169   C170    1.464   .     S
C169   O248    1.290   .     A
C170   C211    1.414   .     A
C170   C208    1.414   .     A
C171   H228    1.081   .     S
C171   N237    1.367   .     A
C171   C678    1.415   1_545 S
C172   H229    1.081   .     S
C172   N235    1.367   .     A
C172   C425    1.415   .     S
C173   N237    1.366   .     A
C173   H230    1.081   .     S
C173   C676    1.415   1_545 S
C174   H231    1.080   .     S
C174   N235    1.367   .     A
C174   C423    1.415   .     S
C175   O252    1.288   .     A
C175   O249    1.289   .     A
C175   C181    1.456   .     S
C176   O251    1.287   .     A
C176   O250    1.293   .     A
C176   C179    1.461   .     S
C177   C193    1.532   .     S
C177   C188    1.416   .     A
C177   C179    1.408   .     A
C178   C189    1.416   .     A
C178   C196    1.532   .     S
C178   C181    1.407   .     A
C179   C182    1.408   .     A
C180   O247    1.296   .     A
C180   O246    1.289   .     A
C180   C212    1.467   .     S
C181   C183    1.402   .     A
C182   C199    1.453   .     S
C182   C184    1.422   .     A
C183   C200    1.453   .     S
C183   C185    1.416   .     A
C184   C190    1.425   .     A
C184   C186    1.427   .     A
C185   C192    1.419   .     A
C185   C187    1.426   .     A
C186   C188    1.419   .     A
C186   C943    1.425   .     S
C187   C189    1.419   .     A
C187   C942    1.425   1_554 S
C188   C202    1.404   .     A
C189   C191    1.400   .     A
C190   C201    1.448   .     S
C190   C947    1.387   .     S
C191   H215    1.079   .     S
C191   C946    1.387   1_554 S
C192   C203    1.448   .     S
C192   C958    1.384   1_554 S
C193   H218    1.108   .     S
C193   C194    1.541   .     S
C193   H219    1.111   .     S
C194   C195    1.527   .     S
C194   H216    1.111   .     S
C194   H217    1.110   .     S
C195   H233    1.109   .     S
C195   H234    1.110   .     S
C195   H232    1.108   .     S
C196   C197    1.537   .     S
C196   H225    1.106   .     S
C196   H227    1.109   .     S
C197   H223    1.110   .     S
C197   C198    1.524   .     S
C197   H224    1.112   .     S
C198   H222    1.111   .     S
C198   H221    1.109   .     S
C198   H220    1.109   .     S
C199   N238    1.157   .     T
C200   N239    1.157   .     T
C201   N240    1.158   .     T
C202   H226    1.080   .     S
C202   C948    1.384   .     S
C203   N241    1.158   .     T
C204   C208    1.457   .     S
C204   N242    1.158   .     T
C205   N243    1.158   .     T
C205   C209    1.455   .     S
C206   N244    1.157   .     T
C206   C210    1.454   .     S
C207   N236    1.157   .     T
C207   C211    1.453   .     S
C209   C212    1.414   .     A
C209   C43     1.399   1_655 S
C210   C212    1.416   .     A
C210   C40     1.394   1_655 S
Cu213  Cu214   2.677   .     S
Cu213  N235    2.012   .     S
Cu213  O251    1.971   .     S
Cu213  O247    1.979   .     S
Cu213  O249    1.973   .     S
Cu213  O245    1.984   .     S
Cu214  N237    2.012   .     S
Cu214  O250    1.973   .     S
Cu214  O246    1.984   .     S
Cu214  O252    1.971   .     S
Cu214  O248    1.979   .     S
C253   O329    1.293   .     A
C253   C254    1.464   .     S
C253   O332    1.290   .     A
C254   C295    1.414   .     A
C254   C292    1.414   .     A
C255   H312    1.081   .     S
C255   N321    1.367   .     A
C256   H313    1.081   .     S
C256   N319    1.367   .     A
C256   C509    1.415   .     S
C257   N321    1.366   .     A
C257   H314    1.081   .     S
C258   H315    1.080   .     S
C258   N319    1.367   .     A
C258   C507    1.415   .     S
C259   O336    1.288   .     A
C259   O333    1.289   .     A
C259   C265    1.456   .     S
C260   O335    1.287   .     A
C260   O334    1.293   .     A
C260   C263    1.461   .     S
C261   C277    1.532   .     S
C261   C272    1.416   .     A
C261   C263    1.408   .     A
C262   C273    1.416   .     A
C262   C280    1.532   .     S
C262   C265    1.407   .     A
C263   C266    1.408   .     A
C264   O331    1.296   .     A
C264   O330    1.289   .     A
C264   C296    1.467   .     S
C265   C267    1.402   .     A
C266   C283    1.453   .     S
C266   C268    1.422   .     A
C267   C284    1.453   .     S
C267   C269    1.416   .     A
C268   C274    1.425   .     A
C268   C270    1.427   .     A
C269   C276    1.419   .     A
C269   C271    1.426   .     A
C270   C272    1.419   .     A
C270   C1027   1.425   .     S
C271   C273    1.419   .     A
C271   C1026   1.425   1_554 S
C272   C286    1.404   .     A
C273   C275    1.400   .     A
C274   C285    1.448   .     S
C274   C1031   1.387   .     S
C275   H299    1.079   .     S
C275   C1030   1.387   1_554 S
C276   C287    1.448   .     S
C276   C1042   1.384   1_554 S
C277   H302    1.108   .     S
C277   C278    1.541   .     S
C277   H303    1.111   .     S
C278   C279    1.527   .     S
C278   H300    1.111   .     S
C278   H301    1.110   .     S
C279   H317    1.109   .     S
C279   H318    1.110   .     S
C279   H316    1.108   .     S
C280   C281    1.537   .     S
C280   H309    1.106   .     S
C280   H311    1.109   .     S
C281   H307    1.110   .     S
C281   C282    1.524   .     S
C281   H308    1.112   .     S
C282   H306    1.111   .     S
C282   H305    1.109   .     S
C282   H304    1.109   .     S
C283   N322    1.157   .     T
C284   N323    1.157   .     T
C285   N324    1.158   .     T
C286   H310    1.080   .     S
C286   C1032   1.384   .     S
C287   N325    1.158   .     T
C288   C292    1.457   .     S
C288   N326    1.158   .     T
C289   N327    1.158   .     T
C289   C293    1.455   .     S
C290   N328    1.157   .     T
C290   C294    1.454   .     S
C291   N320    1.157   .     T
C291   C295    1.453   .     S
C292   C462    1.394   1_455 S
C293   C296    1.414   .     A
C293   C379    1.399   .     S
C294   C296    1.416   .     A
C294   C376    1.394   .     S
C295   C461    1.399   1_455 S
Cu297  Cu298   2.677   .     S
Cu297  N319    2.012   .     S
Cu297  O335    1.971   .     S
Cu297  O331    1.979   .     S
Cu297  O333    1.973   .     S
Cu297  O329    1.984   .     S
Cu298  N321    2.012   .     S
Cu298  O334    1.973   .     S
Cu298  O330    1.984   .     S
Cu298  O336    1.971   .     S
Cu298  O332    1.979   .     S
C337   O413    1.293   .     A
C337   C338    1.464   .     S
C337   O416    1.290   .     A
C338   C379    1.414   .     A
C338   C376    1.414   .     A
C339   H396    1.081   .     S
C339   N405    1.367   .     A
C340   H397    1.081   .     S
C340   N403    1.367   .     A
C340   C593    1.415   .     S
C341   N405    1.366   .     A
C341   H398    1.081   .     S
C342   H399    1.080   .     S
C342   N403    1.367   .     A
C342   C591    1.415   .     S
C343   O420    1.288   .     A
C343   O417    1.289   .     A
C343   C349    1.456   .     S
C344   O419    1.287   .     A
C344   O418    1.293   .     A
C344   C347    1.461   .     S
C345   C361    1.532   .     S
C345   C356    1.416   .     A
C345   C347    1.408   .     A
C346   C357    1.416   .     A
C346   C364    1.532   .     S
C346   C349    1.407   .     A
C347   C350    1.408   .     A
C348   O415    1.296   .     A
C348   O414    1.289   .     A
C348   C380    1.467   .     S
C349   C351    1.402   .     A
C350   C367    1.453   .     S
C350   C352    1.422   .     A
C351   C368    1.453   .     S
C351   C353    1.416   .     A
C352   C358    1.425   .     A
C352   C354    1.427   .     A
C353   C360    1.419   .     A
C353   C355    1.426   .     A
C354   C356    1.419   .     A
C354   C1111   1.425   .     S
C355   C357    1.419   .     A
C355   C1110   1.425   1_554 S
C356   C370    1.404   .     A
C357   C359    1.400   .     A
C358   C369    1.448   .     S
C358   C1115   1.387   .     S
C359   H383    1.079   .     S
C359   C1114   1.387   1_554 S
C360   C371    1.448   .     S
C360   C1126   1.384   1_554 S
C361   H386    1.108   .     S
C361   C362    1.541   .     S
C361   H387    1.111   .     S
C362   C363    1.527   .     S
C362   H384    1.111   .     S
C362   H385    1.110   .     S
C363   H401    1.109   .     S
C363   H402    1.110   .     S
C363   H400    1.108   .     S
C364   C365    1.537   .     S
C364   H393    1.106   .     S
C364   H395    1.109   .     S
C365   H391    1.110   .     S
C365   C366    1.524   .     S
C365   H392    1.112   .     S
C366   H390    1.111   .     S
C366   H389    1.109   .     S
C366   H388    1.109   .     S
C367   N406    1.157   .     T
C368   N407    1.157   .     T
C369   N408    1.158   .     T
C370   H394    1.080   .     S
C370   C1116   1.384   .     S
C371   N409    1.158   .     T
C372   C376    1.457   .     S
C372   N410    1.158   .     T
C373   N411    1.158   .     T
C373   C377    1.455   .     S
C374   N412    1.157   .     T
C374   C378    1.454   .     S
C375   N404    1.157   .     T
C375   C379    1.453   .     S
C377   C380    1.414   .     A
C377   C463    1.399   .     S
C378   C380    1.416   .     A
C378   C460    1.394   .     S
Cu381  Cu382   2.677   .     S
Cu381  N403    2.012   .     S
Cu381  O419    1.971   .     S
Cu381  O415    1.979   .     S
Cu381  O417    1.973   .     S
Cu381  O413    1.984   .     S
Cu382  N405    2.012   .     S
Cu382  O418    1.973   .     S
Cu382  O414    1.984   .     S
Cu382  O420    1.971   .     S
Cu382  O416    1.979   .     S
C421   O497    1.293   .     A
C421   C422    1.464   .     S
C421   O500    1.290   .     A
C422   C463    1.414   .     A
C422   C460    1.414   .     A
C423   H480    1.081   .     S
C423   N489    1.367   .     A
C424   H481    1.081   .     S
C424   N487    1.367   .     A
C424   C677    1.415   .     S
C425   N489    1.366   .     A
C425   H482    1.081   .     S
C426   H483    1.080   .     S
C426   N487    1.367   .     A
C426   C675    1.415   .     S
C427   O504    1.288   .     A
C427   O501    1.289   .     A
C427   C433    1.456   .     S
C428   O503    1.287   .     A
C428   O502    1.293   .     A
C428   C431    1.461   .     S
C429   C445    1.532   .     S
C429   C440    1.416   .     A
C429   C431    1.408   .     A
C430   C441    1.416   .     A
C430   C448    1.532   .     S
C430   C433    1.407   .     A
C431   C434    1.408   .     A
C432   O499    1.296   .     A
C432   O498    1.289   .     A
C432   C464    1.467   .     S
C433   C435    1.402   .     A
C434   C451    1.453   .     S
C434   C436    1.422   .     A
C435   C452    1.453   .     S
C435   C437    1.416   .     A
C436   C442    1.425   .     A
C436   C438    1.427   .     A
C437   C444    1.419   .     A
C437   C439    1.426   .     A
C438   C440    1.419   .     A
C438   C1195   1.425   .     S
C439   C441    1.419   .     A
C439   C1194   1.425   1_554 S
C440   C454    1.404   .     A
C441   C443    1.400   .     A
C442   C453    1.448   .     S
C442   C1199   1.387   .     S
C443   H467    1.079   .     S
C443   C1198   1.387   1_554 S
C444   C455    1.448   .     S
C444   C1210   1.384   1_554 S
C445   H470    1.108   .     S
C445   C446    1.541   .     S
C445   H471    1.111   .     S
C446   C447    1.527   .     S
C446   H468    1.111   .     S
C446   H469    1.110   .     S
C447   H485    1.109   .     S
C447   H486    1.110   .     S
C447   H484    1.108   .     S
C448   C449    1.537   .     S
C448   H477    1.106   .     S
C448   H479    1.109   .     S
C449   H475    1.110   .     S
C449   C450    1.524   .     S
C449   H476    1.112   .     S
C450   H474    1.111   .     S
C450   H473    1.109   .     S
C450   H472    1.109   .     S
C451   N490    1.157   .     T
C452   N491    1.157   .     T
C453   N492    1.158   .     T
C454   H478    1.080   .     S
C454   C1200   1.384   .     S
C455   N493    1.158   .     T
C456   C460    1.457   .     S
C456   N494    1.158   .     T
C457   N495    1.158   .     T
C457   C461    1.455   .     S
C458   N496    1.157   .     T
C458   C462    1.454   .     S
C459   N488    1.157   .     T
C459   C463    1.453   .     S
C461   C464    1.414   .     A
C461   C295    1.399   1_655 S
C462   C464    1.416   .     A
C462   C292    1.394   1_655 S
Cu465  Cu466   2.677   .     S
Cu465  N487    2.012   .     S
Cu465  O503    1.971   .     S
Cu465  O499    1.979   .     S
Cu465  O501    1.973   .     S
Cu465  O497    1.984   .     S
Cu466  N489    2.012   .     S
Cu466  O502    1.973   .     S
Cu466  O498    1.984   .     S
Cu466  O504    1.971   .     S
Cu466  O500    1.979   .     S
C505   O581    1.293   .     A
C505   C506    1.464   .     S
C505   O584    1.290   .     A
C506   C547    1.414   .     A
C506   C544    1.414   .     A
C507   H564    1.081   .     S
C507   N573    1.367   .     A
C508   H565    1.081   .     S
C508   N571    1.367   .     A
C508   C5      1.415   1_565 S
C509   N573    1.366   .     A
C509   H566    1.081   .     S
C510   H567    1.080   .     S
C510   N571    1.367   .     A
C510   C3      1.415   1_565 S
C511   O588    1.288   .     A
C511   O585    1.289   .     A
C511   C517    1.456   .     S
C512   O587    1.287   .     A
C512   O586    1.293   .     A
C512   C515    1.461   .     S
C513   C529    1.532   .     S
C513   C524    1.416   .     A
C513   C515    1.408   .     A
C514   C525    1.416   .     A
C514   C532    1.532   .     S
C514   C517    1.407   .     A
C515   C518    1.408   .     A
C516   O583    1.296   .     A
C516   O582    1.289   .     A
C516   C548    1.467   .     S
C517   C519    1.402   .     A
C518   C535    1.453   .     S
C518   C520    1.422   .     A
C519   C536    1.453   .     S
C519   C521    1.416   .     A
C520   C526    1.425   .     A
C520   C522    1.427   .     A
C521   C528    1.419   .     A
C521   C523    1.426   .     A
C522   C524    1.419   .     A
C522   C1279   1.425   .     S
C523   C525    1.419   .     A
C523   C1278   1.425   1_554 S
C524   C538    1.404   .     A
C525   C527    1.400   .     A
C526   C537    1.448   .     S
C526   C1283   1.387   .     S
C527   H551    1.079   .     S
C527   C1282   1.387   1_554 S
C528   C539    1.448   .     S
C528   C1294   1.384   1_554 S
C529   H554    1.108   .     S
C529   C530    1.541   .     S
C529   H555    1.111   .     S
C530   C531    1.527   .     S
C530   H552    1.111   .     S
C530   H553    1.110   .     S
C531   H569    1.109   .     S
C531   H570    1.110   .     S
C531   H568    1.108   .     S
C532   C533    1.537   .     S
C532   H561    1.106   .     S
C532   H563    1.109   .     S
C533   H559    1.110   .     S
C533   C534    1.524   .     S
C533   H560    1.112   .     S
C534   H558    1.111   .     S
C534   H557    1.109   .     S
C534   H556    1.109   .     S
C535   N574    1.157   .     T
C536   N575    1.157   .     T
C537   N576    1.158   .     T
C538   H562    1.080   .     S
C538   C1284   1.384   .     S
C539   N577    1.158   .     T
C540   C544    1.457   .     S
C540   N578    1.158   .     T
C541   N579    1.158   .     T
C541   C545    1.455   .     S
C542   N580    1.157   .     T
C542   C546    1.454   .     S
C543   N572    1.157   .     T
C543   C547    1.453   .     S
C544   C714    1.394   1_455 S
C545   C548    1.414   .     A
C545   C631    1.399   .     S
C546   C548    1.416   .     A
C546   C628    1.394   .     S
C547   C713    1.399   1_455 S
Cu549  Cu550   2.677   .     S
Cu549  N571    2.012   .     S
Cu549  O587    1.971   .     S
Cu549  O583    1.979   .     S
Cu549  O585    1.973   .     S
Cu549  O581    1.984   .     S
Cu550  N573    2.012   .     S
Cu550  O586    1.973   .     S
Cu550  O582    1.984   .     S
Cu550  O588    1.971   .     S
Cu550  O584    1.979   .     S
C589   O665    1.293   .     A
C589   C590    1.464   .     S
C589   O668    1.290   .     A
C590   C631    1.414   .     A
C590   C628    1.414   .     A
C591   H648    1.081   .     S
C591   N657    1.367   .     A
C592   H649    1.081   .     S
C592   N655    1.367   .     A
C592   C89     1.415   1_565 S
C593   N657    1.366   .     A
C593   H650    1.081   .     S
C594   H651    1.080   .     S
C594   N655    1.367   .     A
C594   C87     1.415   1_565 S
C595   O672    1.288   .     A
C595   O669    1.289   .     A
C595   C601    1.456   .     S
C596   O671    1.287   .     A
C596   O670    1.293   .     A
C596   C599    1.461   .     S
C597   C613    1.532   .     S
C597   C608    1.416   .     A
C597   C599    1.408   .     A
C598   C609    1.416   .     A
C598   C616    1.532   .     S
C598   C601    1.407   .     A
C599   C602    1.408   .     A
C600   O667    1.296   .     A
C600   O666    1.289   .     A
C600   C632    1.467   .     S
C601   C603    1.402   .     A
C602   C619    1.453   .     S
C602   C604    1.422   .     A
C603   C620    1.453   .     S
C603   C605    1.416   .     A
C604   C610    1.425   .     A
C604   C606    1.427   .     A
C605   C612    1.419   .     A
C605   C607    1.426   .     A
C606   C608    1.419   .     A
C606   C1363   1.425   .     S
C607   C609    1.419   .     A
C607   C1362   1.425   1_554 S
C608   C622    1.404   .     A
C609   C611    1.400   .     A
C610   C621    1.448   .     S
C610   C1367   1.387   .     S
C611   H635    1.079   .     S
C611   C1366   1.387   1_554 S
C612   C623    1.448   .     S
C612   C1378   1.384   1_554 S
C613   H638    1.108   .     S
C613   C614    1.541   .     S
C613   H639    1.111   .     S
C614   C615    1.527   .     S
C614   H636    1.111   .     S
C614   H637    1.110   .     S
C615   H653    1.109   .     S
C615   H654    1.110   .     S
C615   H652    1.108   .     S
C616   C617    1.537   .     S
C616   H645    1.106   .     S
C616   H647    1.109   .     S
C617   H643    1.110   .     S
C617   C618    1.524   .     S
C617   H644    1.112   .     S
C618   H642    1.111   .     S
C618   H641    1.109   .     S
C618   H640    1.109   .     S
C619   N658    1.157   .     T
C620   N659    1.157   .     T
C621   N660    1.158   .     T
C622   H646    1.080   .     S
C622   C1368   1.384   .     S
C623   N661    1.158   .     T
C624   C628    1.457   .     S
C624   N662    1.158   .     T
C625   N663    1.158   .     T
C625   C629    1.455   .     S
C626   N664    1.157   .     T
C626   C630    1.454   .     S
C627   N656    1.157   .     T
C627   C631    1.453   .     S
C629   C632    1.414   .     A
C629   C715    1.399   .     S
C630   C632    1.416   .     A
C630   C712    1.394   .     S
Cu633  Cu634   2.677   .     S
Cu633  N655    2.012   .     S
Cu633  O671    1.971   .     S
Cu633  O667    1.979   .     S
Cu633  O669    1.973   .     S
Cu633  O665    1.984   .     S
Cu634  N657    2.012   .     S
Cu634  O670    1.973   .     S
Cu634  O666    1.984   .     S
Cu634  O672    1.971   .     S
Cu634  O668    1.979   .     S
C673   O749    1.293   .     A
C673   C674    1.464   .     S
C673   O752    1.290   .     A
C674   C715    1.414   .     A
C674   C712    1.414   .     A
C675   H732    1.081   .     S
C675   N741    1.367   .     A
C676   H733    1.081   .     S
C676   N739    1.367   .     A
C676   C173    1.415   1_565 S
C677   N741    1.366   .     A
C677   H734    1.081   .     S
C678   H735    1.080   .     S
C678   N739    1.367   .     A
C678   C171    1.415   1_565 S
C679   O756    1.288   .     A
C679   O753    1.289   .     A
C679   C685    1.456   .     S
C680   O755    1.287   .     A
C680   O754    1.293   .     A
C680   C683    1.461   .     S
C681   C697    1.532   .     S
C681   C692    1.416   .     A
C681   C683    1.408   .     A
C682   C693    1.416   .     A
C682   C700    1.532   .     S
C682   C685    1.407   .     A
C683   C686    1.408   .     A
C684   O751    1.296   .     A
C684   O750    1.289   .     A
C684   C716    1.467   .     S
C685   C687    1.402   .     A
C686   C703    1.453   .     S
C686   C688    1.422   .     A
C687   C704    1.453   .     S
C687   C689    1.416   .     A
C688   C694    1.425   .     A
C688   C690    1.427   .     A
C689   C696    1.419   .     A
C689   C691    1.426   .     A
C690   C692    1.419   .     A
C690   C1447   1.425   .     S
C691   C693    1.419   .     A
C691   C1446   1.425   1_554 S
C692   C706    1.404   .     A
C693   C695    1.400   .     A
C694   C705    1.448   .     S
C694   C1451   1.387   .     S
C695   H719    1.079   .     S
C695   C1450   1.387   1_554 S
C696   C707    1.448   .     S
C696   C1462   1.384   1_554 S
C697   H722    1.108   .     S
C697   C698    1.541   .     S
C697   H723    1.111   .     S
C698   C699    1.527   .     S
C698   H720    1.111   .     S
C698   H721    1.110   .     S
C699   H737    1.109   .     S
C699   H738    1.110   .     S
C699   H736    1.108   .     S
C700   C701    1.537   .     S
C700   H729    1.106   .     S
C700   H731    1.109   .     S
C701   H727    1.110   .     S
C701   C702    1.524   .     S
C701   H728    1.112   .     S
C702   H726    1.111   .     S
C702   H725    1.109   .     S
C702   H724    1.109   .     S
C703   N742    1.157   .     T
C704   N743    1.157   .     T
C705   N744    1.158   .     T
C706   H730    1.080   .     S
C706   C1452   1.384   .     S
C707   N745    1.158   .     T
C708   C712    1.457   .     S
C708   N746    1.158   .     T
C709   N747    1.158   .     T
C709   C713    1.455   .     S
C710   N748    1.157   .     T
C710   C714    1.454   .     S
C711   N740    1.157   .     T
C711   C715    1.453   .     S
C713   C716    1.414   .     A
C713   C547    1.399   1_655 S
C714   C716    1.416   .     A
C714   C544    1.394   1_655 S
Cu717  Cu718   2.677   .     S
Cu717  N739    2.012   .     S
Cu717  O755    1.971   .     S
Cu717  O751    1.979   .     S
Cu717  O753    1.973   .     S
Cu717  O749    1.984   .     S
Cu718  N741    2.012   .     S
Cu718  O754    1.973   .     S
Cu718  O750    1.984   .     S
Cu718  O756    1.971   .     S
Cu718  O752    1.979   .     S
C757   O833    1.293   .     A
C757   C758    1.464   .     S
C757   O836    1.290   .     A
C758   C799    1.414   .     A
C758   C796    1.414   .     A
C759   H816    1.081   .     S
C759   N825    1.367   .     A
C759   C1266   1.415   1_545 S
C760   H817    1.081   .     S
C760   N823    1.367   .     A
C760   C1013   1.415   .     S
C761   N825    1.366   .     A
C761   H818    1.081   .     S
C761   C1264   1.415   1_545 S
C762   H819    1.080   .     S
C762   N823    1.367   .     A
C762   C1011   1.415   .     S
C763   O840    1.288   .     A
C763   O837    1.289   .     A
C763   C769    1.456   .     S
C764   O839    1.287   .     A
C764   O838    1.293   .     A
C764   C767    1.461   .     S
C765   C781    1.532   .     S
C765   C776    1.416   .     A
C765   C767    1.408   .     A
C766   C777    1.416   .     A
C766   C784    1.532   .     S
C766   C769    1.407   .     A
C767   C770    1.408   .     A
C768   O835    1.296   .     A
C768   O834    1.289   .     A
C768   C800    1.467   .     S
C769   C771    1.402   .     A
C770   C787    1.453   .     S
C770   C772    1.422   .     A
C771   C788    1.453   .     S
C771   C773    1.416   .     A
C772   C778    1.425   .     A
C772   C774    1.427   .     A
C773   C780    1.419   .     A
C773   C775    1.426   .     A
C774   C776    1.419   .     A
C774   C19     1.425   1_556 S
C775   C777    1.419   .     A
C776   C790    1.404   .     A
C777   C779    1.400   .     A
C778   C789    1.448   .     S
C778   C23     1.387   1_556 S
C779   H803    1.079   .     S
C780   C791    1.448   .     S
C781   H806    1.108   .     S
C781   C782    1.541   .     S
C781   H807    1.111   .     S
C782   C783    1.527   .     S
C782   H804    1.111   .     S
C782   H805    1.110   .     S
C783   H821    1.109   .     S
C783   H822    1.110   .     S
C783   H820    1.108   .     S
C784   C785    1.537   .     S
C784   H813    1.106   .     S
C784   H815    1.109   .     S
C785   H811    1.110   .     S
C785   C786    1.524   .     S
C785   H812    1.112   .     S
C786   H810    1.111   .     S
C786   H809    1.109   .     S
C786   H808    1.109   .     S
C787   N826    1.157   .     T
C788   N827    1.157   .     T
C789   N828    1.158   .     T
C790   H814    1.080   .     S
C790   C24     1.384   1_556 S
C791   N829    1.158   .     T
C792   C796    1.457   .     S
C792   N830    1.158   .     T
C793   N831    1.158   .     T
C793   C797    1.455   .     S
C794   N832    1.157   .     T
C794   C798    1.454   .     S
C795   N824    1.157   .     T
C795   C799    1.453   .     S
C796   C966    1.394   1_455 S
C797   C800    1.414   .     A
C797   C883    1.399   .     S
C798   C800    1.416   .     A
C798   C880    1.394   .     S
C799   C965    1.399   1_455 S
Cu801  Cu802   2.677   .     S
Cu801  N823    2.012   .     S
Cu801  O839    1.971   .     S
Cu801  O835    1.979   .     S
Cu801  O837    1.973   .     S
Cu801  O833    1.984   .     S
Cu802  N825    2.012   .     S
Cu802  O838    1.973   .     S
Cu802  O834    1.984   .     S
Cu802  O840    1.971   .     S
Cu802  O836    1.979   .     S
C841   O917    1.293   .     A
C841   C842    1.464   .     S
C841   O920    1.290   .     A
C842   C883    1.414   .     A
C842   C880    1.414   .     A
C843   H900    1.081   .     S
C843   N909    1.367   .     A
C843   C1350   1.415   1_545 S
C844   H901    1.081   .     S
C844   N907    1.367   .     A
C844   C1097   1.415   .     S
C845   N909    1.366   .     A
C845   H902    1.081   .     S
C845   C1348   1.415   1_545 S
C846   H903    1.080   .     S
C846   N907    1.367   .     A
C846   C1095   1.415   .     S
C847   O924    1.288   .     A
C847   O921    1.289   .     A
C847   C853    1.456   .     S
C848   O923    1.287   .     A
C848   O922    1.293   .     A
C848   C851    1.461   .     S
C849   C865    1.532   .     S
C849   C860    1.416   .     A
C849   C851    1.408   .     A
C850   C861    1.416   .     A
C850   C868    1.532   .     S
C850   C853    1.407   .     A
C851   C854    1.408   .     A
C852   O919    1.296   .     A
C852   O918    1.289   .     A
C852   C884    1.467   .     S
C853   C855    1.402   .     A
C854   C871    1.453   .     S
C854   C856    1.422   .     A
C855   C872    1.453   .     S
C855   C857    1.416   .     A
C856   C862    1.425   .     A
C856   C858    1.427   .     A
C857   C864    1.419   .     A
C857   C859    1.426   .     A
C858   C860    1.419   .     A
C858   C103    1.425   1_556 S
C859   C861    1.419   .     A
C860   C874    1.404   .     A
C861   C863    1.400   .     A
C862   C873    1.448   .     S
C862   C107    1.387   1_556 S
C863   H887    1.079   .     S
C864   C875    1.448   .     S
C865   H890    1.108   .     S
C865   C866    1.541   .     S
C865   H891    1.111   .     S
C866   C867    1.527   .     S
C866   H888    1.111   .     S
C866   H889    1.110   .     S
C867   H905    1.109   .     S
C867   H906    1.110   .     S
C867   H904    1.108   .     S
C868   C869    1.537   .     S
C868   H897    1.106   .     S
C868   H899    1.109   .     S
C869   H895    1.110   .     S
C869   C870    1.524   .     S
C869   H896    1.112   .     S
C870   H894    1.111   .     S
C870   H893    1.109   .     S
C870   H892    1.109   .     S
C871   N910    1.157   .     T
C872   N911    1.157   .     T
C873   N912    1.158   .     T
C874   H898    1.080   .     S
C874   C108    1.384   1_556 S
C875   N913    1.158   .     T
C876   C880    1.457   .     S
C876   N914    1.158   .     T
C877   N915    1.158   .     T
C877   C881    1.455   .     S
C878   N916    1.157   .     T
C878   C882    1.454   .     S
C879   N908    1.157   .     T
C879   C883    1.453   .     S
C881   C884    1.414   .     A
C881   C967    1.399   .     S
C882   C884    1.416   .     A
C882   C964    1.394   .     S
Cu885  Cu886   2.677   .     S
Cu885  N907    2.012   .     S
Cu885  O923    1.971   .     S
Cu885  O919    1.979   .     S
Cu885  O921    1.973   .     S
Cu885  O917    1.984   .     S
Cu886  N909    2.012   .     S
Cu886  O922    1.973   .     S
Cu886  O918    1.984   .     S
Cu886  O924    1.971   .     S
Cu886  O920    1.979   .     S
C925   O1001   1.293   .     A
C925   C926    1.464   .     S
C925   O1004   1.290   .     A
C926   C967    1.414   .     A
C926   C964    1.414   .     A
C927   H984    1.081   .     S
C927   N993    1.367   .     A
C927   C1434   1.415   1_545 S
C928   H985    1.081   .     S
C928   N991    1.367   .     A
C928   C1181   1.415   .     S
C929   N993    1.366   .     A
C929   H986    1.081   .     S
C929   C1432   1.415   1_545 S
C930   H987    1.080   .     S
C930   N991    1.367   .     A
C930   C1179   1.415   .     S
C931   O1008   1.288   .     A
C931   O1005   1.289   .     A
C931   C937    1.456   .     S
C932   O1007   1.287   .     A
C932   O1006   1.293   .     A
C932   C935    1.461   .     S
C933   C949    1.532   .     S
C933   C944    1.416   .     A
C933   C935    1.408   .     A
C934   C945    1.416   .     A
C934   C952    1.532   .     S
C934   C937    1.407   .     A
C935   C938    1.408   .     A
C936   O1003   1.296   .     A
C936   O1002   1.289   .     A
C936   C968    1.467   .     S
C937   C939    1.402   .     A
C938   C955    1.453   .     S
C938   C940    1.422   .     A
C939   C956    1.453   .     S
C939   C941    1.416   .     A
C940   C946    1.425   .     A
C940   C942    1.427   .     A
C941   C948    1.419   .     A
C941   C943    1.426   .     A
C942   C944    1.419   .     A
C942   C187    1.425   1_556 S
C943   C945    1.419   .     A
C944   C958    1.404   .     A
C945   C947    1.400   .     A
C946   C957    1.448   .     S
C946   C191    1.387   1_556 S
C947   H971    1.079   .     S
C948   C959    1.448   .     S
C949   H974    1.108   .     S
C949   C950    1.541   .     S
C949   H975    1.111   .     S
C950   C951    1.527   .     S
C950   H972    1.111   .     S
C950   H973    1.110   .     S
C951   H989    1.109   .     S
C951   H990    1.110   .     S
C951   H988    1.108   .     S
C952   C953    1.537   .     S
C952   H981    1.106   .     S
C952   H983    1.109   .     S
C953   H979    1.110   .     S
C953   C954    1.524   .     S
C953   H980    1.112   .     S
C954   H978    1.111   .     S
C954   H977    1.109   .     S
C954   H976    1.109   .     S
C955   N994    1.157   .     T
C956   N995    1.157   .     T
C957   N996    1.158   .     T
C958   H982    1.080   .     S
C958   C192    1.384   1_556 S
C959   N997    1.158   .     T
C960   C964    1.457   .     S
C960   N998    1.158   .     T
C961   N999    1.158   .     T
C961   C965    1.455   .     S
C962   N1000   1.157   .     T
C962   C966    1.454   .     S
C963   N992    1.157   .     T
C963   C967    1.453   .     S
C965   C968    1.414   .     A
C965   C799    1.399   1_655 S
C966   C968    1.416   .     A
C966   C796    1.394   1_655 S
Cu969  Cu970   2.677   .     S
Cu969  N991    2.012   .     S
Cu969  O1007   1.971   .     S
Cu969  O1003   1.979   .     S
Cu969  O1005   1.973   .     S
Cu969  O1001   1.984   .     S
Cu970  N993    2.012   .     S
Cu970  O1006   1.973   .     S
Cu970  O1002   1.984   .     S
Cu970  O1008   1.971   .     S
Cu970  O1004   1.979   .     S
C1009  O1085   1.293   .     A
C1009  C1010   1.464   .     S
C1009  O1088   1.290   .     A
C1010  C1051   1.414   .     A
C1010  C1048   1.414   .     A
C1011  H1068   1.081   .     S
C1011  N1077   1.367   .     A
C1012  H1069   1.081   .     S
C1012  N1075   1.367   .     A
C1012  C1265   1.415   .     S
C1013  N1077   1.366   .     A
C1013  H1070   1.081   .     S
C1014  H1071   1.080   .     S
C1014  N1075   1.367   .     A
C1014  C1263   1.415   .     S
C1015  O1092   1.288   .     A
C1015  O1089   1.289   .     A
C1015  C1021   1.456   .     S
C1016  O1091   1.287   .     A
C1016  O1090   1.293   .     A
C1016  C1019   1.461   .     S
C1017  C1033   1.532   .     S
C1017  C1028   1.416   .     A
C1017  C1019   1.408   .     A
C1018  C1029   1.416   .     A
C1018  C1036   1.532   .     S
C1018  C1021   1.407   .     A
C1019  C1022   1.408   .     A
C1020  O1087   1.296   .     A
C1020  O1086   1.289   .     A
C1020  C1052   1.467   .     S
C1021  C1023   1.402   .     A
C1022  C1039   1.453   .     S
C1022  C1024   1.422   .     A
C1023  C1040   1.453   .     S
C1023  C1025   1.416   .     A
C1024  C1030   1.425   .     A
C1024  C1026   1.427   .     A
C1025  C1032   1.419   .     A
C1025  C1027   1.426   .     A
C1026  C1028   1.419   .     A
C1026  C271    1.425   1_556 S
C1027  C1029   1.419   .     A
C1028  C1042   1.404   .     A
C1029  C1031   1.400   .     A
C1030  C1041   1.448   .     S
C1030  C275    1.387   1_556 S
C1031  H1055   1.079   .     S
C1032  C1043   1.448   .     S
C1033  H1058   1.108   .     S
C1033  C1034   1.541   .     S
C1033  H1059   1.111   .     S
C1034  C1035   1.527   .     S
C1034  H1056   1.111   .     S
C1034  H1057   1.110   .     S
C1035  H1073   1.109   .     S
C1035  H1074   1.110   .     S
C1035  H1072   1.108   .     S
C1036  C1037   1.537   .     S
C1036  H1065   1.106   .     S
C1036  H1067   1.109   .     S
C1037  H1063   1.110   .     S
C1037  C1038   1.524   .     S
C1037  H1064   1.112   .     S
C1038  H1062   1.111   .     S
C1038  H1061   1.109   .     S
C1038  H1060   1.109   .     S
C1039  N1078   1.157   .     T
C1040  N1079   1.157   .     T
C1041  N1080   1.158   .     T
C1042  H1066   1.080   .     S
C1042  C276    1.384   1_556 S
C1043  N1081   1.158   .     T
C1044  C1048   1.457   .     S
C1044  N1082   1.158   .     T
C1045  N1083   1.158   .     T
C1045  C1049   1.455   .     S
C1046  N1084   1.157   .     T
C1046  C1050   1.454   .     S
C1047  N1076   1.157   .     T
C1047  C1051   1.453   .     S
C1048  C1218   1.394   1_455 S
C1049  C1052   1.414   .     A
C1049  C1135   1.399   .     S
C1050  C1052   1.416   .     A
C1050  C1132   1.394   .     S
C1051  C1217   1.399   1_455 S
Cu1053 Cu1054  2.677   .     S
Cu1053 N1075   2.012   .     S
Cu1053 O1091   1.971   .     S
Cu1053 O1087   1.979   .     S
Cu1053 O1089   1.973   .     S
Cu1053 O1085   1.984   .     S
Cu1054 N1077   2.012   .     S
Cu1054 O1090   1.973   .     S
Cu1054 O1086   1.984   .     S
Cu1054 O1092   1.971   .     S
Cu1054 O1088   1.979   .     S
C1093  O1169   1.293   .     A
C1093  C1094   1.464   .     S
C1093  O1172   1.290   .     A
C1094  C1135   1.414   .     A
C1094  C1132   1.414   .     A
C1095  H1152   1.081   .     S
C1095  N1161   1.367   .     A
C1096  H1153   1.081   .     S
C1096  N1159   1.367   .     A
C1096  C1349   1.415   .     S
C1097  N1161   1.366   .     A
C1097  H1154   1.081   .     S
C1098  H1155   1.080   .     S
C1098  N1159   1.367   .     A
C1098  C1347   1.415   .     S
C1099  O1176   1.288   .     A
C1099  O1173   1.289   .     A
C1099  C1105   1.456   .     S
C1100  O1175   1.287   .     A
C1100  O1174   1.293   .     A
C1100  C1103   1.461   .     S
C1101  C1117   1.532   .     S
C1101  C1112   1.416   .     A
C1101  C1103   1.408   .     A
C1102  C1113   1.416   .     A
C1102  C1120   1.532   .     S
C1102  C1105   1.407   .     A
C1103  C1106   1.408   .     A
C1104  O1171   1.296   .     A
C1104  O1170   1.289   .     A
C1104  C1136   1.467   .     S
C1105  C1107   1.402   .     A
C1106  C1123   1.453   .     S
C1106  C1108   1.422   .     A
C1107  C1124   1.453   .     S
C1107  C1109   1.416   .     A
C1108  C1114   1.425   .     A
C1108  C1110   1.427   .     A
C1109  C1116   1.419   .     A
C1109  C1111   1.426   .     A
C1110  C1112   1.419   .     A
C1110  C355    1.425   1_556 S
C1111  C1113   1.419   .     A
C1112  C1126   1.404   .     A
C1113  C1115   1.400   .     A
C1114  C1125   1.448   .     S
C1114  C359    1.387   1_556 S
C1115  H1139   1.079   .     S
C1116  C1127   1.448   .     S
C1117  H1142   1.108   .     S
C1117  C1118   1.541   .     S
C1117  H1143   1.111   .     S
C1118  C1119   1.527   .     S
C1118  H1140   1.111   .     S
C1118  H1141   1.110   .     S
C1119  H1157   1.109   .     S
C1119  H1158   1.110   .     S
C1119  H1156   1.108   .     S
C1120  C1121   1.537   .     S
C1120  H1149   1.106   .     S
C1120  H1151   1.109   .     S
C1121  H1147   1.110   .     S
C1121  C1122   1.524   .     S
C1121  H1148   1.112   .     S
C1122  H1146   1.111   .     S
C1122  H1145   1.109   .     S
C1122  H1144   1.109   .     S
C1123  N1162   1.157   .     T
C1124  N1163   1.157   .     T
C1125  N1164   1.158   .     T
C1126  H1150   1.080   .     S
C1126  C360    1.384   1_556 S
C1127  N1165   1.158   .     T
C1128  C1132   1.457   .     S
C1128  N1166   1.158   .     T
C1129  N1167   1.158   .     T
C1129  C1133   1.455   .     S
C1130  N1168   1.157   .     T
C1130  C1134   1.454   .     S
C1131  N1160   1.157   .     T
C1131  C1135   1.453   .     S
C1133  C1136   1.414   .     A
C1133  C1219   1.399   .     S
C1134  C1136   1.416   .     A
C1134  C1216   1.394   .     S
Cu1137 Cu1138  2.677   .     S
Cu1137 N1159   2.012   .     S
Cu1137 O1175   1.971   .     S
Cu1137 O1171   1.979   .     S
Cu1137 O1173   1.973   .     S
Cu1137 O1169   1.984   .     S
Cu1138 N1161   2.012   .     S
Cu1138 O1174   1.973   .     S
Cu1138 O1170   1.984   .     S
Cu1138 O1176   1.971   .     S
Cu1138 O1172   1.979   .     S
C1177  O1253   1.293   .     A
C1177  C1178   1.464   .     S
C1177  O1256   1.290   .     A
C1178  C1219   1.414   .     A
C1178  C1216   1.414   .     A
C1179  H1236   1.081   .     S
C1179  N1245   1.367   .     A
C1180  H1237   1.081   .     S
C1180  N1243   1.367   .     A
C1180  C1433   1.415   .     S
C1181  N1245   1.366   .     A
C1181  H1238   1.081   .     S
C1182  H1239   1.080   .     S
C1182  N1243   1.367   .     A
C1182  C1431   1.415   .     S
C1183  O1260   1.288   .     A
C1183  O1257   1.289   .     A
C1183  C1189   1.456   .     S
C1184  O1259   1.287   .     A
C1184  O1258   1.293   .     A
C1184  C1187   1.461   .     S
C1185  C1201   1.532   .     S
C1185  C1196   1.416   .     A
C1185  C1187   1.408   .     A
C1186  C1197   1.416   .     A
C1186  C1204   1.532   .     S
C1186  C1189   1.407   .     A
C1187  C1190   1.408   .     A
C1188  O1255   1.296   .     A
C1188  O1254   1.289   .     A
C1188  C1220   1.467   .     S
C1189  C1191   1.402   .     A
C1190  C1207   1.453   .     S
C1190  C1192   1.422   .     A
C1191  C1208   1.453   .     S
C1191  C1193   1.416   .     A
C1192  C1198   1.425   .     A
C1192  C1194   1.427   .     A
C1193  C1200   1.419   .     A
C1193  C1195   1.426   .     A
C1194  C1196   1.419   .     A
C1194  C439    1.425   1_556 S
C1195  C1197   1.419   .     A
C1196  C1210   1.404   .     A
C1197  C1199   1.400   .     A
C1198  C1209   1.448   .     S
C1198  C443    1.387   1_556 S
C1199  H1223   1.079   .     S
C1200  C1211   1.448   .     S
C1201  H1226   1.108   .     S
C1201  C1202   1.541   .     S
C1201  H1227   1.111   .     S
C1202  C1203   1.527   .     S
C1202  H1224   1.111   .     S
C1202  H1225   1.110   .     S
C1203  H1241   1.109   .     S
C1203  H1242   1.110   .     S
C1203  H1240   1.108   .     S
C1204  C1205   1.537   .     S
C1204  H1233   1.106   .     S
C1204  H1235   1.109   .     S
C1205  H1231   1.110   .     S
C1205  C1206   1.524   .     S
C1205  H1232   1.112   .     S
C1206  H1230   1.111   .     S
C1206  H1229   1.109   .     S
C1206  H1228   1.109   .     S
C1207  N1246   1.157   .     T
C1208  N1247   1.157   .     T
C1209  N1248   1.158   .     T
C1210  H1234   1.080   .     S
C1210  C444    1.384   1_556 S
C1211  N1249   1.158   .     T
C1212  C1216   1.457   .     S
C1212  N1250   1.158   .     T
C1213  N1251   1.158   .     T
C1213  C1217   1.455   .     S
C1214  N1252   1.157   .     T
C1214  C1218   1.454   .     S
C1215  N1244   1.157   .     T
C1215  C1219   1.453   .     S
C1217  C1220   1.414   .     A
C1217  C1051   1.399   1_655 S
C1218  C1220   1.416   .     A
C1218  C1048   1.394   1_655 S
Cu1221 Cu1222  2.677   .     S
Cu1221 N1243   2.012   .     S
Cu1221 O1259   1.971   .     S
Cu1221 O1255   1.979   .     S
Cu1221 O1257   1.973   .     S
Cu1221 O1253   1.984   .     S
Cu1222 N1245   2.012   .     S
Cu1222 O1258   1.973   .     S
Cu1222 O1254   1.984   .     S
Cu1222 O1260   1.971   .     S
Cu1222 O1256   1.979   .     S
C1261  O1337   1.293   .     A
C1261  C1262   1.464   .     S
C1261  O1340   1.290   .     A
C1262  C1303   1.414   .     A
C1262  C1300   1.414   .     A
C1263  H1320   1.081   .     S
C1263  N1329   1.367   .     A
C1264  H1321   1.081   .     S
C1264  N1327   1.367   .     A
C1264  C761    1.415   1_565 S
C1265  N1329   1.366   .     A
C1265  H1322   1.081   .     S
C1266  H1323   1.080   .     S
C1266  N1327   1.367   .     A
C1266  C759    1.415   1_565 S
C1267  O1344   1.288   .     A
C1267  O1341   1.289   .     A
C1267  C1273   1.456   .     S
C1268  O1343   1.287   .     A
C1268  O1342   1.293   .     A
C1268  C1271   1.461   .     S
C1269  C1285   1.532   .     S
C1269  C1280   1.416   .     A
C1269  C1271   1.408   .     A
C1270  C1281   1.416   .     A
C1270  C1288   1.532   .     S
C1270  C1273   1.407   .     A
C1271  C1274   1.408   .     A
C1272  O1339   1.296   .     A
C1272  O1338   1.289   .     A
C1272  C1304   1.467   .     S
C1273  C1275   1.402   .     A
C1274  C1291   1.453   .     S
C1274  C1276   1.422   .     A
C1275  C1292   1.453   .     S
C1275  C1277   1.416   .     A
C1276  C1282   1.425   .     A
C1276  C1278   1.427   .     A
C1277  C1284   1.419   .     A
C1277  C1279   1.426   .     A
C1278  C1280   1.419   .     A
C1278  C523    1.425   1_556 S
C1279  C1281   1.419   .     A
C1280  C1294   1.404   .     A
C1281  C1283   1.400   .     A
C1282  C1293   1.448   .     S
C1282  C527    1.387   1_556 S
C1283  H1307   1.079   .     S
C1284  C1295   1.448   .     S
C1285  H1310   1.108   .     S
C1285  C1286   1.541   .     S
C1285  H1311   1.111   .     S
C1286  C1287   1.527   .     S
C1286  H1308   1.111   .     S
C1286  H1309   1.110   .     S
C1287  H1325   1.109   .     S
C1287  H1326   1.110   .     S
C1287  H1324   1.108   .     S
C1288  C1289   1.537   .     S
C1288  H1317   1.106   .     S
C1288  H1319   1.109   .     S
C1289  H1315   1.110   .     S
C1289  C1290   1.524   .     S
C1289  H1316   1.112   .     S
C1290  H1314   1.111   .     S
C1290  H1313   1.109   .     S
C1290  H1312   1.109   .     S
C1291  N1330   1.157   .     T
C1292  N1331   1.157   .     T
C1293  N1332   1.158   .     T
C1294  H1318   1.080   .     S
C1294  C528    1.384   1_556 S
C1295  N1333   1.158   .     T
C1296  C1300   1.457   .     S
C1296  N1334   1.158   .     T
C1297  N1335   1.158   .     T
C1297  C1301   1.455   .     S
C1298  N1336   1.157   .     T
C1298  C1302   1.454   .     S
C1299  N1328   1.157   .     T
C1299  C1303   1.453   .     S
C1300  C1470   1.394   1_455 S
C1301  C1304   1.414   .     A
C1301  C1387   1.399   .     S
C1302  C1304   1.416   .     A
C1302  C1384   1.394   .     S
C1303  C1469   1.399   1_455 S
Cu1305 Cu1306  2.677   .     S
Cu1305 N1327   2.012   .     S
Cu1305 O1343   1.971   .     S
Cu1305 O1339   1.979   .     S
Cu1305 O1341   1.973   .     S
Cu1305 O1337   1.984   .     S
Cu1306 N1329   2.012   .     S
Cu1306 O1342   1.973   .     S
Cu1306 O1338   1.984   .     S
Cu1306 O1344   1.971   .     S
Cu1306 O1340   1.979   .     S
C1345  O1421   1.293   .     A
C1345  C1346   1.464   .     S
C1345  O1424   1.290   .     A
C1346  C1387   1.414   .     A
C1346  C1384   1.414   .     A
C1347  H1404   1.081   .     S
C1347  N1413   1.367   .     A
C1348  H1405   1.081   .     S
C1348  N1411   1.367   .     A
C1348  C845    1.415   1_565 S
C1349  N1413   1.366   .     A
C1349  H1406   1.081   .     S
C1350  H1407   1.080   .     S
C1350  N1411   1.367   .     A
C1350  C843    1.415   1_565 S
C1351  O1428   1.288   .     A
C1351  O1425   1.289   .     A
C1351  C1357   1.456   .     S
C1352  O1427   1.287   .     A
C1352  O1426   1.293   .     A
C1352  C1355   1.461   .     S
C1353  C1369   1.532   .     S
C1353  C1364   1.416   .     A
C1353  C1355   1.408   .     A
C1354  C1365   1.416   .     A
C1354  C1372   1.532   .     S
C1354  C1357   1.407   .     A
C1355  C1358   1.408   .     A
C1356  O1423   1.296   .     A
C1356  O1422   1.289   .     A
C1356  C1388   1.467   .     S
C1357  C1359   1.402   .     A
C1358  C1375   1.453   .     S
C1358  C1360   1.422   .     A
C1359  C1376   1.453   .     S
C1359  C1361   1.416   .     A
C1360  C1366   1.425   .     A
C1360  C1362   1.427   .     A
C1361  C1368   1.419   .     A
C1361  C1363   1.426   .     A
C1362  C1364   1.419   .     A
C1362  C607    1.425   1_556 S
C1363  C1365   1.419   .     A
C1364  C1378   1.404   .     A
C1365  C1367   1.400   .     A
C1366  C1377   1.448   .     S
C1366  C611    1.387   1_556 S
C1367  H1391   1.079   .     S
C1368  C1379   1.448   .     S
C1369  H1394   1.108   .     S
C1369  C1370   1.541   .     S
C1369  H1395   1.111   .     S
C1370  C1371   1.527   .     S
C1370  H1392   1.111   .     S
C1370  H1393   1.110   .     S
C1371  H1409   1.109   .     S
C1371  H1410   1.110   .     S
C1371  H1408   1.108   .     S
C1372  C1373   1.537   .     S
C1372  H1401   1.106   .     S
C1372  H1403   1.109   .     S
C1373  H1399   1.110   .     S
C1373  C1374   1.524   .     S
C1373  H1400   1.112   .     S
C1374  H1398   1.111   .     S
C1374  H1397   1.109   .     S
C1374  H1396   1.109   .     S
C1375  N1414   1.157   .     T
C1376  N1415   1.157   .     T
C1377  N1416   1.158   .     T
C1378  H1402   1.080   .     S
C1378  C612    1.384   1_556 S
C1379  N1417   1.158   .     T
C1380  C1384   1.457   .     S
C1380  N1418   1.158   .     T
C1381  N1419   1.158   .     T
C1381  C1385   1.455   .     S
C1382  N1420   1.157   .     T
C1382  C1386   1.454   .     S
C1383  N1412   1.157   .     T
C1383  C1387   1.453   .     S
C1385  C1388   1.414   .     A
C1385  C1471   1.399   .     S
C1386  C1388   1.416   .     A
C1386  C1468   1.394   .     S
Cu1389 Cu1390  2.677   .     S
Cu1389 N1411   2.012   .     S
Cu1389 O1427   1.971   .     S
Cu1389 O1423   1.979   .     S
Cu1389 O1425   1.973   .     S
Cu1389 O1421   1.984   .     S
Cu1390 N1413   2.012   .     S
Cu1390 O1426   1.973   .     S
Cu1390 O1422   1.984   .     S
Cu1390 O1428   1.971   .     S
Cu1390 O1424   1.979   .     S
C1429  O1505   1.293   .     A
C1429  C1430   1.464   .     S
C1429  O1508   1.290   .     A
C1430  C1471   1.414   .     A
C1430  C1468   1.414   .     A
C1431  H1488   1.081   .     S
C1431  N1497   1.367   .     A
C1432  H1489   1.081   .     S
C1432  N1495   1.367   .     A
C1432  C929    1.415   1_565 S
C1433  N1497   1.366   .     A
C1433  H1490   1.081   .     S
C1434  H1491   1.080   .     S
C1434  N1495   1.367   .     A
C1434  C927    1.415   1_565 S
C1435  O1512   1.288   .     A
C1435  O1509   1.289   .     A
C1435  C1441   1.456   .     S
C1436  O1511   1.287   .     A
C1436  O1510   1.293   .     A
C1436  C1439   1.461   .     S
C1437  C1453   1.532   .     S
C1437  C1448   1.416   .     A
C1437  C1439   1.408   .     A
C1438  C1449   1.416   .     A
C1438  C1456   1.532   .     S
C1438  C1441   1.407   .     A
C1439  C1442   1.408   .     A
C1440  O1507   1.296   .     A
C1440  O1506   1.289   .     A
C1440  C1472   1.467   .     S
C1441  C1443   1.402   .     A
C1442  C1459   1.453   .     S
C1442  C1444   1.422   .     A
C1443  C1460   1.453   .     S
C1443  C1445   1.416   .     A
C1444  C1450   1.425   .     A
C1444  C1446   1.427   .     A
C1445  C1452   1.419   .     A
C1445  C1447   1.426   .     A
C1446  C1448   1.419   .     A
C1446  C691    1.425   1_556 S
C1447  C1449   1.419   .     A
C1448  C1462   1.404   .     A
C1449  C1451   1.400   .     A
C1450  C1461   1.448   .     S
C1450  C695    1.387   1_556 S
C1451  H1475   1.079   .     S
C1452  C1463   1.448   .     S
C1453  H1478   1.108   .     S
C1453  C1454   1.541   .     S
C1453  H1479   1.111   .     S
C1454  C1455   1.527   .     S
C1454  H1476   1.111   .     S
C1454  H1477   1.110   .     S
C1455  H1493   1.109   .     S
C1455  H1494   1.110   .     S
C1455  H1492   1.108   .     S
C1456  C1457   1.537   .     S
C1456  H1485   1.106   .     S
C1456  H1487   1.109   .     S
C1457  H1483   1.110   .     S
C1457  C1458   1.524   .     S
C1457  H1484   1.112   .     S
C1458  H1482   1.111   .     S
C1458  H1481   1.109   .     S
C1458  H1480   1.109   .     S
C1459  N1498   1.157   .     T
C1460  N1499   1.157   .     T
C1461  N1500   1.158   .     T
C1462  H1486   1.080   .     S
C1462  C696    1.384   1_556 S
C1463  N1501   1.158   .     T
C1464  C1468   1.457   .     S
C1464  N1502   1.158   .     T
C1465  N1503   1.158   .     T
C1465  C1469   1.455   .     S
C1466  N1504   1.157   .     T
C1466  C1470   1.454   .     S
C1467  N1496   1.157   .     T
C1467  C1471   1.453   .     S
C1469  C1472   1.414   .     A
C1469  C1303   1.399   1_655 S
C1470  C1472   1.416   .     A
C1470  C1300   1.394   1_655 S
Cu1473 Cu1474  2.677   .     S
Cu1473 N1495   2.012   .     S
Cu1473 O1511   1.971   .     S
Cu1473 O1507   1.979   .     S
Cu1473 O1509   1.973   .     S
Cu1473 O1505   1.984   .     S
Cu1474 N1497   2.012   .     S
Cu1474 O1510   1.973   .     S
Cu1474 O1506   1.984   .     S
Cu1474 O1512   1.971   .     S
Cu1474 O1508   1.979   .     S
