data_str_m2_o1_o17_pcu_sym.7
_audit_creation_date              2020-01-03
_audit_creation_method            'Materials Studio'
_symmetry_space_group_name_H-M    'P1'
_symmetry_Int_Tables_number       1
_symmetry_cell_setting            triclinic
loop_
_symmetry_equiv_pos_as_xyz
  x,y,z
_cell_length_a                    32.4509
_cell_length_b                    28.9493
_cell_length_c                    30.0196
_cell_angle_alpha                 90.6306
_cell_angle_beta                  92.4177
_cell_angle_gamma                 90.1601
loop_
_atom_site_label
_atom_site_type_symbol
_atom_site_fract_x
_atom_site_fract_y
_atom_site_fract_z
_atom_site_U_iso_or_equiv
_atom_site_adp_type
_atom_site_occupancy
C1     C     0.08749   0.16663   0.24995   0.00000  Uiso   1.00
C2     C     0.04281   0.16664   0.25005   0.00000  Uiso   1.00
C3     C     0.14057   0.02346   0.22124   0.00000  Uiso   1.00
C4     C     0.19089   0.30939   0.28022   0.00000  Uiso   1.00
C5     C     0.19112   0.02485   0.28005   0.00000  Uiso   1.00
C6     C     0.14150   0.30747   0.22086   0.00000  Uiso   1.00
C7     C     0.16623   0.16646   0.16469   0.00000  Uiso   1.00
C8     C     0.16708   0.16687   0.33530   0.00000  Uiso   1.00
C9     C     0.20426   0.17856   0.40849   0.00000  Uiso   1.00
C10    C     0.12908   0.15469   0.09147   0.00000  Uiso   1.00
C11    C     0.16800   0.16726   0.38355   0.00000  Uiso   1.00
C12    C     0.24585   0.16671   0.25011   0.00000  Uiso   1.00
C13    C     0.16534   0.16602   0.11643   0.00000  Uiso   1.00
C14    C     0.13197   0.15544   0.40429   0.00000  Uiso   1.00
C15    C     0.20144   0.17759   0.09569   0.00000  Uiso   1.00
C16    C     0.13088   0.15497   0.45072   0.00000  Uiso   1.00
C17    C     0.20267   0.17751   0.04925   0.00000  Uiso   1.00
C18    C     0.16709   0.16644   0.47654   0.00000  Uiso   1.00
C19    C     0.16643   0.16616   0.02343   0.00000  Uiso   1.00
C20    C     0.20397   0.17818   0.45545   0.00000  Uiso   1.00
C21    C     0.12948   0.15470   0.04452   0.00000  Uiso   1.00
C22    C     0.09421   0.14350   0.47168   0.00000  Uiso   1.00
C23    C     0.09384   0.14362   0.01823   0.00000  Uiso   1.00
C24    C     0.23942   0.18869   0.02829   0.00000  Uiso   1.00
C25    C     0.24159   0.18922   0.38555   0.00000  Uiso   1.00
C26    C     0.09162   0.14451   0.11437   0.00000  Uiso   1.00
C27    C     0.23965   0.18909   0.48173   0.00000  Uiso   1.00
C28    C     0.02122   0.12472   0.25082   0.00000  Uiso   1.00
C29    C     0.31211   0.20866   0.24952   0.00000  Uiso   1.00
C30    C     0.31194   0.12475   0.25084   0.00000  Uiso   1.00
C31    C     0.02140   0.20862   0.24945   0.00000  Uiso   1.00
C32    C     0.29053   0.16672   0.25016   0.00000  Uiso   1.00
Cu33   Cu    0.16667   0.21355   0.25000   0.00000  Uiso   1.00
Cu34   Cu    0.16667   0.11978   0.25000   0.00000  Uiso   1.00
H35    H     0.10470   0.14695   0.38366   0.00000  Uiso   1.00
H36    H     0.03197   0.12956   0.46587   0.00000  Uiso   1.00
H37    H     0.28736   0.16885   0.06846   0.00000  Uiso   1.00
H38    H     0.29957   0.21147   0.03402   0.00000  Uiso   1.00
H39    H     0.11341   0.07936   0.18935   0.00000  Uiso   1.00
H40    H     0.08124   0.03903   0.20589   0.00000  Uiso   1.00
H41    H     0.23408   0.26265   0.30367   0.00000  Uiso   1.00
H42    H     0.19531   0.27590   0.33962   0.00000  Uiso   1.00
H43    H     0.23430   0.07263   0.30382   0.00000  Uiso   1.00
H44    H     0.19598   0.05880   0.34005   0.00000  Uiso   1.00
H45    H     0.08441   0.28956   0.19652   0.00000  Uiso   1.00
H46    H     0.22861   0.18644   0.11632   0.00000  Uiso   1.00
H47    H     0.12101   0.29195   0.15786   0.00000  Uiso   1.00
H48    H     0.06540   0.13466   0.03370   0.00000  Uiso   1.00
H49    H     0.26813   0.19785   0.46625   0.00000  Uiso   1.00
H50    H     0.03715   0.09190   0.25148   0.00000  Uiso   1.00
H51    H     0.29618   0.24149   0.24901   0.00000  Uiso   1.00
H52    H     0.29589   0.09193   0.25138   0.00000  Uiso   1.00
H53    H     0.03746   0.24143   0.24893   0.00000  Uiso   1.00
H54    H     0.06153   0.09897   0.43189   0.00000  Uiso   1.00
N55    N     0.16667   0.28402   0.25000   0.00000  Uiso   1.00
N56    N     0.11506   0.28171   0.19026   0.00000  Uiso   1.00
N57    N     0.16667   0.04931   0.25000   0.00000  Uiso   1.00
N58    N     0.27134   0.19763   0.36724   0.00000  Uiso   1.00
N59    N     0.06175   0.13651   0.13261   0.00000  Uiso   1.00
N60    N     0.05731   0.13189   0.44561   0.00000  Uiso   1.00
N61    N     0.27649   0.19961   0.05436   0.00000  Uiso   1.00
N62    N     0.10990   0.04427   0.19210   0.00000  Uiso   1.00
N63    N     0.21471   0.28799   0.31550   0.00000  Uiso   1.00
N64    N     0.21511   0.04709   0.31531   0.00000  Uiso   1.00
O65    O     0.10655   0.20625   0.24999   0.00000  Uiso   1.00
O66    O     0.22679   0.12709   0.25000   0.00000  Uiso   1.00
O67    O     0.22679   0.20625   0.25000   0.00000  Uiso   1.00
O68    O     0.10655   0.12709   0.24999   0.00000  Uiso   1.00
O69    O     0.16666   0.20627   0.18513   0.00000  Uiso   1.00
O70    O     0.16668   0.12707   0.31487   0.00000  Uiso   1.00
O71    O     0.16668   0.20627   0.31487   0.00000  Uiso   1.00
O72    O     0.16666   0.12707   0.18513   0.00000  Uiso   1.00
C73    C     0.42082   0.16663   0.24995   0.00000  Uiso   1.00
C74    C     0.37614   0.16664   0.25005   0.00000  Uiso   1.00
C75    C     0.47391   0.02346   0.22124   0.00000  Uiso   1.00
C76    C     0.52422   0.30939   0.28022   0.00000  Uiso   1.00
C77    C     0.52445   0.02485   0.28005   0.00000  Uiso   1.00
C78    C     0.47483   0.30747   0.22086   0.00000  Uiso   1.00
C79    C     0.49956   0.16646   0.16469   0.00000  Uiso   1.00
C80    C     0.50042   0.16687   0.33530   0.00000  Uiso   1.00
C81    C     0.53760   0.17856   0.40849   0.00000  Uiso   1.00
C82    C     0.46242   0.15469   0.09147   0.00000  Uiso   1.00
C83    C     0.50133   0.16726   0.38355   0.00000  Uiso   1.00
C84    C     0.57918   0.16671   0.25011   0.00000  Uiso   1.00
C85    C     0.49867   0.16602   0.11643   0.00000  Uiso   1.00
C86    C     0.46530   0.15544   0.40429   0.00000  Uiso   1.00
C87    C     0.53477   0.17759   0.09569   0.00000  Uiso   1.00
C88    C     0.46421   0.15497   0.45072   0.00000  Uiso   1.00
C89    C     0.53601   0.17751   0.04925   0.00000  Uiso   1.00
C90    C     0.50043   0.16644   0.47654   0.00000  Uiso   1.00
C91    C     0.49976   0.16616   0.02343   0.00000  Uiso   1.00
C92    C     0.53730   0.17818   0.45545   0.00000  Uiso   1.00
C93    C     0.46281   0.15470   0.04452   0.00000  Uiso   1.00
C94    C     0.42754   0.14350   0.47168   0.00000  Uiso   1.00
C95    C     0.42718   0.14362   0.01823   0.00000  Uiso   1.00
C96    C     0.57275   0.18869   0.02829   0.00000  Uiso   1.00
C97    C     0.57492   0.18922   0.38555   0.00000  Uiso   1.00
C98    C     0.42495   0.14451   0.11437   0.00000  Uiso   1.00
C99    C     0.57298   0.18909   0.48173   0.00000  Uiso   1.00
C100   C     0.35456   0.12472   0.25082   0.00000  Uiso   1.00
C101   C     0.64545   0.20866   0.24952   0.00000  Uiso   1.00
C102   C     0.64528   0.12475   0.25084   0.00000  Uiso   1.00
C103   C     0.35473   0.20862   0.24945   0.00000  Uiso   1.00
C104   C     0.62386   0.16672   0.25016   0.00000  Uiso   1.00
Cu105  Cu    0.50000   0.21355   0.25000   0.00000  Uiso   1.00
Cu106  Cu    0.50000   0.11978   0.25000   0.00000  Uiso   1.00
H107   H     0.43804   0.14695   0.38366   0.00000  Uiso   1.00
H108   H     0.36530   0.12956   0.46587   0.00000  Uiso   1.00
H109   H     0.62069   0.16885   0.06846   0.00000  Uiso   1.00
H110   H     0.63291   0.21147   0.03402   0.00000  Uiso   1.00
H111   H     0.44674   0.07936   0.18935   0.00000  Uiso   1.00
H112   H     0.41457   0.03903   0.20589   0.00000  Uiso   1.00
H113   H     0.56741   0.26265   0.30367   0.00000  Uiso   1.00
H114   H     0.52864   0.27590   0.33962   0.00000  Uiso   1.00
H115   H     0.56763   0.07263   0.30382   0.00000  Uiso   1.00
H116   H     0.52931   0.05880   0.34005   0.00000  Uiso   1.00
H117   H     0.41774   0.28956   0.19652   0.00000  Uiso   1.00
H118   H     0.56195   0.18644   0.11632   0.00000  Uiso   1.00
H119   H     0.45435   0.29195   0.15786   0.00000  Uiso   1.00
H120   H     0.39874   0.13466   0.03370   0.00000  Uiso   1.00
H121   H     0.60146   0.19785   0.46625   0.00000  Uiso   1.00
H122   H     0.37048   0.09190   0.25148   0.00000  Uiso   1.00
H123   H     0.62952   0.24149   0.24901   0.00000  Uiso   1.00
H124   H     0.62923   0.09193   0.25138   0.00000  Uiso   1.00
H125   H     0.37079   0.24143   0.24893   0.00000  Uiso   1.00
H126   H     0.39486   0.09897   0.43189   0.00000  Uiso   1.00
N127   N     0.50000   0.28402   0.25000   0.00000  Uiso   1.00
N128   N     0.44839   0.28171   0.19026   0.00000  Uiso   1.00
N129   N     0.50000   0.04931   0.25000   0.00000  Uiso   1.00
N130   N     0.60468   0.19763   0.36724   0.00000  Uiso   1.00
N131   N     0.39508   0.13651   0.13261   0.00000  Uiso   1.00
N132   N     0.39065   0.13189   0.44561   0.00000  Uiso   1.00
N133   N     0.60982   0.19961   0.05436   0.00000  Uiso   1.00
N134   N     0.44323   0.04427   0.19210   0.00000  Uiso   1.00
N135   N     0.54804   0.28799   0.31550   0.00000  Uiso   1.00
N136   N     0.54845   0.04709   0.31531   0.00000  Uiso   1.00
O137   O     0.43988   0.20625   0.24999   0.00000  Uiso   1.00
O138   O     0.56012   0.12709   0.25000   0.00000  Uiso   1.00
O139   O     0.56012   0.20625   0.25000   0.00000  Uiso   1.00
O140   O     0.43988   0.12709   0.24999   0.00000  Uiso   1.00
O141   O     0.49999   0.20627   0.18513   0.00000  Uiso   1.00
O142   O     0.50001   0.12707   0.31487   0.00000  Uiso   1.00
O143   O     0.50001   0.20627   0.31487   0.00000  Uiso   1.00
O144   O     0.49999   0.12707   0.18513   0.00000  Uiso   1.00
C145   C     0.75416   0.16663   0.24995   0.00000  Uiso   1.00
C146   C     0.70947   0.16664   0.25005   0.00000  Uiso   1.00
C147   C     0.80724   0.02346   0.22124   0.00000  Uiso   1.00
C148   C     0.85756   0.30939   0.28022   0.00000  Uiso   1.00
C149   C     0.85779   0.02485   0.28005   0.00000  Uiso   1.00
C150   C     0.80817   0.30747   0.22086   0.00000  Uiso   1.00
C151   C     0.83290   0.16646   0.16469   0.00000  Uiso   1.00
C152   C     0.83375   0.16687   0.33530   0.00000  Uiso   1.00
C153   C     0.87093   0.17856   0.40849   0.00000  Uiso   1.00
C154   C     0.79575   0.15469   0.09147   0.00000  Uiso   1.00
C155   C     0.83467   0.16726   0.38355   0.00000  Uiso   1.00
C156   C     0.91251   0.16671   0.25011   0.00000  Uiso   1.00
C157   C     0.83200   0.16602   0.11643   0.00000  Uiso   1.00
C158   C     0.79864   0.15544   0.40429   0.00000  Uiso   1.00
C159   C     0.86810   0.17759   0.09569   0.00000  Uiso   1.00
C160   C     0.79754   0.15497   0.45072   0.00000  Uiso   1.00
C161   C     0.86934   0.17751   0.04925   0.00000  Uiso   1.00
C162   C     0.83376   0.16644   0.47654   0.00000  Uiso   1.00
C163   C     0.83310   0.16616   0.02343   0.00000  Uiso   1.00
C164   C     0.87064   0.17818   0.45545   0.00000  Uiso   1.00
C165   C     0.79614   0.15470   0.04452   0.00000  Uiso   1.00
C166   C     0.76088   0.14350   0.47168   0.00000  Uiso   1.00
C167   C     0.76051   0.14362   0.01823   0.00000  Uiso   1.00
C168   C     0.90608   0.18869   0.02829   0.00000  Uiso   1.00
C169   C     0.90826   0.18922   0.38555   0.00000  Uiso   1.00
C170   C     0.75829   0.14451   0.11437   0.00000  Uiso   1.00
C171   C     0.90632   0.18909   0.48173   0.00000  Uiso   1.00
C172   C     0.68789   0.12472   0.25082   0.00000  Uiso   1.00
C173   C     0.97878   0.20866   0.24952   0.00000  Uiso   1.00
C174   C     0.97861   0.12475   0.25084   0.00000  Uiso   1.00
C175   C     0.68806   0.20862   0.24945   0.00000  Uiso   1.00
C176   C     0.95720   0.16672   0.25016   0.00000  Uiso   1.00
Cu177  Cu    0.83333   0.21355   0.25000   0.00000  Uiso   1.00
Cu178  Cu    0.83333   0.11978   0.25000   0.00000  Uiso   1.00
H179   H     0.77137   0.14695   0.38366   0.00000  Uiso   1.00
H180   H     0.69864   0.12956   0.46587   0.00000  Uiso   1.00
H181   H     0.95402   0.16885   0.06846   0.00000  Uiso   1.00
H182   H     0.96624   0.21147   0.03402   0.00000  Uiso   1.00
H183   H     0.78007   0.07936   0.18935   0.00000  Uiso   1.00
H184   H     0.74791   0.03903   0.20589   0.00000  Uiso   1.00
H185   H     0.90074   0.26265   0.30367   0.00000  Uiso   1.00
H186   H     0.86197   0.27590   0.33962   0.00000  Uiso   1.00
H187   H     0.90096   0.07263   0.30382   0.00000  Uiso   1.00
H188   H     0.86265   0.05880   0.34005   0.00000  Uiso   1.00
H189   H     0.75108   0.28956   0.19652   0.00000  Uiso   1.00
H190   H     0.89528   0.18644   0.11632   0.00000  Uiso   1.00
H191   H     0.78768   0.29195   0.15786   0.00000  Uiso   1.00
H192   H     0.73207   0.13466   0.03370   0.00000  Uiso   1.00
H193   H     0.93480   0.19785   0.46625   0.00000  Uiso   1.00
H194   H     0.70381   0.09190   0.25148   0.00000  Uiso   1.00
H195   H     0.96285   0.24149   0.24901   0.00000  Uiso   1.00
H196   H     0.96256   0.09193   0.25138   0.00000  Uiso   1.00
H197   H     0.70412   0.24143   0.24893   0.00000  Uiso   1.00
H198   H     0.72820   0.09897   0.43189   0.00000  Uiso   1.00
N199   N     0.83333   0.28402   0.25000   0.00000  Uiso   1.00
N200   N     0.78172   0.28171   0.19026   0.00000  Uiso   1.00
N201   N     0.83333   0.04931   0.25000   0.00000  Uiso   1.00
N202   N     0.93801   0.19763   0.36724   0.00000  Uiso   1.00
N203   N     0.72841   0.13651   0.13261   0.00000  Uiso   1.00
N204   N     0.72398   0.13189   0.44561   0.00000  Uiso   1.00
N205   N     0.94315   0.19961   0.05436   0.00000  Uiso   1.00
N206   N     0.77656   0.04427   0.19210   0.00000  Uiso   1.00
N207   N     0.88137   0.28799   0.31550   0.00000  Uiso   1.00
N208   N     0.88178   0.04709   0.31531   0.00000  Uiso   1.00
O209   O     0.77321   0.20625   0.24999   0.00000  Uiso   1.00
O210   O     0.89345   0.12709   0.25000   0.00000  Uiso   1.00
O211   O     0.89345   0.20625   0.25000   0.00000  Uiso   1.00
O212   O     0.77321   0.12709   0.24999   0.00000  Uiso   1.00
O213   O     0.83332   0.20627   0.18513   0.00000  Uiso   1.00
O214   O     0.83334   0.12707   0.31487   0.00000  Uiso   1.00
O215   O     0.83334   0.20627   0.31487   0.00000  Uiso   1.00
O216   O     0.83332   0.12707   0.18513   0.00000  Uiso   1.00
C217   C     0.08749   0.49997   0.24995   0.00000  Uiso   1.00
C218   C     0.04281   0.49997   0.25005   0.00000  Uiso   1.00
C219   C     0.14057   0.35679   0.22124   0.00000  Uiso   1.00
C220   C     0.19089   0.64272   0.28022   0.00000  Uiso   1.00
C221   C     0.19112   0.35819   0.28005   0.00000  Uiso   1.00
C222   C     0.14150   0.64080   0.22086   0.00000  Uiso   1.00
C223   C     0.16623   0.49980   0.16469   0.00000  Uiso   1.00
C224   C     0.16708   0.50020   0.33530   0.00000  Uiso   1.00
C225   C     0.20426   0.51189   0.40849   0.00000  Uiso   1.00
C226   C     0.12908   0.48802   0.09147   0.00000  Uiso   1.00
C227   C     0.16800   0.50060   0.38355   0.00000  Uiso   1.00
C228   C     0.24585   0.50004   0.25011   0.00000  Uiso   1.00
C229   C     0.16534   0.49936   0.11643   0.00000  Uiso   1.00
C230   C     0.13197   0.48877   0.40429   0.00000  Uiso   1.00
C231   C     0.20144   0.51093   0.09569   0.00000  Uiso   1.00
C232   C     0.13088   0.48830   0.45072   0.00000  Uiso   1.00
C233   C     0.20267   0.51084   0.04925   0.00000  Uiso   1.00
C234   C     0.16709   0.49977   0.47654   0.00000  Uiso   1.00
C235   C     0.16643   0.49949   0.02343   0.00000  Uiso   1.00
C236   C     0.20397   0.51152   0.45545   0.00000  Uiso   1.00
C237   C     0.12948   0.48804   0.04452   0.00000  Uiso   1.00
C238   C     0.09421   0.47683   0.47168   0.00000  Uiso   1.00
C239   C     0.09384   0.47695   0.01823   0.00000  Uiso   1.00
C240   C     0.23942   0.52202   0.02829   0.00000  Uiso   1.00
C241   C     0.24159   0.52256   0.38555   0.00000  Uiso   1.00
C242   C     0.09162   0.47784   0.11437   0.00000  Uiso   1.00
C243   C     0.23965   0.52243   0.48173   0.00000  Uiso   1.00
C244   C     0.02122   0.45805   0.25082   0.00000  Uiso   1.00
C245   C     0.31211   0.54200   0.24952   0.00000  Uiso   1.00
C246   C     0.31194   0.45808   0.25084   0.00000  Uiso   1.00
C247   C     0.02140   0.54195   0.24945   0.00000  Uiso   1.00
C248   C     0.29053   0.50006   0.25016   0.00000  Uiso   1.00
Cu249  Cu    0.16667   0.54689   0.25000   0.00000  Uiso   1.00
Cu250  Cu    0.16667   0.45311   0.25000   0.00000  Uiso   1.00
H251   H     0.10470   0.48029   0.38366   0.00000  Uiso   1.00
H252   H     0.03197   0.46289   0.46587   0.00000  Uiso   1.00
H253   H     0.28736   0.50218   0.06846   0.00000  Uiso   1.00
H254   H     0.29957   0.54481   0.03402   0.00000  Uiso   1.00
H255   H     0.11341   0.41269   0.18935   0.00000  Uiso   1.00
H256   H     0.08124   0.37236   0.20589   0.00000  Uiso   1.00
H257   H     0.23408   0.59598   0.30367   0.00000  Uiso   1.00
H258   H     0.19531   0.60923   0.33962   0.00000  Uiso   1.00
H259   H     0.23430   0.40596   0.30382   0.00000  Uiso   1.00
H260   H     0.19598   0.39213   0.34005   0.00000  Uiso   1.00
H261   H     0.08441   0.62290   0.19652   0.00000  Uiso   1.00
H262   H     0.22861   0.51977   0.11632   0.00000  Uiso   1.00
H263   H     0.12101   0.62529   0.15786   0.00000  Uiso   1.00
H264   H     0.06540   0.46799   0.03370   0.00000  Uiso   1.00
H265   H     0.26813   0.53119   0.46625   0.00000  Uiso   1.00
H266   H     0.03715   0.42524   0.25148   0.00000  Uiso   1.00
H267   H     0.29618   0.57482   0.24901   0.00000  Uiso   1.00
H268   H     0.29589   0.42526   0.25138   0.00000  Uiso   1.00
H269   H     0.03746   0.57477   0.24893   0.00000  Uiso   1.00
H270   H     0.06153   0.43230   0.43189   0.00000  Uiso   1.00
N271   N     0.16667   0.61736   0.25000   0.00000  Uiso   1.00
N272   N     0.11506   0.61504   0.19026   0.00000  Uiso   1.00
N273   N     0.16667   0.38264   0.25000   0.00000  Uiso   1.00
N274   N     0.27134   0.53096   0.36724   0.00000  Uiso   1.00
N275   N     0.06175   0.46984   0.13261   0.00000  Uiso   1.00
N276   N     0.05731   0.46522   0.44561   0.00000  Uiso   1.00
N277   N     0.27649   0.53294   0.05436   0.00000  Uiso   1.00
N278   N     0.10990   0.37760   0.19210   0.00000  Uiso   1.00
N279   N     0.21471   0.62132   0.31550   0.00000  Uiso   1.00
N280   N     0.21511   0.38042   0.31531   0.00000  Uiso   1.00
O281   O     0.10655   0.53958   0.24999   0.00000  Uiso   1.00
O282   O     0.22679   0.46042   0.25000   0.00000  Uiso   1.00
O283   O     0.22679   0.53958   0.25000   0.00000  Uiso   1.00
O284   O     0.10655   0.46042   0.24999   0.00000  Uiso   1.00
O285   O     0.16666   0.53960   0.18513   0.00000  Uiso   1.00
O286   O     0.16668   0.46040   0.31487   0.00000  Uiso   1.00
O287   O     0.16668   0.53960   0.31487   0.00000  Uiso   1.00
O288   O     0.16666   0.46040   0.18513   0.00000  Uiso   1.00
C289   C     0.42082   0.49997   0.24995   0.00000  Uiso   1.00
C290   C     0.37614   0.49997   0.25005   0.00000  Uiso   1.00
C291   C     0.47391   0.35679   0.22124   0.00000  Uiso   1.00
C292   C     0.52422   0.64272   0.28022   0.00000  Uiso   1.00
C293   C     0.52445   0.35819   0.28005   0.00000  Uiso   1.00
C294   C     0.47483   0.64080   0.22086   0.00000  Uiso   1.00
C295   C     0.49956   0.49980   0.16469   0.00000  Uiso   1.00
C296   C     0.50042   0.50020   0.33530   0.00000  Uiso   1.00
C297   C     0.53760   0.51189   0.40849   0.00000  Uiso   1.00
C298   C     0.46242   0.48802   0.09147   0.00000  Uiso   1.00
C299   C     0.50133   0.50060   0.38355   0.00000  Uiso   1.00
C300   C     0.57918   0.50004   0.25011   0.00000  Uiso   1.00
C301   C     0.49867   0.49936   0.11643   0.00000  Uiso   1.00
C302   C     0.46530   0.48877   0.40429   0.00000  Uiso   1.00
C303   C     0.53477   0.51093   0.09569   0.00000  Uiso   1.00
C304   C     0.46421   0.48830   0.45072   0.00000  Uiso   1.00
C305   C     0.53601   0.51084   0.04925   0.00000  Uiso   1.00
C306   C     0.50043   0.49977   0.47654   0.00000  Uiso   1.00
C307   C     0.49976   0.49949   0.02343   0.00000  Uiso   1.00
C308   C     0.53730   0.51152   0.45545   0.00000  Uiso   1.00
C309   C     0.46281   0.48804   0.04452   0.00000  Uiso   1.00
C310   C     0.42754   0.47683   0.47168   0.00000  Uiso   1.00
C311   C     0.42718   0.47695   0.01823   0.00000  Uiso   1.00
C312   C     0.57275   0.52202   0.02829   0.00000  Uiso   1.00
C313   C     0.57492   0.52256   0.38555   0.00000  Uiso   1.00
C314   C     0.42495   0.47784   0.11437   0.00000  Uiso   1.00
C315   C     0.57298   0.52243   0.48173   0.00000  Uiso   1.00
C316   C     0.35456   0.45805   0.25082   0.00000  Uiso   1.00
C317   C     0.64545   0.54200   0.24952   0.00000  Uiso   1.00
C318   C     0.64528   0.45808   0.25084   0.00000  Uiso   1.00
C319   C     0.35473   0.54195   0.24945   0.00000  Uiso   1.00
C320   C     0.62386   0.50006   0.25016   0.00000  Uiso   1.00
Cu321  Cu    0.50000   0.54689   0.25000   0.00000  Uiso   1.00
Cu322  Cu    0.50000   0.45311   0.25000   0.00000  Uiso   1.00
H323   H     0.43804   0.48029   0.38366   0.00000  Uiso   1.00
H324   H     0.36530   0.46289   0.46587   0.00000  Uiso   1.00
H325   H     0.62069   0.50218   0.06846   0.00000  Uiso   1.00
H326   H     0.63291   0.54481   0.03402   0.00000  Uiso   1.00
H327   H     0.44674   0.41269   0.18935   0.00000  Uiso   1.00
H328   H     0.41457   0.37236   0.20589   0.00000  Uiso   1.00
H329   H     0.56741   0.59598   0.30367   0.00000  Uiso   1.00
H330   H     0.52864   0.60923   0.33962   0.00000  Uiso   1.00
H331   H     0.56763   0.40596   0.30382   0.00000  Uiso   1.00
H332   H     0.52931   0.39213   0.34005   0.00000  Uiso   1.00
H333   H     0.41774   0.62290   0.19652   0.00000  Uiso   1.00
H334   H     0.56195   0.51977   0.11632   0.00000  Uiso   1.00
H335   H     0.45435   0.62529   0.15786   0.00000  Uiso   1.00
H336   H     0.39874   0.46799   0.03370   0.00000  Uiso   1.00
H337   H     0.60146   0.53119   0.46625   0.00000  Uiso   1.00
H338   H     0.37048   0.42524   0.25148   0.00000  Uiso   1.00
H339   H     0.62952   0.57482   0.24901   0.00000  Uiso   1.00
H340   H     0.62923   0.42526   0.25138   0.00000  Uiso   1.00
H341   H     0.37079   0.57477   0.24893   0.00000  Uiso   1.00
H342   H     0.39486   0.43230   0.43189   0.00000  Uiso   1.00
N343   N     0.50000   0.61736   0.25000   0.00000  Uiso   1.00
N344   N     0.44839   0.61504   0.19026   0.00000  Uiso   1.00
N345   N     0.50000   0.38264   0.25000   0.00000  Uiso   1.00
N346   N     0.60468   0.53096   0.36724   0.00000  Uiso   1.00
N347   N     0.39508   0.46984   0.13261   0.00000  Uiso   1.00
N348   N     0.39065   0.46522   0.44561   0.00000  Uiso   1.00
N349   N     0.60982   0.53294   0.05436   0.00000  Uiso   1.00
N350   N     0.44323   0.37760   0.19210   0.00000  Uiso   1.00
N351   N     0.54804   0.62132   0.31550   0.00000  Uiso   1.00
N352   N     0.54845   0.38042   0.31531   0.00000  Uiso   1.00
O353   O     0.43988   0.53958   0.24999   0.00000  Uiso   1.00
O354   O     0.56012   0.46042   0.25000   0.00000  Uiso   1.00
O355   O     0.56012   0.53958   0.25000   0.00000  Uiso   1.00
O356   O     0.43988   0.46042   0.24999   0.00000  Uiso   1.00
O357   O     0.49999   0.53960   0.18513   0.00000  Uiso   1.00
O358   O     0.50001   0.46040   0.31487   0.00000  Uiso   1.00
O359   O     0.50001   0.53960   0.31487   0.00000  Uiso   1.00
O360   O     0.49999   0.46040   0.18513   0.00000  Uiso   1.00
C361   C     0.75416   0.49997   0.24995   0.00000  Uiso   1.00
C362   C     0.70947   0.49997   0.25005   0.00000  Uiso   1.00
C363   C     0.80724   0.35679   0.22124   0.00000  Uiso   1.00
C364   C     0.85756   0.64272   0.28022   0.00000  Uiso   1.00
C365   C     0.85779   0.35819   0.28005   0.00000  Uiso   1.00
C366   C     0.80817   0.64080   0.22086   0.00000  Uiso   1.00
C367   C     0.83290   0.49980   0.16469   0.00000  Uiso   1.00
C368   C     0.83375   0.50020   0.33530   0.00000  Uiso   1.00
C369   C     0.87093   0.51189   0.40849   0.00000  Uiso   1.00
C370   C     0.79575   0.48802   0.09147   0.00000  Uiso   1.00
C371   C     0.83467   0.50060   0.38355   0.00000  Uiso   1.00
C372   C     0.91251   0.50004   0.25011   0.00000  Uiso   1.00
C373   C     0.83200   0.49936   0.11643   0.00000  Uiso   1.00
C374   C     0.79864   0.48877   0.40429   0.00000  Uiso   1.00
C375   C     0.86810   0.51093   0.09569   0.00000  Uiso   1.00
C376   C     0.79754   0.48830   0.45072   0.00000  Uiso   1.00
C377   C     0.86934   0.51084   0.04925   0.00000  Uiso   1.00
C378   C     0.83376   0.49977   0.47654   0.00000  Uiso   1.00
C379   C     0.83310   0.49949   0.02343   0.00000  Uiso   1.00
C380   C     0.87064   0.51152   0.45545   0.00000  Uiso   1.00
C381   C     0.79614   0.48804   0.04452   0.00000  Uiso   1.00
C382   C     0.76088   0.47683   0.47168   0.00000  Uiso   1.00
C383   C     0.76051   0.47695   0.01823   0.00000  Uiso   1.00
C384   C     0.90608   0.52202   0.02829   0.00000  Uiso   1.00
C385   C     0.90826   0.52256   0.38555   0.00000  Uiso   1.00
C386   C     0.75829   0.47784   0.11437   0.00000  Uiso   1.00
C387   C     0.90632   0.52243   0.48173   0.00000  Uiso   1.00
C388   C     0.68789   0.45805   0.25082   0.00000  Uiso   1.00
C389   C     0.97878   0.54200   0.24952   0.00000  Uiso   1.00
C390   C     0.97861   0.45808   0.25084   0.00000  Uiso   1.00
C391   C     0.68806   0.54195   0.24945   0.00000  Uiso   1.00
C392   C     0.95720   0.50006   0.25016   0.00000  Uiso   1.00
Cu393  Cu    0.83333   0.54689   0.25000   0.00000  Uiso   1.00
Cu394  Cu    0.83333   0.45311   0.25000   0.00000  Uiso   1.00
H395   H     0.77137   0.48029   0.38366   0.00000  Uiso   1.00
H396   H     0.69864   0.46289   0.46587   0.00000  Uiso   1.00
H397   H     0.95402   0.50218   0.06846   0.00000  Uiso   1.00
H398   H     0.96624   0.54481   0.03402   0.00000  Uiso   1.00
H399   H     0.78007   0.41269   0.18935   0.00000  Uiso   1.00
H400   H     0.74791   0.37236   0.20589   0.00000  Uiso   1.00
H401   H     0.90074   0.59598   0.30367   0.00000  Uiso   1.00
H402   H     0.86197   0.60923   0.33962   0.00000  Uiso   1.00
H403   H     0.90096   0.40596   0.30382   0.00000  Uiso   1.00
H404   H     0.86265   0.39213   0.34005   0.00000  Uiso   1.00
H405   H     0.75108   0.62290   0.19652   0.00000  Uiso   1.00
H406   H     0.89528   0.51977   0.11632   0.00000  Uiso   1.00
H407   H     0.78768   0.62529   0.15786   0.00000  Uiso   1.00
H408   H     0.73207   0.46799   0.03370   0.00000  Uiso   1.00
H409   H     0.93480   0.53119   0.46625   0.00000  Uiso   1.00
H410   H     0.70381   0.42524   0.25148   0.00000  Uiso   1.00
H411   H     0.96285   0.57482   0.24901   0.00000  Uiso   1.00
H412   H     0.96256   0.42526   0.25138   0.00000  Uiso   1.00
H413   H     0.70412   0.57477   0.24893   0.00000  Uiso   1.00
H414   H     0.72820   0.43230   0.43189   0.00000  Uiso   1.00
N415   N     0.83333   0.61736   0.25000   0.00000  Uiso   1.00
N416   N     0.78172   0.61504   0.19026   0.00000  Uiso   1.00
N417   N     0.83333   0.38264   0.25000   0.00000  Uiso   1.00
N418   N     0.93801   0.53096   0.36724   0.00000  Uiso   1.00
N419   N     0.72841   0.46984   0.13261   0.00000  Uiso   1.00
N420   N     0.72398   0.46522   0.44561   0.00000  Uiso   1.00
N421   N     0.94315   0.53294   0.05436   0.00000  Uiso   1.00
N422   N     0.77656   0.37760   0.19210   0.00000  Uiso   1.00
N423   N     0.88137   0.62132   0.31550   0.00000  Uiso   1.00
N424   N     0.88178   0.38042   0.31531   0.00000  Uiso   1.00
O425   O     0.77321   0.53958   0.24999   0.00000  Uiso   1.00
O426   O     0.89345   0.46042   0.25000   0.00000  Uiso   1.00
O427   O     0.89345   0.53958   0.25000   0.00000  Uiso   1.00
O428   O     0.77321   0.46042   0.24999   0.00000  Uiso   1.00
O429   O     0.83332   0.53960   0.18513   0.00000  Uiso   1.00
O430   O     0.83334   0.46040   0.31487   0.00000  Uiso   1.00
O431   O     0.83334   0.53960   0.31487   0.00000  Uiso   1.00
O432   O     0.83332   0.46040   0.18513   0.00000  Uiso   1.00
C433   C     0.08749   0.83330   0.24995   0.00000  Uiso   1.00
C434   C     0.04281   0.83330   0.25005   0.00000  Uiso   1.00
C435   C     0.14057   0.69013   0.22124   0.00000  Uiso   1.00
C436   C     0.19089   0.97605   0.28022   0.00000  Uiso   1.00
C437   C     0.19112   0.69152   0.28005   0.00000  Uiso   1.00
C438   C     0.14150   0.97413   0.22086   0.00000  Uiso   1.00
C439   C     0.16623   0.83313   0.16469   0.00000  Uiso   1.00
C440   C     0.16708   0.83354   0.33530   0.00000  Uiso   1.00
C441   C     0.20426   0.84523   0.40849   0.00000  Uiso   1.00
C442   C     0.12908   0.82136   0.09147   0.00000  Uiso   1.00
C443   C     0.16800   0.83393   0.38355   0.00000  Uiso   1.00
C444   C     0.24585   0.83337   0.25011   0.00000  Uiso   1.00
C445   C     0.16534   0.83269   0.11643   0.00000  Uiso   1.00
C446   C     0.13197   0.82210   0.40429   0.00000  Uiso   1.00
C447   C     0.20144   0.84426   0.09569   0.00000  Uiso   1.00
C448   C     0.13088   0.82163   0.45072   0.00000  Uiso   1.00
C449   C     0.20267   0.84418   0.04925   0.00000  Uiso   1.00
C450   C     0.16709   0.83310   0.47654   0.00000  Uiso   1.00
C451   C     0.16643   0.83283   0.02343   0.00000  Uiso   1.00
C452   C     0.20397   0.84485   0.45545   0.00000  Uiso   1.00
C453   C     0.12948   0.82137   0.04452   0.00000  Uiso   1.00
C454   C     0.09421   0.81016   0.47168   0.00000  Uiso   1.00
C455   C     0.09384   0.81028   0.01823   0.00000  Uiso   1.00
C456   C     0.23942   0.85536   0.02829   0.00000  Uiso   1.00
C457   C     0.24159   0.85589   0.38555   0.00000  Uiso   1.00
C458   C     0.09162   0.81118   0.11437   0.00000  Uiso   1.00
C459   C     0.23965   0.85576   0.48173   0.00000  Uiso   1.00
C460   C     0.02122   0.79138   0.25082   0.00000  Uiso   1.00
C461   C     0.31211   0.87533   0.24952   0.00000  Uiso   1.00
C462   C     0.31194   0.79142   0.25084   0.00000  Uiso   1.00
C463   C     0.02140   0.87528   0.24945   0.00000  Uiso   1.00
C464   C     0.29053   0.83339   0.25016   0.00000  Uiso   1.00
Cu465  Cu    0.16667   0.88022   0.25000   0.00000  Uiso   1.00
Cu466  Cu    0.16667   0.78645   0.25000   0.00000  Uiso   1.00
H467   H     0.10470   0.81362   0.38366   0.00000  Uiso   1.00
H468   H     0.03197   0.79623   0.46587   0.00000  Uiso   1.00
H469   H     0.28736   0.83551   0.06846   0.00000  Uiso   1.00
H470   H     0.29957   0.87814   0.03402   0.00000  Uiso   1.00
H471   H     0.11341   0.74602   0.18935   0.00000  Uiso   1.00
H472   H     0.08124   0.70570   0.20589   0.00000  Uiso   1.00
H473   H     0.23408   0.92931   0.30367   0.00000  Uiso   1.00
H474   H     0.19531   0.94256   0.33962   0.00000  Uiso   1.00
H475   H     0.23430   0.73929   0.30382   0.00000  Uiso   1.00
H476   H     0.19598   0.72547   0.34005   0.00000  Uiso   1.00
H477   H     0.08441   0.95623   0.19652   0.00000  Uiso   1.00
H478   H     0.22861   0.85311   0.11632   0.00000  Uiso   1.00
H479   H     0.12101   0.95862   0.15786   0.00000  Uiso   1.00
H480   H     0.06540   0.80133   0.03370   0.00000  Uiso   1.00
H481   H     0.26813   0.86452   0.46625   0.00000  Uiso   1.00
H482   H     0.03715   0.75857   0.25148   0.00000  Uiso   1.00
H483   H     0.29618   0.90816   0.24901   0.00000  Uiso   1.00
H484   H     0.29589   0.75859   0.25138   0.00000  Uiso   1.00
H485   H     0.03746   0.90810   0.24893   0.00000  Uiso   1.00
H486   H     0.06153   0.76563   0.43189   0.00000  Uiso   1.00
N487   N     0.16667   0.95069   0.25000   0.00000  Uiso   1.00
N488   N     0.11506   0.94838   0.19026   0.00000  Uiso   1.00
N489   N     0.16667   0.71598   0.25000   0.00000  Uiso   1.00
N490   N     0.27134   0.86429   0.36724   0.00000  Uiso   1.00
N491   N     0.06175   0.80318   0.13261   0.00000  Uiso   1.00
N492   N     0.05731   0.79856   0.44561   0.00000  Uiso   1.00
N493   N     0.27649   0.86627   0.05436   0.00000  Uiso   1.00
N494   N     0.10990   0.71094   0.19210   0.00000  Uiso   1.00
N495   N     0.21471   0.95466   0.31550   0.00000  Uiso   1.00
N496   N     0.21511   0.71375   0.31531   0.00000  Uiso   1.00
O497   O     0.10655   0.87291   0.24999   0.00000  Uiso   1.00
O498   O     0.22679   0.79375   0.25000   0.00000  Uiso   1.00
O499   O     0.22679   0.87291   0.25000   0.00000  Uiso   1.00
O500   O     0.10655   0.79375   0.24999   0.00000  Uiso   1.00
O501   O     0.16666   0.87293   0.18513   0.00000  Uiso   1.00
O502   O     0.16668   0.79373   0.31487   0.00000  Uiso   1.00
O503   O     0.16668   0.87293   0.31487   0.00000  Uiso   1.00
O504   O     0.16666   0.79373   0.18513   0.00000  Uiso   1.00
C505   C     0.42082   0.83330   0.24995   0.00000  Uiso   1.00
C506   C     0.37614   0.83330   0.25005   0.00000  Uiso   1.00
C507   C     0.47391   0.69013   0.22124   0.00000  Uiso   1.00
C508   C     0.52422   0.97605   0.28022   0.00000  Uiso   1.00
C509   C     0.52445   0.69152   0.28005   0.00000  Uiso   1.00
C510   C     0.47483   0.97413   0.22086   0.00000  Uiso   1.00
C511   C     0.49956   0.83313   0.16469   0.00000  Uiso   1.00
C512   C     0.50042   0.83354   0.33530   0.00000  Uiso   1.00
C513   C     0.53760   0.84523   0.40849   0.00000  Uiso   1.00
C514   C     0.46242   0.82136   0.09147   0.00000  Uiso   1.00
C515   C     0.50133   0.83393   0.38355   0.00000  Uiso   1.00
C516   C     0.57918   0.83337   0.25011   0.00000  Uiso   1.00
C517   C     0.49867   0.83269   0.11643   0.00000  Uiso   1.00
C518   C     0.46530   0.82210   0.40429   0.00000  Uiso   1.00
C519   C     0.53477   0.84426   0.09569   0.00000  Uiso   1.00
C520   C     0.46421   0.82163   0.45072   0.00000  Uiso   1.00
C521   C     0.53601   0.84418   0.04925   0.00000  Uiso   1.00
C522   C     0.50043   0.83310   0.47654   0.00000  Uiso   1.00
C523   C     0.49976   0.83283   0.02343   0.00000  Uiso   1.00
C524   C     0.53730   0.84485   0.45545   0.00000  Uiso   1.00
C525   C     0.46281   0.82137   0.04452   0.00000  Uiso   1.00
C526   C     0.42754   0.81016   0.47168   0.00000  Uiso   1.00
C527   C     0.42718   0.81028   0.01823   0.00000  Uiso   1.00
C528   C     0.57275   0.85536   0.02829   0.00000  Uiso   1.00
C529   C     0.57492   0.85589   0.38555   0.00000  Uiso   1.00
C530   C     0.42495   0.81118   0.11437   0.00000  Uiso   1.00
C531   C     0.57298   0.85576   0.48173   0.00000  Uiso   1.00
C532   C     0.35456   0.79138   0.25082   0.00000  Uiso   1.00
C533   C     0.64545   0.87533   0.24952   0.00000  Uiso   1.00
C534   C     0.64528   0.79142   0.25084   0.00000  Uiso   1.00
C535   C     0.35473   0.87528   0.24945   0.00000  Uiso   1.00
C536   C     0.62386   0.83339   0.25016   0.00000  Uiso   1.00
Cu537  Cu    0.50000   0.88022   0.25000   0.00000  Uiso   1.00
Cu538  Cu    0.50000   0.78645   0.25000   0.00000  Uiso   1.00
H539   H     0.43804   0.81362   0.38366   0.00000  Uiso   1.00
H540   H     0.36530   0.79623   0.46587   0.00000  Uiso   1.00
H541   H     0.62069   0.83551   0.06846   0.00000  Uiso   1.00
H542   H     0.63291   0.87814   0.03402   0.00000  Uiso   1.00
H543   H     0.44674   0.74602   0.18935   0.00000  Uiso   1.00
H544   H     0.41457   0.70570   0.20589   0.00000  Uiso   1.00
H545   H     0.56741   0.92931   0.30367   0.00000  Uiso   1.00
H546   H     0.52864   0.94256   0.33962   0.00000  Uiso   1.00
H547   H     0.56763   0.73929   0.30382   0.00000  Uiso   1.00
H548   H     0.52931   0.72547   0.34005   0.00000  Uiso   1.00
H549   H     0.41774   0.95623   0.19652   0.00000  Uiso   1.00
H550   H     0.56195   0.85311   0.11632   0.00000  Uiso   1.00
H551   H     0.45435   0.95862   0.15786   0.00000  Uiso   1.00
H552   H     0.39874   0.80133   0.03370   0.00000  Uiso   1.00
H553   H     0.60146   0.86452   0.46625   0.00000  Uiso   1.00
H554   H     0.37048   0.75857   0.25148   0.00000  Uiso   1.00
H555   H     0.62952   0.90816   0.24901   0.00000  Uiso   1.00
H556   H     0.62923   0.75859   0.25138   0.00000  Uiso   1.00
H557   H     0.37079   0.90810   0.24893   0.00000  Uiso   1.00
H558   H     0.39486   0.76563   0.43189   0.00000  Uiso   1.00
N559   N     0.50000   0.95069   0.25000   0.00000  Uiso   1.00
N560   N     0.44839   0.94838   0.19026   0.00000  Uiso   1.00
N561   N     0.50000   0.71598   0.25000   0.00000  Uiso   1.00
N562   N     0.60468   0.86429   0.36724   0.00000  Uiso   1.00
N563   N     0.39508   0.80318   0.13261   0.00000  Uiso   1.00
N564   N     0.39065   0.79856   0.44561   0.00000  Uiso   1.00
N565   N     0.60982   0.86627   0.05436   0.00000  Uiso   1.00
N566   N     0.44323   0.71094   0.19210   0.00000  Uiso   1.00
N567   N     0.54804   0.95466   0.31550   0.00000  Uiso   1.00
N568   N     0.54845   0.71375   0.31531   0.00000  Uiso   1.00
O569   O     0.43988   0.87291   0.24999   0.00000  Uiso   1.00
O570   O     0.56012   0.79375   0.25000   0.00000  Uiso   1.00
O571   O     0.56012   0.87291   0.25000   0.00000  Uiso   1.00
O572   O     0.43988   0.79375   0.24999   0.00000  Uiso   1.00
O573   O     0.49999   0.87293   0.18513   0.00000  Uiso   1.00
O574   O     0.50001   0.79373   0.31487   0.00000  Uiso   1.00
O575   O     0.50001   0.87293   0.31487   0.00000  Uiso   1.00
O576   O     0.49999   0.79373   0.18513   0.00000  Uiso   1.00
C577   C     0.75416   0.83330   0.24995   0.00000  Uiso   1.00
C578   C     0.70947   0.83330   0.25005   0.00000  Uiso   1.00
C579   C     0.80724   0.69013   0.22124   0.00000  Uiso   1.00
C580   C     0.85756   0.97605   0.28022   0.00000  Uiso   1.00
C581   C     0.85779   0.69152   0.28005   0.00000  Uiso   1.00
C582   C     0.80817   0.97413   0.22086   0.00000  Uiso   1.00
C583   C     0.83290   0.83313   0.16469   0.00000  Uiso   1.00
C584   C     0.83375   0.83354   0.33530   0.00000  Uiso   1.00
C585   C     0.87093   0.84523   0.40849   0.00000  Uiso   1.00
C586   C     0.79575   0.82136   0.09147   0.00000  Uiso   1.00
C587   C     0.83467   0.83393   0.38355   0.00000  Uiso   1.00
C588   C     0.91251   0.83337   0.25011   0.00000  Uiso   1.00
C589   C     0.83200   0.83269   0.11643   0.00000  Uiso   1.00
C590   C     0.79864   0.82210   0.40429   0.00000  Uiso   1.00
C591   C     0.86810   0.84426   0.09569   0.00000  Uiso   1.00
C592   C     0.79754   0.82163   0.45072   0.00000  Uiso   1.00
C593   C     0.86934   0.84418   0.04925   0.00000  Uiso   1.00
C594   C     0.83376   0.83310   0.47654   0.00000  Uiso   1.00
C595   C     0.83310   0.83283   0.02343   0.00000  Uiso   1.00
C596   C     0.87064   0.84485   0.45545   0.00000  Uiso   1.00
C597   C     0.79614   0.82137   0.04452   0.00000  Uiso   1.00
C598   C     0.76088   0.81016   0.47168   0.00000  Uiso   1.00
C599   C     0.76051   0.81028   0.01823   0.00000  Uiso   1.00
C600   C     0.90608   0.85536   0.02829   0.00000  Uiso   1.00
C601   C     0.90826   0.85589   0.38555   0.00000  Uiso   1.00
C602   C     0.75829   0.81118   0.11437   0.00000  Uiso   1.00
C603   C     0.90632   0.85576   0.48173   0.00000  Uiso   1.00
C604   C     0.68789   0.79138   0.25082   0.00000  Uiso   1.00
C605   C     0.97878   0.87533   0.24952   0.00000  Uiso   1.00
C606   C     0.97861   0.79142   0.25084   0.00000  Uiso   1.00
C607   C     0.68806   0.87528   0.24945   0.00000  Uiso   1.00
C608   C     0.95720   0.83339   0.25016   0.00000  Uiso   1.00
Cu609  Cu    0.83333   0.88022   0.25000   0.00000  Uiso   1.00
Cu610  Cu    0.83333   0.78645   0.25000   0.00000  Uiso   1.00
H611   H     0.77137   0.81362   0.38366   0.00000  Uiso   1.00
H612   H     0.69864   0.79623   0.46587   0.00000  Uiso   1.00
H613   H     0.95402   0.83551   0.06846   0.00000  Uiso   1.00
H614   H     0.96624   0.87814   0.03402   0.00000  Uiso   1.00
H615   H     0.78007   0.74602   0.18935   0.00000  Uiso   1.00
H616   H     0.74791   0.70570   0.20589   0.00000  Uiso   1.00
H617   H     0.90074   0.92931   0.30367   0.00000  Uiso   1.00
H618   H     0.86197   0.94256   0.33962   0.00000  Uiso   1.00
H619   H     0.90096   0.73929   0.30382   0.00000  Uiso   1.00
H620   H     0.86265   0.72547   0.34005   0.00000  Uiso   1.00
H621   H     0.75108   0.95623   0.19652   0.00000  Uiso   1.00
H622   H     0.89528   0.85311   0.11632   0.00000  Uiso   1.00
H623   H     0.78768   0.95862   0.15786   0.00000  Uiso   1.00
H624   H     0.73207   0.80133   0.03370   0.00000  Uiso   1.00
H625   H     0.93480   0.86452   0.46625   0.00000  Uiso   1.00
H626   H     0.70381   0.75857   0.25148   0.00000  Uiso   1.00
H627   H     0.96285   0.90816   0.24901   0.00000  Uiso   1.00
H628   H     0.96256   0.75859   0.25138   0.00000  Uiso   1.00
H629   H     0.70412   0.90810   0.24893   0.00000  Uiso   1.00
H630   H     0.72820   0.76563   0.43189   0.00000  Uiso   1.00
N631   N     0.83333   0.95069   0.25000   0.00000  Uiso   1.00
N632   N     0.78172   0.94838   0.19026   0.00000  Uiso   1.00
N633   N     0.83333   0.71598   0.25000   0.00000  Uiso   1.00
N634   N     0.93801   0.86429   0.36724   0.00000  Uiso   1.00
N635   N     0.72841   0.80318   0.13261   0.00000  Uiso   1.00
N636   N     0.72398   0.79856   0.44561   0.00000  Uiso   1.00
N637   N     0.94315   0.86627   0.05436   0.00000  Uiso   1.00
N638   N     0.77656   0.71094   0.19210   0.00000  Uiso   1.00
N639   N     0.88137   0.95466   0.31550   0.00000  Uiso   1.00
N640   N     0.88178   0.71375   0.31531   0.00000  Uiso   1.00
O641   O     0.77321   0.87291   0.24999   0.00000  Uiso   1.00
O642   O     0.89345   0.79375   0.25000   0.00000  Uiso   1.00
O643   O     0.89345   0.87291   0.25000   0.00000  Uiso   1.00
O644   O     0.77321   0.79375   0.24999   0.00000  Uiso   1.00
O645   O     0.83332   0.87293   0.18513   0.00000  Uiso   1.00
O646   O     0.83334   0.79373   0.31487   0.00000  Uiso   1.00
O647   O     0.83334   0.87293   0.31487   0.00000  Uiso   1.00
O648   O     0.83332   0.79373   0.18513   0.00000  Uiso   1.00
C649   C     0.08749   0.16663   0.74995   0.00000  Uiso   1.00
C650   C     0.04281   0.16664   0.75005   0.00000  Uiso   1.00
C651   C     0.14057   0.02346   0.72124   0.00000  Uiso   1.00
C652   C     0.19089   0.30939   0.78022   0.00000  Uiso   1.00
C653   C     0.19112   0.02485   0.78005   0.00000  Uiso   1.00
C654   C     0.14150   0.30747   0.72086   0.00000  Uiso   1.00
C655   C     0.16623   0.16646   0.66469   0.00000  Uiso   1.00
C656   C     0.16708   0.16687   0.83530   0.00000  Uiso   1.00
C657   C     0.20426   0.17856   0.90849   0.00000  Uiso   1.00
C658   C     0.12908   0.15469   0.59147   0.00000  Uiso   1.00
C659   C     0.16800   0.16726   0.88355   0.00000  Uiso   1.00
C660   C     0.24585   0.16671   0.75011   0.00000  Uiso   1.00
C661   C     0.16534   0.16602   0.61643   0.00000  Uiso   1.00
C662   C     0.13197   0.15544   0.90429   0.00000  Uiso   1.00
C663   C     0.20144   0.17759   0.59569   0.00000  Uiso   1.00
C664   C     0.13088   0.15497   0.95072   0.00000  Uiso   1.00
C665   C     0.20267   0.17751   0.54925   0.00000  Uiso   1.00
C666   C     0.16709   0.16644   0.97654   0.00000  Uiso   1.00
C667   C     0.16643   0.16616   0.52343   0.00000  Uiso   1.00
C668   C     0.20397   0.17818   0.95545   0.00000  Uiso   1.00
C669   C     0.12948   0.15470   0.54452   0.00000  Uiso   1.00
C670   C     0.09421   0.14350   0.97168   0.00000  Uiso   1.00
C671   C     0.09384   0.14362   0.51823   0.00000  Uiso   1.00
C672   C     0.23942   0.18869   0.52829   0.00000  Uiso   1.00
C673   C     0.24159   0.18922   0.88555   0.00000  Uiso   1.00
C674   C     0.09162   0.14451   0.61437   0.00000  Uiso   1.00
C675   C     0.23965   0.18909   0.98173   0.00000  Uiso   1.00
C676   C     0.02122   0.12472   0.75082   0.00000  Uiso   1.00
C677   C     0.31211   0.20866   0.74952   0.00000  Uiso   1.00
C678   C     0.31194   0.12475   0.75084   0.00000  Uiso   1.00
C679   C     0.02140   0.20862   0.74945   0.00000  Uiso   1.00
C680   C     0.29053   0.16672   0.75016   0.00000  Uiso   1.00
Cu681  Cu    0.16667   0.21355   0.75000   0.00000  Uiso   1.00
Cu682  Cu    0.16667   0.11978   0.75000   0.00000  Uiso   1.00
H683   H     0.10470   0.14695   0.88366   0.00000  Uiso   1.00
H684   H     0.03197   0.12956   0.96587   0.00000  Uiso   1.00
H685   H     0.28736   0.16885   0.56846   0.00000  Uiso   1.00
H686   H     0.29957   0.21147   0.53402   0.00000  Uiso   1.00
H687   H     0.11341   0.07936   0.68935   0.00000  Uiso   1.00
H688   H     0.08124   0.03903   0.70589   0.00000  Uiso   1.00
H689   H     0.23408   0.26265   0.80367   0.00000  Uiso   1.00
H690   H     0.19531   0.27590   0.83962   0.00000  Uiso   1.00
H691   H     0.23430   0.07263   0.80382   0.00000  Uiso   1.00
H692   H     0.19598   0.05880   0.84005   0.00000  Uiso   1.00
H693   H     0.08441   0.28956   0.69652   0.00000  Uiso   1.00
H694   H     0.22861   0.18644   0.61632   0.00000  Uiso   1.00
H695   H     0.12101   0.29195   0.65786   0.00000  Uiso   1.00
H696   H     0.06540   0.13466   0.53370   0.00000  Uiso   1.00
H697   H     0.26813   0.19785   0.96625   0.00000  Uiso   1.00
H698   H     0.03715   0.09190   0.75148   0.00000  Uiso   1.00
H699   H     0.29618   0.24149   0.74901   0.00000  Uiso   1.00
H700   H     0.29589   0.09193   0.75138   0.00000  Uiso   1.00
H701   H     0.03746   0.24143   0.74893   0.00000  Uiso   1.00
H702   H     0.06153   0.09897   0.93189   0.00000  Uiso   1.00
N703   N     0.16667   0.28402   0.75000   0.00000  Uiso   1.00
N704   N     0.11506   0.28171   0.69026   0.00000  Uiso   1.00
N705   N     0.16667   0.04931   0.75000   0.00000  Uiso   1.00
N706   N     0.27134   0.19763   0.86724   0.00000  Uiso   1.00
N707   N     0.06175   0.13651   0.63261   0.00000  Uiso   1.00
N708   N     0.05731   0.13189   0.94561   0.00000  Uiso   1.00
N709   N     0.27649   0.19961   0.55436   0.00000  Uiso   1.00
N710   N     0.10990   0.04427   0.69210   0.00000  Uiso   1.00
N711   N     0.21471   0.28799   0.81550   0.00000  Uiso   1.00
N712   N     0.21511   0.04709   0.81531   0.00000  Uiso   1.00
O713   O     0.10655   0.20625   0.74999   0.00000  Uiso   1.00
O714   O     0.22679   0.12709   0.75000   0.00000  Uiso   1.00
O715   O     0.22679   0.20625   0.75000   0.00000  Uiso   1.00
O716   O     0.10655   0.12709   0.74999   0.00000  Uiso   1.00
O717   O     0.16666   0.20627   0.68513   0.00000  Uiso   1.00
O718   O     0.16668   0.12707   0.81487   0.00000  Uiso   1.00
O719   O     0.16668   0.20627   0.81487   0.00000  Uiso   1.00
O720   O     0.16666   0.12707   0.68513   0.00000  Uiso   1.00
C721   C     0.42082   0.16663   0.74995   0.00000  Uiso   1.00
C722   C     0.37614   0.16664   0.75005   0.00000  Uiso   1.00
C723   C     0.47391   0.02346   0.72124   0.00000  Uiso   1.00
C724   C     0.52422   0.30939   0.78022   0.00000  Uiso   1.00
C725   C     0.52445   0.02485   0.78005   0.00000  Uiso   1.00
C726   C     0.47483   0.30747   0.72086   0.00000  Uiso   1.00
C727   C     0.49956   0.16646   0.66469   0.00000  Uiso   1.00
C728   C     0.50042   0.16687   0.83530   0.00000  Uiso   1.00
C729   C     0.53760   0.17856   0.90849   0.00000  Uiso   1.00
C730   C     0.46242   0.15469   0.59147   0.00000  Uiso   1.00
C731   C     0.50133   0.16726   0.88355   0.00000  Uiso   1.00
C732   C     0.57918   0.16671   0.75011   0.00000  Uiso   1.00
C733   C     0.49867   0.16602   0.61643   0.00000  Uiso   1.00
C734   C     0.46530   0.15544   0.90429   0.00000  Uiso   1.00
C735   C     0.53477   0.17759   0.59569   0.00000  Uiso   1.00
C736   C     0.46421   0.15497   0.95072   0.00000  Uiso   1.00
C737   C     0.53601   0.17751   0.54925   0.00000  Uiso   1.00
C738   C     0.50043   0.16644   0.97654   0.00000  Uiso   1.00
C739   C     0.49976   0.16616   0.52343   0.00000  Uiso   1.00
C740   C     0.53730   0.17818   0.95545   0.00000  Uiso   1.00
C741   C     0.46281   0.15470   0.54452   0.00000  Uiso   1.00
C742   C     0.42754   0.14350   0.97168   0.00000  Uiso   1.00
C743   C     0.42718   0.14362   0.51823   0.00000  Uiso   1.00
C744   C     0.57275   0.18869   0.52829   0.00000  Uiso   1.00
C745   C     0.57492   0.18922   0.88555   0.00000  Uiso   1.00
C746   C     0.42495   0.14451   0.61437   0.00000  Uiso   1.00
C747   C     0.57298   0.18909   0.98173   0.00000  Uiso   1.00
C748   C     0.35456   0.12472   0.75082   0.00000  Uiso   1.00
C749   C     0.64545   0.20866   0.74952   0.00000  Uiso   1.00
C750   C     0.64528   0.12475   0.75084   0.00000  Uiso   1.00
C751   C     0.35473   0.20862   0.74945   0.00000  Uiso   1.00
C752   C     0.62386   0.16672   0.75016   0.00000  Uiso   1.00
Cu753  Cu    0.50000   0.21355   0.75000   0.00000  Uiso   1.00
Cu754  Cu    0.50000   0.11978   0.75000   0.00000  Uiso   1.00
H755   H     0.43804   0.14695   0.88366   0.00000  Uiso   1.00
H756   H     0.36530   0.12956   0.96587   0.00000  Uiso   1.00
H757   H     0.62069   0.16885   0.56846   0.00000  Uiso   1.00
H758   H     0.63291   0.21147   0.53402   0.00000  Uiso   1.00
H759   H     0.44674   0.07936   0.68935   0.00000  Uiso   1.00
H760   H     0.41457   0.03903   0.70589   0.00000  Uiso   1.00
H761   H     0.56741   0.26265   0.80367   0.00000  Uiso   1.00
H762   H     0.52864   0.27590   0.83962   0.00000  Uiso   1.00
H763   H     0.56763   0.07263   0.80382   0.00000  Uiso   1.00
H764   H     0.52931   0.05880   0.84005   0.00000  Uiso   1.00
H765   H     0.41774   0.28956   0.69652   0.00000  Uiso   1.00
H766   H     0.56195   0.18644   0.61632   0.00000  Uiso   1.00
H767   H     0.45435   0.29195   0.65786   0.00000  Uiso   1.00
H768   H     0.39874   0.13466   0.53370   0.00000  Uiso   1.00
H769   H     0.60146   0.19785   0.96625   0.00000  Uiso   1.00
H770   H     0.37048   0.09190   0.75148   0.00000  Uiso   1.00
H771   H     0.62952   0.24149   0.74901   0.00000  Uiso   1.00
H772   H     0.62923   0.09193   0.75138   0.00000  Uiso   1.00
H773   H     0.37079   0.24143   0.74893   0.00000  Uiso   1.00
H774   H     0.39486   0.09897   0.93189   0.00000  Uiso   1.00
N775   N     0.50000   0.28402   0.75000   0.00000  Uiso   1.00
N776   N     0.44839   0.28171   0.69026   0.00000  Uiso   1.00
N777   N     0.50000   0.04931   0.75000   0.00000  Uiso   1.00
N778   N     0.60468   0.19763   0.86724   0.00000  Uiso   1.00
N779   N     0.39508   0.13651   0.63261   0.00000  Uiso   1.00
N780   N     0.39065   0.13189   0.94561   0.00000  Uiso   1.00
N781   N     0.60982   0.19961   0.55436   0.00000  Uiso   1.00
N782   N     0.44323   0.04427   0.69210   0.00000  Uiso   1.00
N783   N     0.54804   0.28799   0.81550   0.00000  Uiso   1.00
N784   N     0.54845   0.04709   0.81531   0.00000  Uiso   1.00
O785   O     0.43988   0.20625   0.74999   0.00000  Uiso   1.00
O786   O     0.56012   0.12709   0.75000   0.00000  Uiso   1.00
O787   O     0.56012   0.20625   0.75000   0.00000  Uiso   1.00
O788   O     0.43988   0.12709   0.74999   0.00000  Uiso   1.00
O789   O     0.49999   0.20627   0.68513   0.00000  Uiso   1.00
O790   O     0.50001   0.12707   0.81487   0.00000  Uiso   1.00
O791   O     0.50001   0.20627   0.81487   0.00000  Uiso   1.00
O792   O     0.49999   0.12707   0.68513   0.00000  Uiso   1.00
C793   C     0.75416   0.16663   0.74995   0.00000  Uiso   1.00
C794   C     0.70947   0.16664   0.75005   0.00000  Uiso   1.00
C795   C     0.80724   0.02346   0.72124   0.00000  Uiso   1.00
C796   C     0.85756   0.30939   0.78022   0.00000  Uiso   1.00
C797   C     0.85779   0.02485   0.78005   0.00000  Uiso   1.00
C798   C     0.80817   0.30747   0.72086   0.00000  Uiso   1.00
C799   C     0.83290   0.16646   0.66469   0.00000  Uiso   1.00
C800   C     0.83375   0.16687   0.83530   0.00000  Uiso   1.00
C801   C     0.87093   0.17856   0.90849   0.00000  Uiso   1.00
C802   C     0.79575   0.15469   0.59147   0.00000  Uiso   1.00
C803   C     0.83467   0.16726   0.88355   0.00000  Uiso   1.00
C804   C     0.91251   0.16671   0.75011   0.00000  Uiso   1.00
C805   C     0.83200   0.16602   0.61643   0.00000  Uiso   1.00
C806   C     0.79864   0.15544   0.90429   0.00000  Uiso   1.00
C807   C     0.86810   0.17759   0.59569   0.00000  Uiso   1.00
C808   C     0.79754   0.15497   0.95072   0.00000  Uiso   1.00
C809   C     0.86934   0.17751   0.54925   0.00000  Uiso   1.00
C810   C     0.83376   0.16644   0.97654   0.00000  Uiso   1.00
C811   C     0.83310   0.16616   0.52343   0.00000  Uiso   1.00
C812   C     0.87064   0.17818   0.95545   0.00000  Uiso   1.00
C813   C     0.79614   0.15470   0.54452   0.00000  Uiso   1.00
C814   C     0.76088   0.14350   0.97168   0.00000  Uiso   1.00
C815   C     0.76051   0.14362   0.51823   0.00000  Uiso   1.00
C816   C     0.90608   0.18869   0.52829   0.00000  Uiso   1.00
C817   C     0.90826   0.18922   0.88555   0.00000  Uiso   1.00
C818   C     0.75829   0.14451   0.61437   0.00000  Uiso   1.00
C819   C     0.90632   0.18909   0.98173   0.00000  Uiso   1.00
C820   C     0.68789   0.12472   0.75082   0.00000  Uiso   1.00
C821   C     0.97878   0.20866   0.74952   0.00000  Uiso   1.00
C822   C     0.97861   0.12475   0.75084   0.00000  Uiso   1.00
C823   C     0.68806   0.20862   0.74945   0.00000  Uiso   1.00
C824   C     0.95720   0.16672   0.75016   0.00000  Uiso   1.00
Cu825  Cu    0.83333   0.21355   0.75000   0.00000  Uiso   1.00
Cu826  Cu    0.83333   0.11978   0.75000   0.00000  Uiso   1.00
H827   H     0.77137   0.14695   0.88366   0.00000  Uiso   1.00
H828   H     0.69864   0.12956   0.96587   0.00000  Uiso   1.00
H829   H     0.95402   0.16885   0.56846   0.00000  Uiso   1.00
H830   H     0.96624   0.21147   0.53402   0.00000  Uiso   1.00
H831   H     0.78007   0.07936   0.68935   0.00000  Uiso   1.00
H832   H     0.74791   0.03903   0.70589   0.00000  Uiso   1.00
H833   H     0.90074   0.26265   0.80367   0.00000  Uiso   1.00
H834   H     0.86197   0.27590   0.83962   0.00000  Uiso   1.00
H835   H     0.90096   0.07263   0.80382   0.00000  Uiso   1.00
H836   H     0.86265   0.05880   0.84005   0.00000  Uiso   1.00
H837   H     0.75108   0.28956   0.69652   0.00000  Uiso   1.00
H838   H     0.89528   0.18644   0.61632   0.00000  Uiso   1.00
H839   H     0.78768   0.29195   0.65786   0.00000  Uiso   1.00
H840   H     0.73207   0.13466   0.53370   0.00000  Uiso   1.00
H841   H     0.93480   0.19785   0.96625   0.00000  Uiso   1.00
H842   H     0.70381   0.09190   0.75148   0.00000  Uiso   1.00
H843   H     0.96285   0.24149   0.74901   0.00000  Uiso   1.00
H844   H     0.96256   0.09193   0.75138   0.00000  Uiso   1.00
H845   H     0.70412   0.24143   0.74893   0.00000  Uiso   1.00
H846   H     0.72820   0.09897   0.93189   0.00000  Uiso   1.00
N847   N     0.83333   0.28402   0.75000   0.00000  Uiso   1.00
N848   N     0.78172   0.28171   0.69026   0.00000  Uiso   1.00
N849   N     0.83333   0.04931   0.75000   0.00000  Uiso   1.00
N850   N     0.93801   0.19763   0.86724   0.00000  Uiso   1.00
N851   N     0.72841   0.13651   0.63261   0.00000  Uiso   1.00
N852   N     0.72398   0.13189   0.94561   0.00000  Uiso   1.00
N853   N     0.94315   0.19961   0.55436   0.00000  Uiso   1.00
N854   N     0.77656   0.04427   0.69210   0.00000  Uiso   1.00
N855   N     0.88137   0.28799   0.81550   0.00000  Uiso   1.00
N856   N     0.88178   0.04709   0.81531   0.00000  Uiso   1.00
O857   O     0.77321   0.20625   0.74999   0.00000  Uiso   1.00
O858   O     0.89345   0.12709   0.75000   0.00000  Uiso   1.00
O859   O     0.89345   0.20625   0.75000   0.00000  Uiso   1.00
O860   O     0.77321   0.12709   0.74999   0.00000  Uiso   1.00
O861   O     0.83332   0.20627   0.68513   0.00000  Uiso   1.00
O862   O     0.83334   0.12707   0.81487   0.00000  Uiso   1.00
O863   O     0.83334   0.20627   0.81487   0.00000  Uiso   1.00
O864   O     0.83332   0.12707   0.68513   0.00000  Uiso   1.00
C865   C     0.08749   0.49997   0.74995   0.00000  Uiso   1.00
C866   C     0.04281   0.49997   0.75005   0.00000  Uiso   1.00
C867   C     0.14057   0.35679   0.72124   0.00000  Uiso   1.00
C868   C     0.19089   0.64272   0.78022   0.00000  Uiso   1.00
C869   C     0.19112   0.35819   0.78005   0.00000  Uiso   1.00
C870   C     0.14150   0.64080   0.72086   0.00000  Uiso   1.00
C871   C     0.16623   0.49980   0.66469   0.00000  Uiso   1.00
C872   C     0.16708   0.50020   0.83530   0.00000  Uiso   1.00
C873   C     0.20426   0.51189   0.90849   0.00000  Uiso   1.00
C874   C     0.12908   0.48802   0.59147   0.00000  Uiso   1.00
C875   C     0.16800   0.50060   0.88355   0.00000  Uiso   1.00
C876   C     0.24585   0.50004   0.75011   0.00000  Uiso   1.00
C877   C     0.16534   0.49936   0.61643   0.00000  Uiso   1.00
C878   C     0.13197   0.48877   0.90429   0.00000  Uiso   1.00
C879   C     0.20144   0.51093   0.59569   0.00000  Uiso   1.00
C880   C     0.13088   0.48830   0.95072   0.00000  Uiso   1.00
C881   C     0.20267   0.51084   0.54925   0.00000  Uiso   1.00
C882   C     0.16709   0.49977   0.97654   0.00000  Uiso   1.00
C883   C     0.16643   0.49949   0.52343   0.00000  Uiso   1.00
C884   C     0.20397   0.51152   0.95545   0.00000  Uiso   1.00
C885   C     0.12948   0.48804   0.54452   0.00000  Uiso   1.00
C886   C     0.09421   0.47683   0.97168   0.00000  Uiso   1.00
C887   C     0.09384   0.47695   0.51823   0.00000  Uiso   1.00
C888   C     0.23942   0.52202   0.52829   0.00000  Uiso   1.00
C889   C     0.24159   0.52256   0.88555   0.00000  Uiso   1.00
C890   C     0.09162   0.47784   0.61437   0.00000  Uiso   1.00
C891   C     0.23965   0.52243   0.98173   0.00000  Uiso   1.00
C892   C     0.02122   0.45805   0.75082   0.00000  Uiso   1.00
C893   C     0.31211   0.54200   0.74952   0.00000  Uiso   1.00
C894   C     0.31194   0.45808   0.75084   0.00000  Uiso   1.00
C895   C     0.02140   0.54195   0.74945   0.00000  Uiso   1.00
C896   C     0.29053   0.50006   0.75016   0.00000  Uiso   1.00
Cu897  Cu    0.16667   0.54689   0.75000   0.00000  Uiso   1.00
Cu898  Cu    0.16667   0.45311   0.75000   0.00000  Uiso   1.00
H899   H     0.10470   0.48029   0.88366   0.00000  Uiso   1.00
H900   H     0.03197   0.46289   0.96587   0.00000  Uiso   1.00
H901   H     0.28736   0.50218   0.56846   0.00000  Uiso   1.00
H902   H     0.29957   0.54481   0.53402   0.00000  Uiso   1.00
H903   H     0.11341   0.41269   0.68935   0.00000  Uiso   1.00
H904   H     0.08124   0.37236   0.70589   0.00000  Uiso   1.00
H905   H     0.23408   0.59598   0.80367   0.00000  Uiso   1.00
H906   H     0.19531   0.60923   0.83962   0.00000  Uiso   1.00
H907   H     0.23430   0.40596   0.80382   0.00000  Uiso   1.00
H908   H     0.19598   0.39213   0.84005   0.00000  Uiso   1.00
H909   H     0.08441   0.62290   0.69652   0.00000  Uiso   1.00
H910   H     0.22861   0.51977   0.61632   0.00000  Uiso   1.00
H911   H     0.12101   0.62529   0.65786   0.00000  Uiso   1.00
H912   H     0.06540   0.46799   0.53370   0.00000  Uiso   1.00
H913   H     0.26813   0.53119   0.96625   0.00000  Uiso   1.00
H914   H     0.03715   0.42524   0.75148   0.00000  Uiso   1.00
H915   H     0.29618   0.57482   0.74901   0.00000  Uiso   1.00
H916   H     0.29589   0.42526   0.75138   0.00000  Uiso   1.00
H917   H     0.03746   0.57477   0.74893   0.00000  Uiso   1.00
H918   H     0.06153   0.43230   0.93189   0.00000  Uiso   1.00
N919   N     0.16667   0.61736   0.75000   0.00000  Uiso   1.00
N920   N     0.11506   0.61504   0.69026   0.00000  Uiso   1.00
N921   N     0.16667   0.38264   0.75000   0.00000  Uiso   1.00
N922   N     0.27134   0.53096   0.86724   0.00000  Uiso   1.00
N923   N     0.06175   0.46984   0.63261   0.00000  Uiso   1.00
N924   N     0.05731   0.46522   0.94561   0.00000  Uiso   1.00
N925   N     0.27649   0.53294   0.55436   0.00000  Uiso   1.00
N926   N     0.10990   0.37760   0.69210   0.00000  Uiso   1.00
N927   N     0.21471   0.62132   0.81550   0.00000  Uiso   1.00
N928   N     0.21511   0.38042   0.81531   0.00000  Uiso   1.00
O929   O     0.10655   0.53958   0.74999   0.00000  Uiso   1.00
O930   O     0.22679   0.46042   0.75000   0.00000  Uiso   1.00
O931   O     0.22679   0.53958   0.75000   0.00000  Uiso   1.00
O932   O     0.10655   0.46042   0.74999   0.00000  Uiso   1.00
O933   O     0.16666   0.53960   0.68513   0.00000  Uiso   1.00
O934   O     0.16668   0.46040   0.81487   0.00000  Uiso   1.00
O935   O     0.16668   0.53960   0.81487   0.00000  Uiso   1.00
O936   O     0.16666   0.46040   0.68513   0.00000  Uiso   1.00
C937   C     0.42082   0.49997   0.74995   0.00000  Uiso   1.00
C938   C     0.37614   0.49997   0.75005   0.00000  Uiso   1.00
C939   C     0.47391   0.35679   0.72124   0.00000  Uiso   1.00
C940   C     0.52422   0.64272   0.78022   0.00000  Uiso   1.00
C941   C     0.52445   0.35819   0.78005   0.00000  Uiso   1.00
C942   C     0.47483   0.64080   0.72086   0.00000  Uiso   1.00
C943   C     0.49956   0.49980   0.66469   0.00000  Uiso   1.00
C944   C     0.50042   0.50020   0.83530   0.00000  Uiso   1.00
C945   C     0.53760   0.51189   0.90849   0.00000  Uiso   1.00
C946   C     0.46242   0.48802   0.59147   0.00000  Uiso   1.00
C947   C     0.50133   0.50060   0.88355   0.00000  Uiso   1.00
C948   C     0.57918   0.50004   0.75011   0.00000  Uiso   1.00
C949   C     0.49867   0.49936   0.61643   0.00000  Uiso   1.00
C950   C     0.46530   0.48877   0.90429   0.00000  Uiso   1.00
C951   C     0.53477   0.51093   0.59569   0.00000  Uiso   1.00
C952   C     0.46421   0.48830   0.95072   0.00000  Uiso   1.00
C953   C     0.53601   0.51084   0.54925   0.00000  Uiso   1.00
C954   C     0.50043   0.49977   0.97654   0.00000  Uiso   1.00
C955   C     0.49976   0.49949   0.52343   0.00000  Uiso   1.00
C956   C     0.53730   0.51152   0.95545   0.00000  Uiso   1.00
C957   C     0.46281   0.48804   0.54452   0.00000  Uiso   1.00
C958   C     0.42754   0.47683   0.97168   0.00000  Uiso   1.00
C959   C     0.42718   0.47695   0.51823   0.00000  Uiso   1.00
C960   C     0.57275   0.52202   0.52829   0.00000  Uiso   1.00
C961   C     0.57492   0.52256   0.88555   0.00000  Uiso   1.00
C962   C     0.42495   0.47784   0.61437   0.00000  Uiso   1.00
C963   C     0.57298   0.52243   0.98173   0.00000  Uiso   1.00
C964   C     0.35456   0.45805   0.75082   0.00000  Uiso   1.00
C965   C     0.64545   0.54200   0.74952   0.00000  Uiso   1.00
C966   C     0.64528   0.45808   0.75084   0.00000  Uiso   1.00
C967   C     0.35473   0.54195   0.74945   0.00000  Uiso   1.00
C968   C     0.62386   0.50006   0.75016   0.00000  Uiso   1.00
Cu969  Cu    0.50000   0.54689   0.75000   0.00000  Uiso   1.00
Cu970  Cu    0.50000   0.45311   0.75000   0.00000  Uiso   1.00
H971   H     0.43804   0.48029   0.88366   0.00000  Uiso   1.00
H972   H     0.36530   0.46289   0.96587   0.00000  Uiso   1.00
H973   H     0.62069   0.50218   0.56846   0.00000  Uiso   1.00
H974   H     0.63291   0.54481   0.53402   0.00000  Uiso   1.00
H975   H     0.44674   0.41269   0.68935   0.00000  Uiso   1.00
H976   H     0.41457   0.37236   0.70589   0.00000  Uiso   1.00
H977   H     0.56741   0.59598   0.80367   0.00000  Uiso   1.00
H978   H     0.52864   0.60923   0.83962   0.00000  Uiso   1.00
H979   H     0.56763   0.40596   0.80382   0.00000  Uiso   1.00
H980   H     0.52931   0.39213   0.84005   0.00000  Uiso   1.00
H981   H     0.41774   0.62290   0.69652   0.00000  Uiso   1.00
H982   H     0.56195   0.51977   0.61632   0.00000  Uiso   1.00
H983   H     0.45435   0.62529   0.65786   0.00000  Uiso   1.00
H984   H     0.39874   0.46799   0.53370   0.00000  Uiso   1.00
H985   H     0.60146   0.53119   0.96625   0.00000  Uiso   1.00
H986   H     0.37048   0.42524   0.75148   0.00000  Uiso   1.00
H987   H     0.62952   0.57482   0.74901   0.00000  Uiso   1.00
H988   H     0.62923   0.42526   0.75138   0.00000  Uiso   1.00
H989   H     0.37079   0.57477   0.74893   0.00000  Uiso   1.00
H990   H     0.39486   0.43230   0.93189   0.00000  Uiso   1.00
N991   N     0.50000   0.61736   0.75000   0.00000  Uiso   1.00
N992   N     0.44839   0.61504   0.69026   0.00000  Uiso   1.00
N993   N     0.50000   0.38264   0.75000   0.00000  Uiso   1.00
N994   N     0.60468   0.53096   0.86724   0.00000  Uiso   1.00
N995   N     0.39508   0.46984   0.63261   0.00000  Uiso   1.00
N996   N     0.39065   0.46522   0.94561   0.00000  Uiso   1.00
N997   N     0.60982   0.53294   0.55436   0.00000  Uiso   1.00
N998   N     0.44323   0.37760   0.69210   0.00000  Uiso   1.00
N999   N     0.54804   0.62132   0.81550   0.00000  Uiso   1.00
N1000  N     0.54845   0.38042   0.81531   0.00000  Uiso   1.00
O1001  O     0.43988   0.53958   0.74999   0.00000  Uiso   1.00
O1002  O     0.56012   0.46042   0.75000   0.00000  Uiso   1.00
O1003  O     0.56012   0.53958   0.75000   0.00000  Uiso   1.00
O1004  O     0.43988   0.46042   0.74999   0.00000  Uiso   1.00
O1005  O     0.49999   0.53960   0.68513   0.00000  Uiso   1.00
O1006  O     0.50001   0.46040   0.81487   0.00000  Uiso   1.00
O1007  O     0.50001   0.53960   0.81487   0.00000  Uiso   1.00
O1008  O     0.49999   0.46040   0.68513   0.00000  Uiso   1.00
C1009  C     0.75416   0.49997   0.74995   0.00000  Uiso   1.00
C1010  C     0.70947   0.49997   0.75005   0.00000  Uiso   1.00
C1011  C     0.80724   0.35679   0.72124   0.00000  Uiso   1.00
C1012  C     0.85756   0.64272   0.78022   0.00000  Uiso   1.00
C1013  C     0.85779   0.35819   0.78005   0.00000  Uiso   1.00
C1014  C     0.80817   0.64080   0.72086   0.00000  Uiso   1.00
C1015  C     0.83290   0.49980   0.66469   0.00000  Uiso   1.00
C1016  C     0.83375   0.50020   0.83530   0.00000  Uiso   1.00
C1017  C     0.87093   0.51189   0.90849   0.00000  Uiso   1.00
C1018  C     0.79575   0.48802   0.59147   0.00000  Uiso   1.00
C1019  C     0.83467   0.50060   0.88355   0.00000  Uiso   1.00
C1020  C     0.91251   0.50004   0.75011   0.00000  Uiso   1.00
C1021  C     0.83200   0.49936   0.61643   0.00000  Uiso   1.00
C1022  C     0.79864   0.48877   0.90429   0.00000  Uiso   1.00
C1023  C     0.86810   0.51093   0.59569   0.00000  Uiso   1.00
C1024  C     0.79754   0.48830   0.95072   0.00000  Uiso   1.00
C1025  C     0.86934   0.51084   0.54925   0.00000  Uiso   1.00
C1026  C     0.83376   0.49977   0.97654   0.00000  Uiso   1.00
C1027  C     0.83310   0.49949   0.52343   0.00000  Uiso   1.00
C1028  C     0.87064   0.51152   0.95545   0.00000  Uiso   1.00
C1029  C     0.79614   0.48804   0.54452   0.00000  Uiso   1.00
C1030  C     0.76088   0.47683   0.97168   0.00000  Uiso   1.00
C1031  C     0.76051   0.47695   0.51823   0.00000  Uiso   1.00
C1032  C     0.90608   0.52202   0.52829   0.00000  Uiso   1.00
C1033  C     0.90826   0.52256   0.88555   0.00000  Uiso   1.00
C1034  C     0.75829   0.47784   0.61437   0.00000  Uiso   1.00
C1035  C     0.90632   0.52243   0.98173   0.00000  Uiso   1.00
C1036  C     0.68789   0.45805   0.75082   0.00000  Uiso   1.00
C1037  C     0.97878   0.54200   0.74952   0.00000  Uiso   1.00
C1038  C     0.97861   0.45808   0.75084   0.00000  Uiso   1.00
C1039  C     0.68806   0.54195   0.74945   0.00000  Uiso   1.00
C1040  C     0.95720   0.50006   0.75016   0.00000  Uiso   1.00
Cu1041 Cu    0.83333   0.54689   0.75000   0.00000  Uiso   1.00
Cu1042 Cu    0.83333   0.45311   0.75000   0.00000  Uiso   1.00
H1043  H     0.77137   0.48029   0.88366   0.00000  Uiso   1.00
H1044  H     0.69864   0.46289   0.96587   0.00000  Uiso   1.00
H1045  H     0.95402   0.50218   0.56846   0.00000  Uiso   1.00
H1046  H     0.96624   0.54481   0.53402   0.00000  Uiso   1.00
H1047  H     0.78007   0.41269   0.68935   0.00000  Uiso   1.00
H1048  H     0.74791   0.37236   0.70589   0.00000  Uiso   1.00
H1049  H     0.90074   0.59598   0.80367   0.00000  Uiso   1.00
H1050  H     0.86197   0.60923   0.83962   0.00000  Uiso   1.00
H1051  H     0.90096   0.40596   0.80382   0.00000  Uiso   1.00
H1052  H     0.86265   0.39213   0.84005   0.00000  Uiso   1.00
H1053  H     0.75108   0.62290   0.69652   0.00000  Uiso   1.00
H1054  H     0.89528   0.51977   0.61632   0.00000  Uiso   1.00
H1055  H     0.78768   0.62529   0.65786   0.00000  Uiso   1.00
H1056  H     0.73207   0.46799   0.53370   0.00000  Uiso   1.00
H1057  H     0.93480   0.53119   0.96625   0.00000  Uiso   1.00
H1058  H     0.70381   0.42524   0.75148   0.00000  Uiso   1.00
H1059  H     0.96285   0.57482   0.74901   0.00000  Uiso   1.00
H1060  H     0.96256   0.42526   0.75138   0.00000  Uiso   1.00
H1061  H     0.70412   0.57477   0.74893   0.00000  Uiso   1.00
H1062  H     0.72820   0.43230   0.93189   0.00000  Uiso   1.00
N1063  N     0.83333   0.61736   0.75000   0.00000  Uiso   1.00
N1064  N     0.78172   0.61504   0.69026   0.00000  Uiso   1.00
N1065  N     0.83333   0.38264   0.75000   0.00000  Uiso   1.00
N1066  N     0.93801   0.53096   0.86724   0.00000  Uiso   1.00
N1067  N     0.72841   0.46984   0.63261   0.00000  Uiso   1.00
N1068  N     0.72398   0.46522   0.94561   0.00000  Uiso   1.00
N1069  N     0.94315   0.53294   0.55436   0.00000  Uiso   1.00
N1070  N     0.77656   0.37760   0.69210   0.00000  Uiso   1.00
N1071  N     0.88137   0.62132   0.81550   0.00000  Uiso   1.00
N1072  N     0.88178   0.38042   0.81531   0.00000  Uiso   1.00
O1073  O     0.77321   0.53958   0.74999   0.00000  Uiso   1.00
O1074  O     0.89345   0.46042   0.75000   0.00000  Uiso   1.00
O1075  O     0.89345   0.53958   0.75000   0.00000  Uiso   1.00
O1076  O     0.77321   0.46042   0.74999   0.00000  Uiso   1.00
O1077  O     0.83332   0.53960   0.68513   0.00000  Uiso   1.00
O1078  O     0.83334   0.46040   0.81487   0.00000  Uiso   1.00
O1079  O     0.83334   0.53960   0.81487   0.00000  Uiso   1.00
O1080  O     0.83332   0.46040   0.68513   0.00000  Uiso   1.00
C1081  C     0.08749   0.83330   0.74995   0.00000  Uiso   1.00
C1082  C     0.04281   0.83330   0.75005   0.00000  Uiso   1.00
C1083  C     0.14057   0.69013   0.72124   0.00000  Uiso   1.00
C1084  C     0.19089   0.97605   0.78022   0.00000  Uiso   1.00
C1085  C     0.19112   0.69152   0.78005   0.00000  Uiso   1.00
C1086  C     0.14150   0.97413   0.72086   0.00000  Uiso   1.00
C1087  C     0.16623   0.83313   0.66469   0.00000  Uiso   1.00
C1088  C     0.16708   0.83354   0.83530   0.00000  Uiso   1.00
C1089  C     0.20426   0.84523   0.90849   0.00000  Uiso   1.00
C1090  C     0.12908   0.82136   0.59147   0.00000  Uiso   1.00
C1091  C     0.16800   0.83393   0.88355   0.00000  Uiso   1.00
C1092  C     0.24585   0.83337   0.75011   0.00000  Uiso   1.00
C1093  C     0.16534   0.83269   0.61643   0.00000  Uiso   1.00
C1094  C     0.13197   0.82210   0.90429   0.00000  Uiso   1.00
C1095  C     0.20144   0.84426   0.59569   0.00000  Uiso   1.00
C1096  C     0.13088   0.82163   0.95072   0.00000  Uiso   1.00
C1097  C     0.20267   0.84418   0.54925   0.00000  Uiso   1.00
C1098  C     0.16709   0.83310   0.97654   0.00000  Uiso   1.00
C1099  C     0.16643   0.83283   0.52343   0.00000  Uiso   1.00
C1100  C     0.20397   0.84485   0.95545   0.00000  Uiso   1.00
C1101  C     0.12948   0.82137   0.54452   0.00000  Uiso   1.00
C1102  C     0.09421   0.81016   0.97168   0.00000  Uiso   1.00
C1103  C     0.09384   0.81028   0.51823   0.00000  Uiso   1.00
C1104  C     0.23942   0.85536   0.52829   0.00000  Uiso   1.00
C1105  C     0.24159   0.85589   0.88555   0.00000  Uiso   1.00
C1106  C     0.09162   0.81118   0.61437   0.00000  Uiso   1.00
C1107  C     0.23965   0.85576   0.98173   0.00000  Uiso   1.00
C1108  C     0.02122   0.79138   0.75082   0.00000  Uiso   1.00
C1109  C     0.31211   0.87533   0.74952   0.00000  Uiso   1.00
C1110  C     0.31194   0.79142   0.75084   0.00000  Uiso   1.00
C1111  C     0.02140   0.87528   0.74945   0.00000  Uiso   1.00
C1112  C     0.29053   0.83339   0.75016   0.00000  Uiso   1.00
Cu1113 Cu    0.16667   0.88022   0.75000   0.00000  Uiso   1.00
Cu1114 Cu    0.16667   0.78645   0.75000   0.00000  Uiso   1.00
H1115  H     0.10470   0.81362   0.88366   0.00000  Uiso   1.00
H1116  H     0.03197   0.79623   0.96587   0.00000  Uiso   1.00
H1117  H     0.28736   0.83551   0.56846   0.00000  Uiso   1.00
H1118  H     0.29957   0.87814   0.53402   0.00000  Uiso   1.00
H1119  H     0.11341   0.74602   0.68935   0.00000  Uiso   1.00
H1120  H     0.08124   0.70570   0.70589   0.00000  Uiso   1.00
H1121  H     0.23408   0.92931   0.80367   0.00000  Uiso   1.00
H1122  H     0.19531   0.94256   0.83962   0.00000  Uiso   1.00
H1123  H     0.23430   0.73929   0.80382   0.00000  Uiso   1.00
H1124  H     0.19598   0.72547   0.84005   0.00000  Uiso   1.00
H1125  H     0.08441   0.95623   0.69652   0.00000  Uiso   1.00
H1126  H     0.22861   0.85311   0.61632   0.00000  Uiso   1.00
H1127  H     0.12101   0.95862   0.65786   0.00000  Uiso   1.00
H1128  H     0.06540   0.80133   0.53370   0.00000  Uiso   1.00
H1129  H     0.26813   0.86452   0.96625   0.00000  Uiso   1.00
H1130  H     0.03715   0.75857   0.75148   0.00000  Uiso   1.00
H1131  H     0.29618   0.90816   0.74901   0.00000  Uiso   1.00
H1132  H     0.29589   0.75859   0.75138   0.00000  Uiso   1.00
H1133  H     0.03746   0.90810   0.74893   0.00000  Uiso   1.00
H1134  H     0.06153   0.76563   0.93189   0.00000  Uiso   1.00
N1135  N     0.16667   0.95069   0.75000   0.00000  Uiso   1.00
N1136  N     0.11506   0.94838   0.69026   0.00000  Uiso   1.00
N1137  N     0.16667   0.71598   0.75000   0.00000  Uiso   1.00
N1138  N     0.27134   0.86429   0.86724   0.00000  Uiso   1.00
N1139  N     0.06175   0.80318   0.63261   0.00000  Uiso   1.00
N1140  N     0.05731   0.79856   0.94561   0.00000  Uiso   1.00
N1141  N     0.27649   0.86627   0.55436   0.00000  Uiso   1.00
N1142  N     0.10990   0.71094   0.69210   0.00000  Uiso   1.00
N1143  N     0.21471   0.95466   0.81550   0.00000  Uiso   1.00
N1144  N     0.21511   0.71375   0.81531   0.00000  Uiso   1.00
O1145  O     0.10655   0.87291   0.74999   0.00000  Uiso   1.00
O1146  O     0.22679   0.79375   0.75000   0.00000  Uiso   1.00
O1147  O     0.22679   0.87291   0.75000   0.00000  Uiso   1.00
O1148  O     0.10655   0.79375   0.74999   0.00000  Uiso   1.00
O1149  O     0.16666   0.87293   0.68513   0.00000  Uiso   1.00
O1150  O     0.16668   0.79373   0.81487   0.00000  Uiso   1.00
O1151  O     0.16668   0.87293   0.81487   0.00000  Uiso   1.00
O1152  O     0.16666   0.79373   0.68513   0.00000  Uiso   1.00
C1153  C     0.42082   0.83330   0.74995   0.00000  Uiso   1.00
C1154  C     0.37614   0.83330   0.75005   0.00000  Uiso   1.00
C1155  C     0.47391   0.69013   0.72124   0.00000  Uiso   1.00
C1156  C     0.52422   0.97605   0.78022   0.00000  Uiso   1.00
C1157  C     0.52445   0.69152   0.78005   0.00000  Uiso   1.00
C1158  C     0.47483   0.97413   0.72086   0.00000  Uiso   1.00
C1159  C     0.49956   0.83313   0.66469   0.00000  Uiso   1.00
C1160  C     0.50042   0.83354   0.83530   0.00000  Uiso   1.00
C1161  C     0.53760   0.84523   0.90849   0.00000  Uiso   1.00
C1162  C     0.46242   0.82136   0.59147   0.00000  Uiso   1.00
C1163  C     0.50133   0.83393   0.88355   0.00000  Uiso   1.00
C1164  C     0.57918   0.83337   0.75011   0.00000  Uiso   1.00
C1165  C     0.49867   0.83269   0.61643   0.00000  Uiso   1.00
C1166  C     0.46530   0.82210   0.90429   0.00000  Uiso   1.00
C1167  C     0.53477   0.84426   0.59569   0.00000  Uiso   1.00
C1168  C     0.46421   0.82163   0.95072   0.00000  Uiso   1.00
C1169  C     0.53601   0.84418   0.54925   0.00000  Uiso   1.00
C1170  C     0.50043   0.83310   0.97654   0.00000  Uiso   1.00
C1171  C     0.49976   0.83283   0.52343   0.00000  Uiso   1.00
C1172  C     0.53730   0.84485   0.95545   0.00000  Uiso   1.00
C1173  C     0.46281   0.82137   0.54452   0.00000  Uiso   1.00
C1174  C     0.42754   0.81016   0.97168   0.00000  Uiso   1.00
C1175  C     0.42718   0.81028   0.51823   0.00000  Uiso   1.00
C1176  C     0.57275   0.85536   0.52829   0.00000  Uiso   1.00
C1177  C     0.57492   0.85589   0.88555   0.00000  Uiso   1.00
C1178  C     0.42495   0.81118   0.61437   0.00000  Uiso   1.00
C1179  C     0.57298   0.85576   0.98173   0.00000  Uiso   1.00
C1180  C     0.35456   0.79138   0.75082   0.00000  Uiso   1.00
C1181  C     0.64545   0.87533   0.74952   0.00000  Uiso   1.00
C1182  C     0.64528   0.79142   0.75084   0.00000  Uiso   1.00
C1183  C     0.35473   0.87528   0.74945   0.00000  Uiso   1.00
C1184  C     0.62386   0.83339   0.75016   0.00000  Uiso   1.00
Cu1185 Cu    0.50000   0.88022   0.75000   0.00000  Uiso   1.00
Cu1186 Cu    0.50000   0.78645   0.75000   0.00000  Uiso   1.00
H1187  H     0.43804   0.81362   0.88366   0.00000  Uiso   1.00
H1188  H     0.36530   0.79623   0.96587   0.00000  Uiso   1.00
H1189  H     0.62069   0.83551   0.56846   0.00000  Uiso   1.00
H1190  H     0.63291   0.87814   0.53402   0.00000  Uiso   1.00
H1191  H     0.44674   0.74602   0.68935   0.00000  Uiso   1.00
H1192  H     0.41457   0.70570   0.70589   0.00000  Uiso   1.00
H1193  H     0.56741   0.92931   0.80367   0.00000  Uiso   1.00
H1194  H     0.52864   0.94256   0.83962   0.00000  Uiso   1.00
H1195  H     0.56763   0.73929   0.80382   0.00000  Uiso   1.00
H1196  H     0.52931   0.72547   0.84005   0.00000  Uiso   1.00
H1197  H     0.41774   0.95623   0.69652   0.00000  Uiso   1.00
H1198  H     0.56195   0.85311   0.61632   0.00000  Uiso   1.00
H1199  H     0.45435   0.95862   0.65786   0.00000  Uiso   1.00
H1200  H     0.39874   0.80133   0.53370   0.00000  Uiso   1.00
H1201  H     0.60146   0.86452   0.96625   0.00000  Uiso   1.00
H1202  H     0.37048   0.75857   0.75148   0.00000  Uiso   1.00
H1203  H     0.62952   0.90816   0.74901   0.00000  Uiso   1.00
H1204  H     0.62923   0.75859   0.75138   0.00000  Uiso   1.00
H1205  H     0.37079   0.90810   0.74893   0.00000  Uiso   1.00
H1206  H     0.39486   0.76563   0.93189   0.00000  Uiso   1.00
N1207  N     0.50000   0.95069   0.75000   0.00000  Uiso   1.00
N1208  N     0.44839   0.94838   0.69026   0.00000  Uiso   1.00
N1209  N     0.50000   0.71598   0.75000   0.00000  Uiso   1.00
N1210  N     0.60468   0.86429   0.86724   0.00000  Uiso   1.00
N1211  N     0.39508   0.80318   0.63261   0.00000  Uiso   1.00
N1212  N     0.39065   0.79856   0.94561   0.00000  Uiso   1.00
N1213  N     0.60982   0.86627   0.55436   0.00000  Uiso   1.00
N1214  N     0.44323   0.71094   0.69210   0.00000  Uiso   1.00
N1215  N     0.54804   0.95466   0.81550   0.00000  Uiso   1.00
N1216  N     0.54845   0.71375   0.81531   0.00000  Uiso   1.00
O1217  O     0.43988   0.87291   0.74999   0.00000  Uiso   1.00
O1218  O     0.56012   0.79375   0.75000   0.00000  Uiso   1.00
O1219  O     0.56012   0.87291   0.75000   0.00000  Uiso   1.00
O1220  O     0.43988   0.79375   0.74999   0.00000  Uiso   1.00
O1221  O     0.49999   0.87293   0.68513   0.00000  Uiso   1.00
O1222  O     0.50001   0.79373   0.81487   0.00000  Uiso   1.00
O1223  O     0.50001   0.87293   0.81487   0.00000  Uiso   1.00
O1224  O     0.49999   0.79373   0.68513   0.00000  Uiso   1.00
C1225  C     0.75416   0.83330   0.74995   0.00000  Uiso   1.00
C1226  C     0.70947   0.83330   0.75005   0.00000  Uiso   1.00
C1227  C     0.80724   0.69013   0.72124   0.00000  Uiso   1.00
C1228  C     0.85756   0.97605   0.78022   0.00000  Uiso   1.00
C1229  C     0.85779   0.69152   0.78005   0.00000  Uiso   1.00
C1230  C     0.80817   0.97413   0.72086   0.00000  Uiso   1.00
C1231  C     0.83290   0.83313   0.66469   0.00000  Uiso   1.00
C1232  C     0.83375   0.83354   0.83530   0.00000  Uiso   1.00
C1233  C     0.87093   0.84523   0.90849   0.00000  Uiso   1.00
C1234  C     0.79575   0.82136   0.59147   0.00000  Uiso   1.00
C1235  C     0.83467   0.83393   0.88355   0.00000  Uiso   1.00
C1236  C     0.91251   0.83337   0.75011   0.00000  Uiso   1.00
C1237  C     0.83200   0.83269   0.61643   0.00000  Uiso   1.00
C1238  C     0.79864   0.82210   0.90429   0.00000  Uiso   1.00
C1239  C     0.86810   0.84426   0.59569   0.00000  Uiso   1.00
C1240  C     0.79754   0.82163   0.95072   0.00000  Uiso   1.00
C1241  C     0.86934   0.84418   0.54925   0.00000  Uiso   1.00
C1242  C     0.83376   0.83310   0.97654   0.00000  Uiso   1.00
C1243  C     0.83310   0.83283   0.52343   0.00000  Uiso   1.00
C1244  C     0.87064   0.84485   0.95545   0.00000  Uiso   1.00
C1245  C     0.79614   0.82137   0.54452   0.00000  Uiso   1.00
C1246  C     0.76088   0.81016   0.97168   0.00000  Uiso   1.00
C1247  C     0.76051   0.81028   0.51823   0.00000  Uiso   1.00
C1248  C     0.90608   0.85536   0.52829   0.00000  Uiso   1.00
C1249  C     0.90826   0.85589   0.88555   0.00000  Uiso   1.00
C1250  C     0.75829   0.81118   0.61437   0.00000  Uiso   1.00
C1251  C     0.90632   0.85576   0.98173   0.00000  Uiso   1.00
C1252  C     0.68789   0.79138   0.75082   0.00000  Uiso   1.00
C1253  C     0.97878   0.87533   0.74952   0.00000  Uiso   1.00
C1254  C     0.97861   0.79142   0.75084   0.00000  Uiso   1.00
C1255  C     0.68806   0.87528   0.74945   0.00000  Uiso   1.00
C1256  C     0.95720   0.83339   0.75016   0.00000  Uiso   1.00
Cu1257 Cu    0.83333   0.88022   0.75000   0.00000  Uiso   1.00
Cu1258 Cu    0.83333   0.78645   0.75000   0.00000  Uiso   1.00
H1259  H     0.77137   0.81362   0.88366   0.00000  Uiso   1.00
H1260  H     0.69864   0.79623   0.96587   0.00000  Uiso   1.00
H1261  H     0.95402   0.83551   0.56846   0.00000  Uiso   1.00
H1262  H     0.96624   0.87814   0.53402   0.00000  Uiso   1.00
H1263  H     0.78007   0.74602   0.68935   0.00000  Uiso   1.00
H1264  H     0.74791   0.70570   0.70589   0.00000  Uiso   1.00
H1265  H     0.90074   0.92931   0.80367   0.00000  Uiso   1.00
H1266  H     0.86197   0.94256   0.83962   0.00000  Uiso   1.00
H1267  H     0.90096   0.73929   0.80382   0.00000  Uiso   1.00
H1268  H     0.86265   0.72547   0.84005   0.00000  Uiso   1.00
H1269  H     0.75108   0.95623   0.69652   0.00000  Uiso   1.00
H1270  H     0.89528   0.85311   0.61632   0.00000  Uiso   1.00
H1271  H     0.78768   0.95862   0.65786   0.00000  Uiso   1.00
H1272  H     0.73207   0.80133   0.53370   0.00000  Uiso   1.00
H1273  H     0.93480   0.86452   0.96625   0.00000  Uiso   1.00
H1274  H     0.70381   0.75857   0.75148   0.00000  Uiso   1.00
H1275  H     0.96285   0.90816   0.74901   0.00000  Uiso   1.00
H1276  H     0.96256   0.75859   0.75138   0.00000  Uiso   1.00
H1277  H     0.70412   0.90810   0.74893   0.00000  Uiso   1.00
H1278  H     0.72820   0.76563   0.93189   0.00000  Uiso   1.00
N1279  N     0.83333   0.95069   0.75000   0.00000  Uiso   1.00
N1280  N     0.78172   0.94838   0.69026   0.00000  Uiso   1.00
N1281  N     0.83333   0.71598   0.75000   0.00000  Uiso   1.00
N1282  N     0.93801   0.86429   0.86724   0.00000  Uiso   1.00
N1283  N     0.72841   0.80318   0.63261   0.00000  Uiso   1.00
N1284  N     0.72398   0.79856   0.94561   0.00000  Uiso   1.00
N1285  N     0.94315   0.86627   0.55436   0.00000  Uiso   1.00
N1286  N     0.77656   0.71094   0.69210   0.00000  Uiso   1.00
N1287  N     0.88137   0.95466   0.81550   0.00000  Uiso   1.00
N1288  N     0.88178   0.71375   0.81531   0.00000  Uiso   1.00
O1289  O     0.77321   0.87291   0.74999   0.00000  Uiso   1.00
O1290  O     0.89345   0.79375   0.75000   0.00000  Uiso   1.00
O1291  O     0.89345   0.87291   0.75000   0.00000  Uiso   1.00
O1292  O     0.77321   0.79375   0.74999   0.00000  Uiso   1.00
O1293  O     0.83332   0.87293   0.68513   0.00000  Uiso   1.00
O1294  O     0.83334   0.79373   0.81487   0.00000  Uiso   1.00
O1295  O     0.83334   0.87293   0.81487   0.00000  Uiso   1.00
O1296  O     0.83332   0.79373   0.68513   0.00000  Uiso   1.00
loop_
_geom_bond_atom_site_label_1
_geom_bond_atom_site_label_2
_geom_bond_distance
_geom_bond_site_symmetry_2
_ccdc_geom_bond_type
C1     O65     1.301   .     A
C1     C2      1.450   .     S
C1     O68     1.303   .     A
C2     C28     1.400   .     A
C2     C31     1.401   .     A
C3     N57     1.394   .     A
C3     N62     1.435   .     S
C3     C438    1.428   1_545 S
C4     N63     1.432   .     S
C4     N55     1.379   .     A
C4     C221    1.413   .     S
C5     N57     1.379   .     A
C5     N64     1.433   .     S
C5     C436    1.413   1_545 S
C6     N56     1.432   .     S
C6     N55     1.360   .     A
C6     C219    1.428   .     S
C7     O69     1.299   .     A
C7     O72     1.301   .     A
C7     C13     1.448   .     S
C8     O70     1.299   .     A
C8     C11     1.447   .     S
C8     O71     1.301   .     A
C9     C20     1.410   .     A
C9     C11     1.404   .     A
C9     C25     1.453   .     S
C10    C26     1.453   .     S
C10    C21     1.410   .     A
C10    C13     1.404   .     A
C11    C14     1.391   .     A
C12    C32     1.450   .     S
C12    O67     1.303   .     A
C12    O66     1.301   .     A
C13    C15     1.391   .     A
C14    C16     1.396   .     A
C14    H35     1.084   .     S
C15    C17     1.396   .     A
C15    H46     1.084   .     S
C16    C18     1.417   .     A
C16    C22     1.410   .     A
C17    C19     1.417   .     A
C17    C24     1.410   .     A
C18    C20     1.420   .     A
C18    C667    1.409   .     S
C19    C21     1.419   .     A
C19    C666    1.409   1_554 S
C20    C27     1.407   .     A
C21    C23     1.407   .     A
C22    N60     1.439   .     S
C22    C671    1.398   .     S
C23    H48     1.083   .     S
C23    C670    1.398   1_554 S
C24    N61     1.440   .     S
C24    C675    1.398   1_554 S
C25    N58     1.157   .     T
C26    N59     1.158   .     T
C27    H49     1.083   .     S
C27    C672    1.398   .     S
C28    H50     1.083   .     S
C28    C174    1.383   1_455 S
C29    C32     1.401   .     A
C29    H51     1.083   .     S
C29    C103    1.383   .     S
C30    C32     1.401   .     A
C30    H52     1.083   .     S
C30    C100    1.383   .     S
C31    H53     1.083   .     S
C31    C173    1.383   1_455 S
Cu33   N55     2.040   .     S
Cu33   O69     1.956   .     S
Cu33   Cu34    2.715   .     S
Cu33   O65     1.962   .     S
Cu33   O67     1.963   .     S
Cu33   O71     1.961   .     S
Cu34   N57     2.040   .     S
Cu34   O70     1.956   .     S
Cu34   O66     1.962   .     S
Cu34   O72     1.961   .     S
Cu34   O68     1.963   .     S
H36    N60     1.046   .     S
H37    N61     1.046   .     S
H38    N61     1.046   .     S
H39    N62     1.026   .     S
H40    N62     1.045   .     S
H41    N63     1.037   .     S
H42    N63     1.042   .     S
H43    N64     1.037   .     S
H44    N64     1.042   .     S
H45    N56     1.045   .     S
H47    N56     1.046   .     S
H54    N60     1.046   .     S
C73    O137    1.301   .     A
C73    C74     1.450   .     S
C73    O140    1.303   .     A
C74    C100    1.400   .     A
C74    C103    1.401   .     A
C75    N129    1.394   .     A
C75    N134    1.435   .     S
C75    C510    1.428   1_545 S
C76    N135    1.432   .     S
C76    N127    1.379   .     A
C76    C293    1.413   .     S
C77    N129    1.379   .     A
C77    N136    1.433   .     S
C77    C508    1.413   1_545 S
C78    N128    1.432   .     S
C78    N127    1.360   .     A
C78    C291    1.428   .     S
C79    O141    1.299   .     A
C79    O144    1.301   .     A
C79    C85     1.448   .     S
C80    O142    1.299   .     A
C80    C83     1.447   .     S
C80    O143    1.301   .     A
C81    C92     1.410   .     A
C81    C83     1.404   .     A
C81    C97     1.453   .     S
C82    C98     1.453   .     S
C82    C93     1.410   .     A
C82    C85     1.404   .     A
C83    C86     1.391   .     A
C84    C104    1.450   .     S
C84    O139    1.303   .     A
C84    O138    1.301   .     A
C85    C87     1.391   .     A
C86    C88     1.396   .     A
C86    H107    1.084   .     S
C87    C89     1.396   .     A
C87    H118    1.084   .     S
C88    C90     1.417   .     A
C88    C94     1.410   .     A
C89    C91     1.417   .     A
C89    C96     1.410   .     A
C90    C92     1.420   .     A
C90    C739    1.409   .     S
C91    C93     1.419   .     A
C91    C738    1.409   1_554 S
C92    C99     1.407   .     A
C93    C95     1.407   .     A
C94    N132    1.439   .     S
C94    C743    1.398   .     S
C95    H120    1.083   .     S
C95    C742    1.398   1_554 S
C96    N133    1.440   .     S
C96    C747    1.398   1_554 S
C97    N130    1.157   .     T
C98    N131    1.158   .     T
C99    H121    1.083   .     S
C99    C744    1.398   .     S
C100   H122    1.083   .     S
C101   C104    1.401   .     A
C101   H123    1.083   .     S
C101   C175    1.383   .     S
C102   C104    1.401   .     A
C102   H124    1.083   .     S
C102   C172    1.383   .     S
C103   H125    1.083   .     S
Cu105  N127    2.040   .     S
Cu105  O141    1.956   .     S
Cu105  Cu106   2.715   .     S
Cu105  O137    1.962   .     S
Cu105  O139    1.963   .     S
Cu105  O143    1.961   .     S
Cu106  N129    2.040   .     S
Cu106  O142    1.956   .     S
Cu106  O138    1.962   .     S
Cu106  O144    1.961   .     S
Cu106  O140    1.963   .     S
H108   N132    1.046   .     S
H109   N133    1.046   .     S
H110   N133    1.046   .     S
H111   N134    1.026   .     S
H112   N134    1.045   .     S
H113   N135    1.037   .     S
H114   N135    1.042   .     S
H115   N136    1.037   .     S
H116   N136    1.042   .     S
H117   N128    1.045   .     S
H119   N128    1.046   .     S
H126   N132    1.046   .     S
C145   O209    1.301   .     A
C145   C146    1.450   .     S
C145   O212    1.303   .     A
C146   C172    1.400   .     A
C146   C175    1.401   .     A
C147   N201    1.394   .     A
C147   N206    1.435   .     S
C147   C582    1.428   1_545 S
C148   N207    1.432   .     S
C148   N199    1.379   .     A
C148   C365    1.413   .     S
C149   N201    1.379   .     A
C149   N208    1.433   .     S
C149   C580    1.413   1_545 S
C150   N200    1.432   .     S
C150   N199    1.360   .     A
C150   C363    1.428   .     S
C151   O213    1.299   .     A
C151   O216    1.301   .     A
C151   C157    1.448   .     S
C152   O214    1.299   .     A
C152   C155    1.447   .     S
C152   O215    1.301   .     A
C153   C164    1.410   .     A
C153   C155    1.404   .     A
C153   C169    1.453   .     S
C154   C170    1.453   .     S
C154   C165    1.410   .     A
C154   C157    1.404   .     A
C155   C158    1.391   .     A
C156   C176    1.450   .     S
C156   O211    1.303   .     A
C156   O210    1.301   .     A
C157   C159    1.391   .     A
C158   C160    1.396   .     A
C158   H179    1.084   .     S
C159   C161    1.396   .     A
C159   H190    1.084   .     S
C160   C162    1.417   .     A
C160   C166    1.410   .     A
C161   C163    1.417   .     A
C161   C168    1.410   .     A
C162   C164    1.420   .     A
C162   C811    1.409   .     S
C163   C165    1.419   .     A
C163   C810    1.409   1_554 S
C164   C171    1.407   .     A
C165   C167    1.407   .     A
C166   N204    1.439   .     S
C166   C815    1.398   .     S
C167   H192    1.083   .     S
C167   C814    1.398   1_554 S
C168   N205    1.440   .     S
C168   C819    1.398   1_554 S
C169   N202    1.157   .     T
C170   N203    1.158   .     T
C171   H193    1.083   .     S
C171   C816    1.398   .     S
C172   H194    1.083   .     S
C173   C176    1.401   .     A
C173   H195    1.083   .     S
C173   C31     1.383   1_655 S
C174   C176    1.401   .     A
C174   H196    1.083   .     S
C174   C28     1.383   1_655 S
C175   H197    1.083   .     S
Cu177  N199    2.040   .     S
Cu177  O213    1.956   .     S
Cu177  Cu178   2.715   .     S
Cu177  O209    1.962   .     S
Cu177  O211    1.963   .     S
Cu177  O215    1.961   .     S
Cu178  N201    2.040   .     S
Cu178  O214    1.956   .     S
Cu178  O210    1.962   .     S
Cu178  O216    1.961   .     S
Cu178  O212    1.963   .     S
H180   N204    1.046   .     S
H181   N205    1.046   .     S
H182   N205    1.046   .     S
H183   N206    1.026   .     S
H184   N206    1.045   .     S
H185   N207    1.037   .     S
H186   N207    1.042   .     S
H187   N208    1.037   .     S
H188   N208    1.042   .     S
H189   N200    1.045   .     S
H191   N200    1.046   .     S
H198   N204    1.046   .     S
C217   O281    1.301   .     A
C217   C218    1.450   .     S
C217   O284    1.303   .     A
C218   C244    1.400   .     A
C218   C247    1.401   .     A
C219   N273    1.394   .     A
C219   N278    1.435   .     S
C220   N279    1.432   .     S
C220   N271    1.379   .     A
C220   C437    1.413   .     S
C221   N273    1.379   .     A
C221   N280    1.433   .     S
C222   N272    1.432   .     S
C222   N271    1.360   .     A
C222   C435    1.428   .     S
C223   O285    1.299   .     A
C223   O288    1.301   .     A
C223   C229    1.448   .     S
C224   O286    1.299   .     A
C224   C227    1.447   .     S
C224   O287    1.301   .     A
C225   C236    1.410   .     A
C225   C227    1.404   .     A
C225   C241    1.453   .     S
C226   C242    1.453   .     S
C226   C237    1.410   .     A
C226   C229    1.404   .     A
C227   C230    1.391   .     A
C228   C248    1.450   .     S
C228   O283    1.303   .     A
C228   O282    1.301   .     A
C229   C231    1.391   .     A
C230   C232    1.396   .     A
C230   H251    1.084   .     S
C231   C233    1.396   .     A
C231   H262    1.084   .     S
C232   C234    1.417   .     A
C232   C238    1.410   .     A
C233   C235    1.417   .     A
C233   C240    1.410   .     A
C234   C236    1.420   .     A
C234   C883    1.409   .     S
C235   C237    1.419   .     A
C235   C882    1.409   1_554 S
C236   C243    1.407   .     A
C237   C239    1.407   .     A
C238   N276    1.439   .     S
C238   C887    1.398   .     S
C239   H264    1.083   .     S
C239   C886    1.398   1_554 S
C240   N277    1.440   .     S
C240   C891    1.398   1_554 S
C241   N274    1.157   .     T
C242   N275    1.158   .     T
C243   H265    1.083   .     S
C243   C888    1.398   .     S
C244   H266    1.083   .     S
C244   C390    1.383   1_455 S
C245   C248    1.401   .     A
C245   H267    1.083   .     S
C245   C319    1.383   .     S
C246   C248    1.401   .     A
C246   H268    1.083   .     S
C246   C316    1.383   .     S
C247   H269    1.083   .     S
C247   C389    1.383   1_455 S
Cu249  N271    2.040   .     S
Cu249  O285    1.956   .     S
Cu249  Cu250   2.715   .     S
Cu249  O281    1.962   .     S
Cu249  O283    1.963   .     S
Cu249  O287    1.961   .     S
Cu250  N273    2.040   .     S
Cu250  O286    1.956   .     S
Cu250  O282    1.962   .     S
Cu250  O288    1.961   .     S
Cu250  O284    1.963   .     S
H252   N276    1.046   .     S
H253   N277    1.046   .     S
H254   N277    1.046   .     S
H255   N278    1.026   .     S
H256   N278    1.045   .     S
H257   N279    1.037   .     S
H258   N279    1.042   .     S
H259   N280    1.037   .     S
H260   N280    1.042   .     S
H261   N272    1.045   .     S
H263   N272    1.046   .     S
H270   N276    1.046   .     S
C289   O353    1.301   .     A
C289   C290    1.450   .     S
C289   O356    1.303   .     A
C290   C316    1.400   .     A
C290   C319    1.401   .     A
C291   N345    1.394   .     A
C291   N350    1.435   .     S
C292   N351    1.432   .     S
C292   N343    1.379   .     A
C292   C509    1.413   .     S
C293   N345    1.379   .     A
C293   N352    1.433   .     S
C294   N344    1.432   .     S
C294   N343    1.360   .     A
C294   C507    1.428   .     S
C295   O357    1.299   .     A
C295   O360    1.301   .     A
C295   C301    1.448   .     S
C296   O358    1.299   .     A
C296   C299    1.447   .     S
C296   O359    1.301   .     A
C297   C308    1.410   .     A
C297   C299    1.404   .     A
C297   C313    1.453   .     S
C298   C314    1.453   .     S
C298   C309    1.410   .     A
C298   C301    1.404   .     A
C299   C302    1.391   .     A
C300   C320    1.450   .     S
C300   O355    1.303   .     A
C300   O354    1.301   .     A
C301   C303    1.391   .     A
C302   C304    1.396   .     A
C302   H323    1.084   .     S
C303   C305    1.396   .     A
C303   H334    1.084   .     S
C304   C306    1.417   .     A
C304   C310    1.410   .     A
C305   C307    1.417   .     A
C305   C312    1.410   .     A
C306   C308    1.420   .     A
C306   C955    1.409   .     S
C307   C309    1.419   .     A
C307   C954    1.409   1_554 S
C308   C315    1.407   .     A
C309   C311    1.407   .     A
C310   N348    1.439   .     S
C310   C959    1.398   .     S
C311   H336    1.083   .     S
C311   C958    1.398   1_554 S
C312   N349    1.440   .     S
C312   C963    1.398   1_554 S
C313   N346    1.157   .     T
C314   N347    1.158   .     T
C315   H337    1.083   .     S
C315   C960    1.398   .     S
C316   H338    1.083   .     S
C317   C320    1.401   .     A
C317   H339    1.083   .     S
C317   C391    1.383   .     S
C318   C320    1.401   .     A
C318   H340    1.083   .     S
C318   C388    1.383   .     S
C319   H341    1.083   .     S
Cu321  N343    2.040   .     S
Cu321  O357    1.956   .     S
Cu321  Cu322   2.715   .     S
Cu321  O353    1.962   .     S
Cu321  O355    1.963   .     S
Cu321  O359    1.961   .     S
Cu322  N345    2.040   .     S
Cu322  O358    1.956   .     S
Cu322  O354    1.962   .     S
Cu322  O360    1.961   .     S
Cu322  O356    1.963   .     S
H324   N348    1.046   .     S
H325   N349    1.046   .     S
H326   N349    1.046   .     S
H327   N350    1.026   .     S
H328   N350    1.045   .     S
H329   N351    1.037   .     S
H330   N351    1.042   .     S
H331   N352    1.037   .     S
H332   N352    1.042   .     S
H333   N344    1.045   .     S
H335   N344    1.046   .     S
H342   N348    1.046   .     S
C361   O425    1.301   .     A
C361   C362    1.450   .     S
C361   O428    1.303   .     A
C362   C388    1.400   .     A
C362   C391    1.401   .     A
C363   N417    1.394   .     A
C363   N422    1.435   .     S
C364   N423    1.432   .     S
C364   N415    1.379   .     A
C364   C581    1.413   .     S
C365   N417    1.379   .     A
C365   N424    1.433   .     S
C366   N416    1.432   .     S
C366   N415    1.360   .     A
C366   C579    1.428   .     S
C367   O429    1.299   .     A
C367   O432    1.301   .     A
C367   C373    1.448   .     S
C368   O430    1.299   .     A
C368   C371    1.447   .     S
C368   O431    1.301   .     A
C369   C380    1.410   .     A
C369   C371    1.404   .     A
C369   C385    1.453   .     S
C370   C386    1.453   .     S
C370   C381    1.410   .     A
C370   C373    1.404   .     A
C371   C374    1.391   .     A
C372   C392    1.450   .     S
C372   O427    1.303   .     A
C372   O426    1.301   .     A
C373   C375    1.391   .     A
C374   C376    1.396   .     A
C374   H395    1.084   .     S
C375   C377    1.396   .     A
C375   H406    1.084   .     S
C376   C378    1.417   .     A
C376   C382    1.410   .     A
C377   C379    1.417   .     A
C377   C384    1.410   .     A
C378   C380    1.420   .     A
C378   C1027   1.409   .     S
C379   C381    1.419   .     A
C379   C1026   1.409   1_554 S
C380   C387    1.407   .     A
C381   C383    1.407   .     A
C382   N420    1.439   .     S
C382   C1031   1.398   .     S
C383   H408    1.083   .     S
C383   C1030   1.398   1_554 S
C384   N421    1.440   .     S
C384   C1035   1.398   1_554 S
C385   N418    1.157   .     T
C386   N419    1.158   .     T
C387   H409    1.083   .     S
C387   C1032   1.398   .     S
C388   H410    1.083   .     S
C389   C392    1.401   .     A
C389   H411    1.083   .     S
C389   C247    1.383   1_655 S
C390   C392    1.401   .     A
C390   H412    1.083   .     S
C390   C244    1.383   1_655 S
C391   H413    1.083   .     S
Cu393  N415    2.040   .     S
Cu393  O429    1.956   .     S
Cu393  Cu394   2.715   .     S
Cu393  O425    1.962   .     S
Cu393  O427    1.963   .     S
Cu393  O431    1.961   .     S
Cu394  N417    2.040   .     S
Cu394  O430    1.956   .     S
Cu394  O426    1.962   .     S
Cu394  O432    1.961   .     S
Cu394  O428    1.963   .     S
H396   N420    1.046   .     S
H397   N421    1.046   .     S
H398   N421    1.046   .     S
H399   N422    1.026   .     S
H400   N422    1.045   .     S
H401   N423    1.037   .     S
H402   N423    1.042   .     S
H403   N424    1.037   .     S
H404   N424    1.042   .     S
H405   N416    1.045   .     S
H407   N416    1.046   .     S
H414   N420    1.046   .     S
C433   O497    1.301   .     A
C433   C434    1.450   .     S
C433   O500    1.303   .     A
C434   C460    1.400   .     A
C434   C463    1.401   .     A
C435   N489    1.394   .     A
C435   N494    1.435   .     S
C436   N495    1.432   .     S
C436   N487    1.379   .     A
C436   C5      1.413   1_565 S
C437   N489    1.379   .     A
C437   N496    1.433   .     S
C438   N488    1.432   .     S
C438   N487    1.360   .     A
C438   C3      1.428   1_565 S
C439   O501    1.299   .     A
C439   O504    1.301   .     A
C439   C445    1.448   .     S
C440   O502    1.299   .     A
C440   C443    1.447   .     S
C440   O503    1.301   .     A
C441   C452    1.410   .     A
C441   C443    1.404   .     A
C441   C457    1.453   .     S
C442   C458    1.453   .     S
C442   C453    1.410   .     A
C442   C445    1.404   .     A
C443   C446    1.391   .     A
C444   C464    1.450   .     S
C444   O499    1.303   .     A
C444   O498    1.301   .     A
C445   C447    1.391   .     A
C446   C448    1.396   .     A
C446   H467    1.084   .     S
C447   C449    1.396   .     A
C447   H478    1.084   .     S
C448   C450    1.417   .     A
C448   C454    1.410   .     A
C449   C451    1.417   .     A
C449   C456    1.410   .     A
C450   C452    1.420   .     A
C450   C1099   1.409   .     S
C451   C453    1.419   .     A
C451   C1098   1.409   1_554 S
C452   C459    1.407   .     A
C453   C455    1.407   .     A
C454   N492    1.439   .     S
C454   C1103   1.398   .     S
C455   H480    1.083   .     S
C455   C1102   1.398   1_554 S
C456   N493    1.440   .     S
C456   C1107   1.398   1_554 S
C457   N490    1.157   .     T
C458   N491    1.158   .     T
C459   H481    1.083   .     S
C459   C1104   1.398   .     S
C460   H482    1.083   .     S
C460   C606    1.383   1_455 S
C461   C464    1.401   .     A
C461   H483    1.083   .     S
C461   C535    1.383   .     S
C462   C464    1.401   .     A
C462   H484    1.083   .     S
C462   C532    1.383   .     S
C463   H485    1.083   .     S
C463   C605    1.383   1_455 S
Cu465  N487    2.040   .     S
Cu465  O501    1.956   .     S
Cu465  Cu466   2.715   .     S
Cu465  O497    1.962   .     S
Cu465  O499    1.963   .     S
Cu465  O503    1.961   .     S
Cu466  N489    2.040   .     S
Cu466  O502    1.956   .     S
Cu466  O498    1.962   .     S
Cu466  O504    1.961   .     S
Cu466  O500    1.963   .     S
H468   N492    1.046   .     S
H469   N493    1.046   .     S
H470   N493    1.046   .     S
H471   N494    1.026   .     S
H472   N494    1.045   .     S
H473   N495    1.037   .     S
H474   N495    1.042   .     S
H475   N496    1.037   .     S
H476   N496    1.042   .     S
H477   N488    1.045   .     S
H479   N488    1.046   .     S
H486   N492    1.046   .     S
C505   O569    1.301   .     A
C505   C506    1.450   .     S
C505   O572    1.303   .     A
C506   C532    1.400   .     A
C506   C535    1.401   .     A
C507   N561    1.394   .     A
C507   N566    1.435   .     S
C508   N567    1.432   .     S
C508   N559    1.379   .     A
C508   C77     1.413   1_565 S
C509   N561    1.379   .     A
C509   N568    1.433   .     S
C510   N560    1.432   .     S
C510   N559    1.360   .     A
C510   C75     1.428   1_565 S
C511   O573    1.299   .     A
C511   O576    1.301   .     A
C511   C517    1.448   .     S
C512   O574    1.299   .     A
C512   C515    1.447   .     S
C512   O575    1.301   .     A
C513   C524    1.410   .     A
C513   C515    1.404   .     A
C513   C529    1.453   .     S
C514   C530    1.453   .     S
C514   C525    1.410   .     A
C514   C517    1.404   .     A
C515   C518    1.391   .     A
C516   C536    1.450   .     S
C516   O571    1.303   .     A
C516   O570    1.301   .     A
C517   C519    1.391   .     A
C518   C520    1.396   .     A
C518   H539    1.084   .     S
C519   C521    1.396   .     A
C519   H550    1.084   .     S
C520   C522    1.417   .     A
C520   C526    1.410   .     A
C521   C523    1.417   .     A
C521   C528    1.410   .     A
C522   C524    1.420   .     A
C522   C1171   1.409   .     S
C523   C525    1.419   .     A
C523   C1170   1.409   1_554 S
C524   C531    1.407   .     A
C525   C527    1.407   .     A
C526   N564    1.439   .     S
C526   C1175   1.398   .     S
C527   H552    1.083   .     S
C527   C1174   1.398   1_554 S
C528   N565    1.440   .     S
C528   C1179   1.398   1_554 S
C529   N562    1.157   .     T
C530   N563    1.158   .     T
C531   H553    1.083   .     S
C531   C1176   1.398   .     S
C532   H554    1.083   .     S
C533   C536    1.401   .     A
C533   H555    1.083   .     S
C533   C607    1.383   .     S
C534   C536    1.401   .     A
C534   H556    1.083   .     S
C534   C604    1.383   .     S
C535   H557    1.083   .     S
Cu537  N559    2.040   .     S
Cu537  O573    1.956   .     S
Cu537  Cu538   2.715   .     S
Cu537  O569    1.962   .     S
Cu537  O571    1.963   .     S
Cu537  O575    1.961   .     S
Cu538  N561    2.040   .     S
Cu538  O574    1.956   .     S
Cu538  O570    1.962   .     S
Cu538  O576    1.961   .     S
Cu538  O572    1.963   .     S
H540   N564    1.046   .     S
H541   N565    1.046   .     S
H542   N565    1.046   .     S
H543   N566    1.026   .     S
H544   N566    1.045   .     S
H545   N567    1.037   .     S
H546   N567    1.042   .     S
H547   N568    1.037   .     S
H548   N568    1.042   .     S
H549   N560    1.045   .     S
H551   N560    1.046   .     S
H558   N564    1.046   .     S
C577   O641    1.301   .     A
C577   C578    1.450   .     S
C577   O644    1.303   .     A
C578   C604    1.400   .     A
C578   C607    1.401   .     A
C579   N633    1.394   .     A
C579   N638    1.435   .     S
C580   N639    1.432   .     S
C580   N631    1.379   .     A
C580   C149    1.413   1_565 S
C581   N633    1.379   .     A
C581   N640    1.433   .     S
C582   N632    1.432   .     S
C582   N631    1.360   .     A
C582   C147    1.428   1_565 S
C583   O645    1.299   .     A
C583   O648    1.301   .     A
C583   C589    1.448   .     S
C584   O646    1.299   .     A
C584   C587    1.447   .     S
C584   O647    1.301   .     A
C585   C596    1.410   .     A
C585   C587    1.404   .     A
C585   C601    1.453   .     S
C586   C602    1.453   .     S
C586   C597    1.410   .     A
C586   C589    1.404   .     A
C587   C590    1.391   .     A
C588   C608    1.450   .     S
C588   O643    1.303   .     A
C588   O642    1.301   .     A
C589   C591    1.391   .     A
C590   C592    1.396   .     A
C590   H611    1.084   .     S
C591   C593    1.396   .     A
C591   H622    1.084   .     S
C592   C594    1.417   .     A
C592   C598    1.410   .     A
C593   C595    1.417   .     A
C593   C600    1.410   .     A
C594   C596    1.420   .     A
C594   C1243   1.409   .     S
C595   C597    1.419   .     A
C595   C1242   1.409   1_554 S
C596   C603    1.407   .     A
C597   C599    1.407   .     A
C598   N636    1.439   .     S
C598   C1247   1.398   .     S
C599   H624    1.083   .     S
C599   C1246   1.398   1_554 S
C600   N637    1.440   .     S
C600   C1251   1.398   1_554 S
C601   N634    1.157   .     T
C602   N635    1.158   .     T
C603   H625    1.083   .     S
C603   C1248   1.398   .     S
C604   H626    1.083   .     S
C605   C608    1.401   .     A
C605   H627    1.083   .     S
C605   C463    1.383   1_655 S
C606   C608    1.401   .     A
C606   H628    1.083   .     S
C606   C460    1.383   1_655 S
C607   H629    1.083   .     S
Cu609  N631    2.040   .     S
Cu609  O645    1.956   .     S
Cu609  Cu610   2.715   .     S
Cu609  O641    1.962   .     S
Cu609  O643    1.963   .     S
Cu609  O647    1.961   .     S
Cu610  N633    2.040   .     S
Cu610  O646    1.956   .     S
Cu610  O642    1.962   .     S
Cu610  O648    1.961   .     S
Cu610  O644    1.963   .     S
H612   N636    1.046   .     S
H613   N637    1.046   .     S
H614   N637    1.046   .     S
H615   N638    1.026   .     S
H616   N638    1.045   .     S
H617   N639    1.037   .     S
H618   N639    1.042   .     S
H619   N640    1.037   .     S
H620   N640    1.042   .     S
H621   N632    1.045   .     S
H623   N632    1.046   .     S
H630   N636    1.046   .     S
C649   O713    1.301   .     A
C649   C650    1.450   .     S
C649   O716    1.303   .     A
C650   C676    1.400   .     A
C650   C679    1.401   .     A
C651   N705    1.394   .     A
C651   N710    1.435   .     S
C651   C1086   1.428   1_545 S
C652   N711    1.432   .     S
C652   N703    1.379   .     A
C652   C869    1.413   .     S
C653   N705    1.379   .     A
C653   N712    1.433   .     S
C653   C1084   1.413   1_545 S
C654   N704    1.432   .     S
C654   N703    1.360   .     A
C654   C867    1.428   .     S
C655   O717    1.299   .     A
C655   O720    1.301   .     A
C655   C661    1.448   .     S
C656   O718    1.299   .     A
C656   C659    1.447   .     S
C656   O719    1.301   .     A
C657   C668    1.410   .     A
C657   C659    1.404   .     A
C657   C673    1.453   .     S
C658   C674    1.453   .     S
C658   C669    1.410   .     A
C658   C661    1.404   .     A
C659   C662    1.391   .     A
C660   C680    1.450   .     S
C660   O715    1.303   .     A
C660   O714    1.301   .     A
C661   C663    1.391   .     A
C662   C664    1.396   .     A
C662   H683    1.084   .     S
C663   C665    1.396   .     A
C663   H694    1.084   .     S
C664   C666    1.417   .     A
C664   C670    1.410   .     A
C665   C667    1.417   .     A
C665   C672    1.410   .     A
C666   C668    1.420   .     A
C666   C19     1.409   1_556 S
C667   C669    1.419   .     A
C668   C675    1.407   .     A
C669   C671    1.407   .     A
C670   N708    1.439   .     S
C670   C23     1.398   1_556 S
C671   H696    1.083   .     S
C672   N709    1.440   .     S
C673   N706    1.157   .     T
C674   N707    1.158   .     T
C675   H697    1.083   .     S
C675   C24     1.398   1_556 S
C676   H698    1.083   .     S
C676   C822    1.383   1_455 S
C677   C680    1.401   .     A
C677   H699    1.083   .     S
C677   C751    1.383   .     S
C678   C680    1.401   .     A
C678   H700    1.083   .     S
C678   C748    1.383   .     S
C679   H701    1.083   .     S
C679   C821    1.383   1_455 S
Cu681  N703    2.040   .     S
Cu681  O717    1.956   .     S
Cu681  Cu682   2.715   .     S
Cu681  O713    1.962   .     S
Cu681  O715    1.963   .     S
Cu681  O719    1.961   .     S
Cu682  N705    2.040   .     S
Cu682  O718    1.956   .     S
Cu682  O714    1.962   .     S
Cu682  O720    1.961   .     S
Cu682  O716    1.963   .     S
H684   N708    1.046   .     S
H685   N709    1.046   .     S
H686   N709    1.046   .     S
H687   N710    1.026   .     S
H688   N710    1.045   .     S
H689   N711    1.037   .     S
H690   N711    1.042   .     S
H691   N712    1.037   .     S
H692   N712    1.042   .     S
H693   N704    1.045   .     S
H695   N704    1.046   .     S
H702   N708    1.046   .     S
C721   O785    1.301   .     A
C721   C722    1.450   .     S
C721   O788    1.303   .     A
C722   C748    1.400   .     A
C722   C751    1.401   .     A
C723   N777    1.394   .     A
C723   N782    1.435   .     S
C723   C1158   1.428   1_545 S
C724   N783    1.432   .     S
C724   N775    1.379   .     A
C724   C941    1.413   .     S
C725   N777    1.379   .     A
C725   N784    1.433   .     S
C725   C1156   1.413   1_545 S
C726   N776    1.432   .     S
C726   N775    1.360   .     A
C726   C939    1.428   .     S
C727   O789    1.299   .     A
C727   O792    1.301   .     A
C727   C733    1.448   .     S
C728   O790    1.299   .     A
C728   C731    1.447   .     S
C728   O791    1.301   .     A
C729   C740    1.410   .     A
C729   C731    1.404   .     A
C729   C745    1.453   .     S
C730   C746    1.453   .     S
C730   C741    1.410   .     A
C730   C733    1.404   .     A
C731   C734    1.391   .     A
C732   C752    1.450   .     S
C732   O787    1.303   .     A
C732   O786    1.301   .     A
C733   C735    1.391   .     A
C734   C736    1.396   .     A
C734   H755    1.084   .     S
C735   C737    1.396   .     A
C735   H766    1.084   .     S
C736   C738    1.417   .     A
C736   C742    1.410   .     A
C737   C739    1.417   .     A
C737   C744    1.410   .     A
C738   C740    1.420   .     A
C738   C91     1.409   1_556 S
C739   C741    1.419   .     A
C740   C747    1.407   .     A
C741   C743    1.407   .     A
C742   N780    1.439   .     S
C742   C95     1.398   1_556 S
C743   H768    1.083   .     S
C744   N781    1.440   .     S
C745   N778    1.157   .     T
C746   N779    1.158   .     T
C747   H769    1.083   .     S
C747   C96     1.398   1_556 S
C748   H770    1.083   .     S
C749   C752    1.401   .     A
C749   H771    1.083   .     S
C749   C823    1.383   .     S
C750   C752    1.401   .     A
C750   H772    1.083   .     S
C750   C820    1.383   .     S
C751   H773    1.083   .     S
Cu753  N775    2.040   .     S
Cu753  O789    1.956   .     S
Cu753  Cu754   2.715   .     S
Cu753  O785    1.962   .     S
Cu753  O787    1.963   .     S
Cu753  O791    1.961   .     S
Cu754  N777    2.040   .     S
Cu754  O790    1.956   .     S
Cu754  O786    1.962   .     S
Cu754  O792    1.961   .     S
Cu754  O788    1.963   .     S
H756   N780    1.046   .     S
H757   N781    1.046   .     S
H758   N781    1.046   .     S
H759   N782    1.026   .     S
H760   N782    1.045   .     S
H761   N783    1.037   .     S
H762   N783    1.042   .     S
H763   N784    1.037   .     S
H764   N784    1.042   .     S
H765   N776    1.045   .     S
H767   N776    1.046   .     S
H774   N780    1.046   .     S
C793   O857    1.301   .     A
C793   C794    1.450   .     S
C793   O860    1.303   .     A
C794   C820    1.400   .     A
C794   C823    1.401   .     A
C795   N849    1.394   .     A
C795   N854    1.435   .     S
C795   C1230   1.428   1_545 S
C796   N855    1.432   .     S
C796   N847    1.379   .     A
C796   C1013   1.413   .     S
C797   N849    1.379   .     A
C797   N856    1.433   .     S
C797   C1228   1.413   1_545 S
C798   N848    1.432   .     S
C798   N847    1.360   .     A
C798   C1011   1.428   .     S
C799   O861    1.299   .     A
C799   O864    1.301   .     A
C799   C805    1.448   .     S
C800   O862    1.299   .     A
C800   C803    1.447   .     S
C800   O863    1.301   .     A
C801   C812    1.410   .     A
C801   C803    1.404   .     A
C801   C817    1.453   .     S
C802   C818    1.453   .     S
C802   C813    1.410   .     A
C802   C805    1.404   .     A
C803   C806    1.391   .     A
C804   C824    1.450   .     S
C804   O859    1.303   .     A
C804   O858    1.301   .     A
C805   C807    1.391   .     A
C806   C808    1.396   .     A
C806   H827    1.084   .     S
C807   C809    1.396   .     A
C807   H838    1.084   .     S
C808   C810    1.417   .     A
C808   C814    1.410   .     A
C809   C811    1.417   .     A
C809   C816    1.410   .     A
C810   C812    1.420   .     A
C810   C163    1.409   1_556 S
C811   C813    1.419   .     A
C812   C819    1.407   .     A
C813   C815    1.407   .     A
C814   N852    1.439   .     S
C814   C167    1.398   1_556 S
C815   H840    1.083   .     S
C816   N853    1.440   .     S
C817   N850    1.157   .     T
C818   N851    1.158   .     T
C819   H841    1.083   .     S
C819   C168    1.398   1_556 S
C820   H842    1.083   .     S
C821   C824    1.401   .     A
C821   H843    1.083   .     S
C821   C679    1.383   1_655 S
C822   C824    1.401   .     A
C822   H844    1.083   .     S
C822   C676    1.383   1_655 S
C823   H845    1.083   .     S
Cu825  N847    2.040   .     S
Cu825  O861    1.956   .     S
Cu825  Cu826   2.715   .     S
Cu825  O857    1.962   .     S
Cu825  O859    1.963   .     S
Cu825  O863    1.961   .     S
Cu826  N849    2.040   .     S
Cu826  O862    1.956   .     S
Cu826  O858    1.962   .     S
Cu826  O864    1.961   .     S
Cu826  O860    1.963   .     S
H828   N852    1.046   .     S
H829   N853    1.046   .     S
H830   N853    1.046   .     S
H831   N854    1.026   .     S
H832   N854    1.045   .     S
H833   N855    1.037   .     S
H834   N855    1.042   .     S
H835   N856    1.037   .     S
H836   N856    1.042   .     S
H837   N848    1.045   .     S
H839   N848    1.046   .     S
H846   N852    1.046   .     S
C865   O929    1.301   .     A
C865   C866    1.450   .     S
C865   O932    1.303   .     A
C866   C892    1.400   .     A
C866   C895    1.401   .     A
C867   N921    1.394   .     A
C867   N926    1.435   .     S
C868   N927    1.432   .     S
C868   N919    1.379   .     A
C868   C1085   1.413   .     S
C869   N921    1.379   .     A
C869   N928    1.433   .     S
C870   N920    1.432   .     S
C870   N919    1.360   .     A
C870   C1083   1.428   .     S
C871   O933    1.299   .     A
C871   O936    1.301   .     A
C871   C877    1.448   .     S
C872   O934    1.299   .     A
C872   C875    1.447   .     S
C872   O935    1.301   .     A
C873   C884    1.410   .     A
C873   C875    1.404   .     A
C873   C889    1.453   .     S
C874   C890    1.453   .     S
C874   C885    1.410   .     A
C874   C877    1.404   .     A
C875   C878    1.391   .     A
C876   C896    1.450   .     S
C876   O931    1.303   .     A
C876   O930    1.301   .     A
C877   C879    1.391   .     A
C878   C880    1.396   .     A
C878   H899    1.084   .     S
C879   C881    1.396   .     A
C879   H910    1.084   .     S
C880   C882    1.417   .     A
C880   C886    1.410   .     A
C881   C883    1.417   .     A
C881   C888    1.410   .     A
C882   C884    1.420   .     A
C882   C235    1.409   1_556 S
C883   C885    1.419   .     A
C884   C891    1.407   .     A
C885   C887    1.407   .     A
C886   N924    1.439   .     S
C886   C239    1.398   1_556 S
C887   H912    1.083   .     S
C888   N925    1.440   .     S
C889   N922    1.157   .     T
C890   N923    1.158   .     T
C891   H913    1.083   .     S
C891   C240    1.398   1_556 S
C892   H914    1.083   .     S
C892   C1038   1.383   1_455 S
C893   C896    1.401   .     A
C893   H915    1.083   .     S
C893   C967    1.383   .     S
C894   C896    1.401   .     A
C894   H916    1.083   .     S
C894   C964    1.383   .     S
C895   H917    1.083   .     S
C895   C1037   1.383   1_455 S
Cu897  N919    2.040   .     S
Cu897  O933    1.956   .     S
Cu897  Cu898   2.715   .     S
Cu897  O929    1.962   .     S
Cu897  O931    1.963   .     S
Cu897  O935    1.961   .     S
Cu898  N921    2.040   .     S
Cu898  O934    1.956   .     S
Cu898  O930    1.962   .     S
Cu898  O936    1.961   .     S
Cu898  O932    1.963   .     S
H900   N924    1.046   .     S
H901   N925    1.046   .     S
H902   N925    1.046   .     S
H903   N926    1.026   .     S
H904   N926    1.045   .     S
H905   N927    1.037   .     S
H906   N927    1.042   .     S
H907   N928    1.037   .     S
H908   N928    1.042   .     S
H909   N920    1.045   .     S
H911   N920    1.046   .     S
H918   N924    1.046   .     S
C937   O1001   1.301   .     A
C937   C938    1.450   .     S
C937   O1004   1.303   .     A
C938   C964    1.400   .     A
C938   C967    1.401   .     A
C939   N993    1.394   .     A
C939   N998    1.435   .     S
C940   N999    1.432   .     S
C940   N991    1.379   .     A
C940   C1157   1.413   .     S
C941   N993    1.379   .     A
C941   N1000   1.433   .     S
C942   N992    1.432   .     S
C942   N991    1.360   .     A
C942   C1155   1.428   .     S
C943   O1005   1.299   .     A
C943   O1008   1.301   .     A
C943   C949    1.448   .     S
C944   O1006   1.299   .     A
C944   C947    1.447   .     S
C944   O1007   1.301   .     A
C945   C956    1.410   .     A
C945   C947    1.404   .     A
C945   C961    1.453   .     S
C946   C962    1.453   .     S
C946   C957    1.410   .     A
C946   C949    1.404   .     A
C947   C950    1.391   .     A
C948   C968    1.450   .     S
C948   O1003   1.303   .     A
C948   O1002   1.301   .     A
C949   C951    1.391   .     A
C950   C952    1.396   .     A
C950   H971    1.084   .     S
C951   C953    1.396   .     A
C951   H982    1.084   .     S
C952   C954    1.417   .     A
C952   C958    1.410   .     A
C953   C955    1.417   .     A
C953   C960    1.410   .     A
C954   C956    1.420   .     A
C954   C307    1.409   1_556 S
C955   C957    1.419   .     A
C956   C963    1.407   .     A
C957   C959    1.407   .     A
C958   N996    1.439   .     S
C958   C311    1.398   1_556 S
C959   H984    1.083   .     S
C960   N997    1.440   .     S
C961   N994    1.157   .     T
C962   N995    1.158   .     T
C963   H985    1.083   .     S
C963   C312    1.398   1_556 S
C964   H986    1.083   .     S
C965   C968    1.401   .     A
C965   H987    1.083   .     S
C965   C1039   1.383   .     S
C966   C968    1.401   .     A
C966   H988    1.083   .     S
C966   C1036   1.383   .     S
C967   H989    1.083   .     S
Cu969  N991    2.040   .     S
Cu969  O1005   1.956   .     S
Cu969  Cu970   2.715   .     S
Cu969  O1001   1.962   .     S
Cu969  O1003   1.963   .     S
Cu969  O1007   1.961   .     S
Cu970  N993    2.040   .     S
Cu970  O1006   1.956   .     S
Cu970  O1002   1.962   .     S
Cu970  O1008   1.961   .     S
Cu970  O1004   1.963   .     S
H972   N996    1.046   .     S
H973   N997    1.046   .     S
H974   N997    1.046   .     S
H975   N998    1.026   .     S
H976   N998    1.045   .     S
H977   N999    1.037   .     S
H978   N999    1.042   .     S
H979   N1000   1.037   .     S
H980   N1000   1.042   .     S
H981   N992    1.045   .     S
H983   N992    1.046   .     S
H990   N996    1.046   .     S
C1009  O1073   1.301   .     A
C1009  C1010   1.450   .     S
C1009  O1076   1.303   .     A
C1010  C1036   1.400   .     A
C1010  C1039   1.401   .     A
C1011  N1065   1.394   .     A
C1011  N1070   1.435   .     S
C1012  N1071   1.432   .     S
C1012  N1063   1.379   .     A
C1012  C1229   1.413   .     S
C1013  N1065   1.379   .     A
C1013  N1072   1.433   .     S
C1014  N1064   1.432   .     S
C1014  N1063   1.360   .     A
C1014  C1227   1.428   .     S
C1015  O1077   1.299   .     A
C1015  O1080   1.301   .     A
C1015  C1021   1.448   .     S
C1016  O1078   1.299   .     A
C1016  C1019   1.447   .     S
C1016  O1079   1.301   .     A
C1017  C1028   1.410   .     A
C1017  C1019   1.404   .     A
C1017  C1033   1.453   .     S
C1018  C1034   1.453   .     S
C1018  C1029   1.410   .     A
C1018  C1021   1.404   .     A
C1019  C1022   1.391   .     A
C1020  C1040   1.450   .     S
C1020  O1075   1.303   .     A
C1020  O1074   1.301   .     A
C1021  C1023   1.391   .     A
C1022  C1024   1.396   .     A
C1022  H1043   1.084   .     S
C1023  C1025   1.396   .     A
C1023  H1054   1.084   .     S
C1024  C1026   1.417   .     A
C1024  C1030   1.410   .     A
C1025  C1027   1.417   .     A
C1025  C1032   1.410   .     A
C1026  C1028   1.420   .     A
C1026  C379    1.409   1_556 S
C1027  C1029   1.419   .     A
C1028  C1035   1.407   .     A
C1029  C1031   1.407   .     A
C1030  N1068   1.439   .     S
C1030  C383    1.398   1_556 S
C1031  H1056   1.083   .     S
C1032  N1069   1.440   .     S
C1033  N1066   1.157   .     T
C1034  N1067   1.158   .     T
C1035  H1057   1.083   .     S
C1035  C384    1.398   1_556 S
C1036  H1058   1.083   .     S
C1037  C1040   1.401   .     A
C1037  H1059   1.083   .     S
C1037  C895    1.383   1_655 S
C1038  C1040   1.401   .     A
C1038  H1060   1.083   .     S
C1038  C892    1.383   1_655 S
C1039  H1061   1.083   .     S
Cu1041 N1063   2.040   .     S
Cu1041 O1077   1.956   .     S
Cu1041 Cu1042  2.715   .     S
Cu1041 O1073   1.962   .     S
Cu1041 O1075   1.963   .     S
Cu1041 O1079   1.961   .     S
Cu1042 N1065   2.040   .     S
Cu1042 O1078   1.956   .     S
Cu1042 O1074   1.962   .     S
Cu1042 O1080   1.961   .     S
Cu1042 O1076   1.963   .     S
H1044  N1068   1.046   .     S
H1045  N1069   1.046   .     S
H1046  N1069   1.046   .     S
H1047  N1070   1.026   .     S
H1048  N1070   1.045   .     S
H1049  N1071   1.037   .     S
H1050  N1071   1.042   .     S
H1051  N1072   1.037   .     S
H1052  N1072   1.042   .     S
H1053  N1064   1.045   .     S
H1055  N1064   1.046   .     S
H1062  N1068   1.046   .     S
C1081  O1145   1.301   .     A
C1081  C1082   1.450   .     S
C1081  O1148   1.303   .     A
C1082  C1108   1.400   .     A
C1082  C1111   1.401   .     A
C1083  N1137   1.394   .     A
C1083  N1142   1.435   .     S
C1084  N1143   1.432   .     S
C1084  N1135   1.379   .     A
C1084  C653    1.413   1_565 S
C1085  N1137   1.379   .     A
C1085  N1144   1.433   .     S
C1086  N1136   1.432   .     S
C1086  N1135   1.360   .     A
C1086  C651    1.428   1_565 S
C1087  O1149   1.299   .     A
C1087  O1152   1.301   .     A
C1087  C1093   1.448   .     S
C1088  O1150   1.299   .     A
C1088  C1091   1.447   .     S
C1088  O1151   1.301   .     A
C1089  C1100   1.410   .     A
C1089  C1091   1.404   .     A
C1089  C1105   1.453   .     S
C1090  C1106   1.453   .     S
C1090  C1101   1.410   .     A
C1090  C1093   1.404   .     A
C1091  C1094   1.391   .     A
C1092  C1112   1.450   .     S
C1092  O1147   1.303   .     A
C1092  O1146   1.301   .     A
C1093  C1095   1.391   .     A
C1094  C1096   1.396   .     A
C1094  H1115   1.084   .     S
C1095  C1097   1.396   .     A
C1095  H1126   1.084   .     S
C1096  C1098   1.417   .     A
C1096  C1102   1.410   .     A
C1097  C1099   1.417   .     A
C1097  C1104   1.410   .     A
C1098  C1100   1.420   .     A
C1098  C451    1.409   1_556 S
C1099  C1101   1.419   .     A
C1100  C1107   1.407   .     A
C1101  C1103   1.407   .     A
C1102  N1140   1.439   .     S
C1102  C455    1.398   1_556 S
C1103  H1128   1.083   .     S
C1104  N1141   1.440   .     S
C1105  N1138   1.157   .     T
C1106  N1139   1.158   .     T
C1107  H1129   1.083   .     S
C1107  C456    1.398   1_556 S
C1108  H1130   1.083   .     S
C1108  C1254   1.383   1_455 S
C1109  C1112   1.401   .     A
C1109  H1131   1.083   .     S
C1109  C1183   1.383   .     S
C1110  C1112   1.401   .     A
C1110  H1132   1.083   .     S
C1110  C1180   1.383   .     S
C1111  H1133   1.083   .     S
C1111  C1253   1.383   1_455 S
Cu1113 N1135   2.040   .     S
Cu1113 O1149   1.956   .     S
Cu1113 Cu1114  2.715   .     S
Cu1113 O1145   1.962   .     S
Cu1113 O1147   1.963   .     S
Cu1113 O1151   1.961   .     S
Cu1114 N1137   2.040   .     S
Cu1114 O1150   1.956   .     S
Cu1114 O1146   1.962   .     S
Cu1114 O1152   1.961   .     S
Cu1114 O1148   1.963   .     S
H1116  N1140   1.046   .     S
H1117  N1141   1.046   .     S
H1118  N1141   1.046   .     S
H1119  N1142   1.026   .     S
H1120  N1142   1.045   .     S
H1121  N1143   1.037   .     S
H1122  N1143   1.042   .     S
H1123  N1144   1.037   .     S
H1124  N1144   1.042   .     S
H1125  N1136   1.045   .     S
H1127  N1136   1.046   .     S
H1134  N1140   1.046   .     S
C1153  O1217   1.301   .     A
C1153  C1154   1.450   .     S
C1153  O1220   1.303   .     A
C1154  C1180   1.400   .     A
C1154  C1183   1.401   .     A
C1155  N1209   1.394   .     A
C1155  N1214   1.435   .     S
C1156  N1215   1.432   .     S
C1156  N1207   1.379   .     A
C1156  C725    1.413   1_565 S
C1157  N1209   1.379   .     A
C1157  N1216   1.433   .     S
C1158  N1208   1.432   .     S
C1158  N1207   1.360   .     A
C1158  C723    1.428   1_565 S
C1159  O1221   1.299   .     A
C1159  O1224   1.301   .     A
C1159  C1165   1.448   .     S
C1160  O1222   1.299   .     A
C1160  C1163   1.447   .     S
C1160  O1223   1.301   .     A
C1161  C1172   1.410   .     A
C1161  C1163   1.404   .     A
C1161  C1177   1.453   .     S
C1162  C1178   1.453   .     S
C1162  C1173   1.410   .     A
C1162  C1165   1.404   .     A
C1163  C1166   1.391   .     A
C1164  C1184   1.450   .     S
C1164  O1219   1.303   .     A
C1164  O1218   1.301   .     A
C1165  C1167   1.391   .     A
C1166  C1168   1.396   .     A
C1166  H1187   1.084   .     S
C1167  C1169   1.396   .     A
C1167  H1198   1.084   .     S
C1168  C1170   1.417   .     A
C1168  C1174   1.410   .     A
C1169  C1171   1.417   .     A
C1169  C1176   1.410   .     A
C1170  C1172   1.420   .     A
C1170  C523    1.409   1_556 S
C1171  C1173   1.419   .     A
C1172  C1179   1.407   .     A
C1173  C1175   1.407   .     A
C1174  N1212   1.439   .     S
C1174  C527    1.398   1_556 S
C1175  H1200   1.083   .     S
C1176  N1213   1.440   .     S
C1177  N1210   1.157   .     T
C1178  N1211   1.158   .     T
C1179  H1201   1.083   .     S
C1179  C528    1.398   1_556 S
C1180  H1202   1.083   .     S
C1181  C1184   1.401   .     A
C1181  H1203   1.083   .     S
C1181  C1255   1.383   .     S
C1182  C1184   1.401   .     A
C1182  H1204   1.083   .     S
C1182  C1252   1.383   .     S
C1183  H1205   1.083   .     S
Cu1185 N1207   2.040   .     S
Cu1185 O1221   1.956   .     S
Cu1185 Cu1186  2.715   .     S
Cu1185 O1217   1.962   .     S
Cu1185 O1219   1.963   .     S
Cu1185 O1223   1.961   .     S
Cu1186 N1209   2.040   .     S
Cu1186 O1222   1.956   .     S
Cu1186 O1218   1.962   .     S
Cu1186 O1224   1.961   .     S
Cu1186 O1220   1.963   .     S
H1188  N1212   1.046   .     S
H1189  N1213   1.046   .     S
H1190  N1213   1.046   .     S
H1191  N1214   1.026   .     S
H1192  N1214   1.045   .     S
H1193  N1215   1.037   .     S
H1194  N1215   1.042   .     S
H1195  N1216   1.037   .     S
H1196  N1216   1.042   .     S
H1197  N1208   1.045   .     S
H1199  N1208   1.046   .     S
H1206  N1212   1.046   .     S
C1225  O1289   1.301   .     A
C1225  C1226   1.450   .     S
C1225  O1292   1.303   .     A
C1226  C1252   1.400   .     A
C1226  C1255   1.401   .     A
C1227  N1281   1.394   .     A
C1227  N1286   1.435   .     S
C1228  N1287   1.432   .     S
C1228  N1279   1.379   .     A
C1228  C797    1.413   1_565 S
C1229  N1281   1.379   .     A
C1229  N1288   1.433   .     S
C1230  N1280   1.432   .     S
C1230  N1279   1.360   .     A
C1230  C795    1.428   1_565 S
C1231  O1293   1.299   .     A
C1231  O1296   1.301   .     A
C1231  C1237   1.448   .     S
C1232  O1294   1.299   .     A
C1232  C1235   1.447   .     S
C1232  O1295   1.301   .     A
C1233  C1244   1.410   .     A
C1233  C1235   1.404   .     A
C1233  C1249   1.453   .     S
C1234  C1250   1.453   .     S
C1234  C1245   1.410   .     A
C1234  C1237   1.404   .     A
C1235  C1238   1.391   .     A
C1236  C1256   1.450   .     S
C1236  O1291   1.303   .     A
C1236  O1290   1.301   .     A
C1237  C1239   1.391   .     A
C1238  C1240   1.396   .     A
C1238  H1259   1.084   .     S
C1239  C1241   1.396   .     A
C1239  H1270   1.084   .     S
C1240  C1242   1.417   .     A
C1240  C1246   1.410   .     A
C1241  C1243   1.417   .     A
C1241  C1248   1.410   .     A
C1242  C1244   1.420   .     A
C1242  C595    1.409   1_556 S
C1243  C1245   1.419   .     A
C1244  C1251   1.407   .     A
C1245  C1247   1.407   .     A
C1246  N1284   1.439   .     S
C1246  C599    1.398   1_556 S
C1247  H1272   1.083   .     S
C1248  N1285   1.440   .     S
C1249  N1282   1.157   .     T
C1250  N1283   1.158   .     T
C1251  H1273   1.083   .     S
C1251  C600    1.398   1_556 S
C1252  H1274   1.083   .     S
C1253  C1256   1.401   .     A
C1253  H1275   1.083   .     S
C1253  C1111   1.383   1_655 S
C1254  C1256   1.401   .     A
C1254  H1276   1.083   .     S
C1254  C1108   1.383   1_655 S
C1255  H1277   1.083   .     S
Cu1257 N1279   2.040   .     S
Cu1257 O1293   1.956   .     S
Cu1257 Cu1258  2.715   .     S
Cu1257 O1289   1.962   .     S
Cu1257 O1291   1.963   .     S
Cu1257 O1295   1.961   .     S
Cu1258 N1281   2.040   .     S
Cu1258 O1294   1.956   .     S
Cu1258 O1290   1.962   .     S
Cu1258 O1296   1.961   .     S
Cu1258 O1292   1.963   .     S
H1260  N1284   1.046   .     S
H1261  N1285   1.046   .     S
H1262  N1285   1.046   .     S
H1263  N1286   1.026   .     S
H1264  N1286   1.045   .     S
H1265  N1287   1.037   .     S
H1266  N1287   1.042   .     S
H1267  N1288   1.037   .     S
H1268  N1288   1.042   .     S
H1269  N1280   1.045   .     S
H1271  N1280   1.046   .     S
H1278  N1284   1.046   .     S
