data_str_m2_o1_o2_pcu_sym.54
_audit_creation_date              2020-01-03
_audit_creation_method            'Materials Studio'
_symmetry_space_group_name_H-M    'P1'
_symmetry_Int_Tables_number       1
_symmetry_cell_setting            triclinic
loop_
_symmetry_equiv_pos_as_xyz
  x,y,z
_cell_length_a                    32.8322
_cell_length_b                    28.5564
_cell_length_c                    30.2586
_cell_angle_alpha                 90.0000
_cell_angle_beta                  90.3620
_cell_angle_gamma                 90.0001
loop_
_atom_site_label
_atom_site_type_symbol
_atom_site_fract_x
_atom_site_fract_y
_atom_site_fract_z
_atom_site_U_iso_or_equiv
_atom_site_adp_type
_atom_site_occupancy
C1     C     0.08736   0.16665   0.25027   0.00000  Uiso   1.00
C2     C     0.31229   0.20921   0.24695   0.00000  Uiso   1.00
C3     C     0.31222   0.12405   0.25216   0.00000  Uiso   1.00
C4     C     0.02104   0.20921   0.25305   0.00000  Uiso   1.00
C5     C     0.17928   0.20671   0.04772   0.00000  Uiso   1.00
C6     C     0.17929   0.12683   0.45250   0.00000  Uiso   1.00
C7     C     0.15405   0.20671   0.45228   0.00000  Uiso   1.00
C8     C     0.15405   0.12683   0.04750   0.00000  Uiso   1.00
C9     C     0.17905   0.20677   0.09365   0.00000  Uiso   1.00
C10    C     0.17903   0.12670   0.40657   0.00000  Uiso   1.00
C11    C     0.15428   0.20677   0.40635   0.00000  Uiso   1.00
C12    C     0.24597   0.16665   0.24973   0.00000  Uiso   1.00
C13    C     0.15430   0.12669   0.09343   0.00000  Uiso   1.00
C14    C     0.16668   0.16671   0.11674   0.00000  Uiso   1.00
C15    C     0.16665   0.16671   0.38326   0.00000  Uiso   1.00
C16    C     0.16666   0.16678   0.02428   0.00000  Uiso   1.00
C17    C     0.16667   0.16678   0.47572   0.00000  Uiso   1.00
C18    C     0.29060   0.16661   0.24947   0.00000  Uiso   1.00
C19    C     0.04274   0.16661   0.25053   0.00000  Uiso   1.00
C20    C     0.03987   0.06671   0.19980   0.00000  Uiso   1.00
C21    C     0.04357   0.01375   0.19821   0.00000  Uiso   1.00
C22    C     0.28984   0.25882   0.19382   0.00000  Uiso   1.00
C23    C     0.16667   0.16667   0.16497   0.00000  Uiso   1.00
C24    C     0.26530   0.30298   0.18461   0.00000  Uiso   1.00
C25    C     0.29347   0.06671   0.30020   0.00000  Uiso   1.00
C26    C     0.28977   0.01375   0.30179   0.00000  Uiso   1.00
C27    C     0.04349   0.25882   0.30618   0.00000  Uiso   1.00
C28    C     0.06803   0.30298   0.31539   0.00000  Uiso   1.00
C29    C     0.16667   0.16667   0.33503   0.00000  Uiso   1.00
C30    C     0.15152   0.02477   0.21479   0.00000  Uiso   1.00
C31    C     0.18208   0.30856   0.28509   0.00000  Uiso   1.00
C32    C     0.18182   0.02477   0.28521   0.00000  Uiso   1.00
C33    C     0.15125   0.30856   0.21491   0.00000  Uiso   1.00
C34    C     0.02111   0.12405   0.24784   0.00000  Uiso   1.00
Cu35   Cu    0.16667   0.21355   0.25000   0.00000  Uiso   1.00
Cu36   Cu    0.16667   0.11978   0.25000   0.00000  Uiso   1.00
H37    H     0.13904   0.04326   0.18664   0.00000  Uiso   1.00
H38    H     0.18906   0.09555   0.38933   0.00000  Uiso   1.00
H39    H     0.14425   0.23788   0.38892   0.00000  Uiso   1.00
H40    H     0.14428   0.09555   0.11067   0.00000  Uiso   1.00
H41    H     0.06591   0.08247   0.18179   0.00000  Uiso   1.00
H42    H     0.01105   0.07624   0.18215   0.00000  Uiso   1.00
H43    H     0.01699   0.33110   0.21462   0.00000  Uiso   1.00
H44    H     0.04486   0.00157   0.16340   0.00000  Uiso   1.00
H45    H     0.07127   0.00218   0.21603   0.00000  Uiso   1.00
H46    H     0.27406   0.22911   0.17701   0.00000  Uiso   1.00
H47    H     0.32066   0.26305   0.17921   0.00000  Uiso   1.00
H48    H     0.19479   0.29006   0.31313   0.00000  Uiso   1.00
H49    H     0.27968   0.00044   0.20067   0.00000  Uiso   1.00
H50    H     0.26354   0.30924   0.14844   0.00000  Uiso   1.00
H51    H     0.23404   0.29880   0.19751   0.00000  Uiso   1.00
H52    H     0.26743   0.08247   0.31821   0.00000  Uiso   1.00
H53    H     0.32228   0.07624   0.31785   0.00000  Uiso   1.00
H54    H     0.31635   0.33110   0.28536   0.00000  Uiso   1.00
H55    H     0.28849   0.00157   0.33660   0.00000  Uiso   1.00
H56    H     0.26207   0.00218   0.28398   0.00000  Uiso   1.00
H57    H     0.05927   0.22911   0.32299   0.00000  Uiso   1.00
H58    H     0.01267   0.26305   0.32079   0.00000  Uiso   1.00
H59    H     0.19429   0.04326   0.31336   0.00000  Uiso   1.00
H60    H     0.06978   0.30925   0.35156   0.00000  Uiso   1.00
H61    H     0.09929   0.29880   0.30250   0.00000  Uiso   1.00
H62    H     0.05366   0.00044   0.29932   0.00000  Uiso   1.00
H63    H     0.13855   0.29006   0.18687   0.00000  Uiso   1.00
H64    H     0.18979   0.23767   0.03056   0.00000  Uiso   1.00
H65    H     0.18982   0.09590   0.46983   0.00000  Uiso   1.00
H66    H     0.14354   0.23767   0.46944   0.00000  Uiso   1.00
H67    H     0.14352   0.09590   0.03017   0.00000  Uiso   1.00
H68    H     0.18908   0.23789   0.11108   0.00000  Uiso   1.00
N69    N     0.16667   0.28402   0.25000   0.00000  Uiso   1.00
N70    N     0.16667   0.04931   0.25000   0.00000  Uiso   1.00
O71    O     0.10655   0.20625   0.25000   0.00000  Uiso   1.00
O72    O     0.29269   0.25146   0.23998   0.00000  Uiso   1.00
O73    O     0.29246   0.08144   0.25556   0.00000  Uiso   1.00
O74    O     0.04064   0.25146   0.26002   0.00000  Uiso   1.00
O75    O     0.22679   0.12709   0.25001   0.00000  Uiso   1.00
O76    O     0.22679   0.20625   0.25001   0.00000  Uiso   1.00
O77    O     0.10655   0.12709   0.25000   0.00000  Uiso   1.00
O78    O     0.16666   0.20626   0.18573   0.00000  Uiso   1.00
O79    O     0.16667   0.12707   0.31427   0.00000  Uiso   1.00
O80    O     0.16667   0.20626   0.31427   0.00000  Uiso   1.00
O81    O     0.16666   0.12707   0.18573   0.00000  Uiso   1.00
O82    O     0.04087   0.08144   0.24444   0.00000  Uiso   1.00
C83    C     0.42069   0.16665   0.25027   0.00000  Uiso   1.00
C84    C     0.64562   0.20921   0.24695   0.00000  Uiso   1.00
C85    C     0.64555   0.12405   0.25216   0.00000  Uiso   1.00
C86    C     0.35438   0.20921   0.25305   0.00000  Uiso   1.00
C87    C     0.51261   0.20671   0.04772   0.00000  Uiso   1.00
C88    C     0.51262   0.12683   0.45250   0.00000  Uiso   1.00
C89    C     0.48739   0.20671   0.45228   0.00000  Uiso   1.00
C90    C     0.48738   0.12683   0.04750   0.00000  Uiso   1.00
C91    C     0.51239   0.20677   0.09365   0.00000  Uiso   1.00
C92    C     0.51237   0.12670   0.40657   0.00000  Uiso   1.00
C93    C     0.48761   0.20677   0.40635   0.00000  Uiso   1.00
C94    C     0.57931   0.16665   0.24973   0.00000  Uiso   1.00
C95    C     0.48764   0.12669   0.09343   0.00000  Uiso   1.00
C96    C     0.50002   0.16671   0.11674   0.00000  Uiso   1.00
C97    C     0.49998   0.16671   0.38326   0.00000  Uiso   1.00
C98    C     0.49999   0.16678   0.02428   0.00000  Uiso   1.00
C99    C     0.50001   0.16678   0.47572   0.00000  Uiso   1.00
C100   C     0.62393   0.16661   0.24947   0.00000  Uiso   1.00
C101   C     0.37607   0.16661   0.25053   0.00000  Uiso   1.00
C102   C     0.37320   0.06671   0.19980   0.00000  Uiso   1.00
C103   C     0.37690   0.01375   0.19821   0.00000  Uiso   1.00
C104   C     0.62317   0.25882   0.19382   0.00000  Uiso   1.00
C105   C     0.50000   0.16667   0.16497   0.00000  Uiso   1.00
C106   C     0.59864   0.30298   0.18461   0.00000  Uiso   1.00
C107   C     0.62680   0.06671   0.30020   0.00000  Uiso   1.00
C108   C     0.62310   0.01375   0.30179   0.00000  Uiso   1.00
C109   C     0.37682   0.25882   0.30618   0.00000  Uiso   1.00
C110   C     0.40136   0.30298   0.31539   0.00000  Uiso   1.00
C111   C     0.50000   0.16667   0.33503   0.00000  Uiso   1.00
C112   C     0.48485   0.02477   0.21479   0.00000  Uiso   1.00
C113   C     0.51542   0.30856   0.28509   0.00000  Uiso   1.00
C114   C     0.51515   0.02477   0.28521   0.00000  Uiso   1.00
C115   C     0.48458   0.30856   0.21491   0.00000  Uiso   1.00
C116   C     0.35445   0.12405   0.24784   0.00000  Uiso   1.00
Cu117  Cu    0.50000   0.21355   0.25000   0.00000  Uiso   1.00
Cu118  Cu    0.50000   0.11978   0.25000   0.00000  Uiso   1.00
H119   H     0.47237   0.04326   0.18664   0.00000  Uiso   1.00
H120   H     0.52239   0.09555   0.38933   0.00000  Uiso   1.00
H121   H     0.47758   0.23788   0.38892   0.00000  Uiso   1.00
H122   H     0.47762   0.09555   0.11067   0.00000  Uiso   1.00
H123   H     0.39924   0.08247   0.18179   0.00000  Uiso   1.00
H124   H     0.34439   0.07624   0.18215   0.00000  Uiso   1.00
H125   H     0.35032   0.33110   0.21462   0.00000  Uiso   1.00
H126   H     0.37819   0.00157   0.16340   0.00000  Uiso   1.00
H127   H     0.40460   0.00218   0.21603   0.00000  Uiso   1.00
H128   H     0.60739   0.22911   0.17701   0.00000  Uiso   1.00
H129   H     0.65400   0.26305   0.17921   0.00000  Uiso   1.00
H130   H     0.52812   0.29006   0.31313   0.00000  Uiso   1.00
H131   H     0.61302   0.00044   0.20067   0.00000  Uiso   1.00
H132   H     0.59688   0.30924   0.14844   0.00000  Uiso   1.00
H133   H     0.56737   0.29880   0.19751   0.00000  Uiso   1.00
H134   H     0.60076   0.08247   0.31821   0.00000  Uiso   1.00
H135   H     0.65562   0.07624   0.31785   0.00000  Uiso   1.00
H136   H     0.64968   0.33110   0.28536   0.00000  Uiso   1.00
H137   H     0.62183   0.00157   0.33660   0.00000  Uiso   1.00
H138   H     0.59540   0.00218   0.28398   0.00000  Uiso   1.00
H139   H     0.39260   0.22911   0.32299   0.00000  Uiso   1.00
H140   H     0.34600   0.26305   0.32079   0.00000  Uiso   1.00
H141   H     0.52763   0.04326   0.31336   0.00000  Uiso   1.00
H142   H     0.40312   0.30925   0.35156   0.00000  Uiso   1.00
H143   H     0.43263   0.29880   0.30250   0.00000  Uiso   1.00
H144   H     0.38699   0.00044   0.29932   0.00000  Uiso   1.00
H145   H     0.47188   0.29006   0.18687   0.00000  Uiso   1.00
H146   H     0.52312   0.23767   0.03056   0.00000  Uiso   1.00
H147   H     0.52315   0.09590   0.46983   0.00000  Uiso   1.00
H148   H     0.47687   0.23767   0.46944   0.00000  Uiso   1.00
H149   H     0.47685   0.09590   0.03017   0.00000  Uiso   1.00
H150   H     0.52241   0.23789   0.11108   0.00000  Uiso   1.00
N151   N     0.50000   0.28402   0.25000   0.00000  Uiso   1.00
N152   N     0.50000   0.04931   0.25000   0.00000  Uiso   1.00
O153   O     0.43988   0.20625   0.25000   0.00000  Uiso   1.00
O154   O     0.62602   0.25146   0.23998   0.00000  Uiso   1.00
O155   O     0.62580   0.08144   0.25556   0.00000  Uiso   1.00
O156   O     0.37398   0.25146   0.26002   0.00000  Uiso   1.00
O157   O     0.56012   0.12709   0.25001   0.00000  Uiso   1.00
O158   O     0.56012   0.20625   0.25001   0.00000  Uiso   1.00
O159   O     0.43988   0.12709   0.25000   0.00000  Uiso   1.00
O160   O     0.50000   0.20626   0.18573   0.00000  Uiso   1.00
O161   O     0.50000   0.12707   0.31427   0.00000  Uiso   1.00
O162   O     0.50000   0.20626   0.31427   0.00000  Uiso   1.00
O163   O     0.50000   0.12707   0.18573   0.00000  Uiso   1.00
O164   O     0.37420   0.08144   0.24444   0.00000  Uiso   1.00
C165   C     0.75403   0.16665   0.25027   0.00000  Uiso   1.00
C166   C     0.97896   0.20921   0.24695   0.00000  Uiso   1.00
C167   C     0.97889   0.12405   0.25216   0.00000  Uiso   1.00
C168   C     0.68771   0.20921   0.25305   0.00000  Uiso   1.00
C169   C     0.84594   0.20671   0.04772   0.00000  Uiso   1.00
C170   C     0.84595   0.12683   0.45250   0.00000  Uiso   1.00
C171   C     0.82072   0.20671   0.45228   0.00000  Uiso   1.00
C172   C     0.82072   0.12683   0.04750   0.00000  Uiso   1.00
C173   C     0.84572   0.20677   0.09365   0.00000  Uiso   1.00
C174   C     0.84570   0.12670   0.40657   0.00000  Uiso   1.00
C175   C     0.82094   0.20677   0.40635   0.00000  Uiso   1.00
C176   C     0.91264   0.16665   0.24973   0.00000  Uiso   1.00
C177   C     0.82097   0.12669   0.09343   0.00000  Uiso   1.00
C178   C     0.83335   0.16671   0.11674   0.00000  Uiso   1.00
C179   C     0.83332   0.16671   0.38326   0.00000  Uiso   1.00
C180   C     0.83333   0.16678   0.02428   0.00000  Uiso   1.00
C181   C     0.83334   0.16678   0.47572   0.00000  Uiso   1.00
C182   C     0.95726   0.16661   0.24947   0.00000  Uiso   1.00
C183   C     0.70940   0.16661   0.25053   0.00000  Uiso   1.00
C184   C     0.70653   0.06671   0.19980   0.00000  Uiso   1.00
C185   C     0.71024   0.01375   0.19821   0.00000  Uiso   1.00
C186   C     0.95651   0.25882   0.19382   0.00000  Uiso   1.00
C187   C     0.83333   0.16667   0.16497   0.00000  Uiso   1.00
C188   C     0.93197   0.30298   0.18461   0.00000  Uiso   1.00
C189   C     0.96014   0.06671   0.30020   0.00000  Uiso   1.00
C190   C     0.95644   0.01375   0.30179   0.00000  Uiso   1.00
C191   C     0.71016   0.25882   0.30618   0.00000  Uiso   1.00
C192   C     0.73469   0.30298   0.31539   0.00000  Uiso   1.00
C193   C     0.83333   0.16667   0.33503   0.00000  Uiso   1.00
C194   C     0.81818   0.02477   0.21479   0.00000  Uiso   1.00
C195   C     0.84875   0.30856   0.28509   0.00000  Uiso   1.00
C196   C     0.84849   0.02477   0.28521   0.00000  Uiso   1.00
C197   C     0.81792   0.30856   0.21491   0.00000  Uiso   1.00
C198   C     0.68778   0.12405   0.24784   0.00000  Uiso   1.00
Cu199  Cu    0.83333   0.21355   0.25000   0.00000  Uiso   1.00
Cu200  Cu    0.83333   0.11978   0.25000   0.00000  Uiso   1.00
H201   H     0.80571   0.04326   0.18664   0.00000  Uiso   1.00
H202   H     0.85572   0.09555   0.38933   0.00000  Uiso   1.00
H203   H     0.81091   0.23788   0.38892   0.00000  Uiso   1.00
H204   H     0.81095   0.09555   0.11067   0.00000  Uiso   1.00
H205   H     0.73257   0.08247   0.18179   0.00000  Uiso   1.00
H206   H     0.67772   0.07624   0.18215   0.00000  Uiso   1.00
H207   H     0.68366   0.33110   0.21462   0.00000  Uiso   1.00
H208   H     0.71153   0.00157   0.16340   0.00000  Uiso   1.00
H209   H     0.73793   0.00218   0.21603   0.00000  Uiso   1.00
H210   H     0.94072   0.22911   0.17701   0.00000  Uiso   1.00
H211   H     0.98733   0.26305   0.17921   0.00000  Uiso   1.00
H212   H     0.86145   0.29006   0.31313   0.00000  Uiso   1.00
H213   H     0.94635   0.00044   0.20067   0.00000  Uiso   1.00
H214   H     0.93021   0.30924   0.14844   0.00000  Uiso   1.00
H215   H     0.90071   0.29880   0.19751   0.00000  Uiso   1.00
H216   H     0.93409   0.08247   0.31821   0.00000  Uiso   1.00
H217   H     0.98895   0.07624   0.31785   0.00000  Uiso   1.00
H218   H     0.98301   0.33110   0.28536   0.00000  Uiso   1.00
H219   H     0.95516   0.00157   0.33660   0.00000  Uiso   1.00
H220   H     0.92874   0.00218   0.28398   0.00000  Uiso   1.00
H221   H     0.72594   0.22911   0.32299   0.00000  Uiso   1.00
H222   H     0.67933   0.26305   0.32079   0.00000  Uiso   1.00
H223   H     0.86096   0.04326   0.31336   0.00000  Uiso   1.00
H224   H     0.73645   0.30925   0.35156   0.00000  Uiso   1.00
H225   H     0.76596   0.29880   0.30250   0.00000  Uiso   1.00
H226   H     0.72032   0.00044   0.29932   0.00000  Uiso   1.00
H227   H     0.80521   0.29006   0.18687   0.00000  Uiso   1.00
H228   H     0.85646   0.23767   0.03056   0.00000  Uiso   1.00
H229   H     0.85648   0.09590   0.46983   0.00000  Uiso   1.00
H230   H     0.81020   0.23767   0.46944   0.00000  Uiso   1.00
H231   H     0.81019   0.09590   0.03017   0.00000  Uiso   1.00
H232   H     0.85575   0.23789   0.11108   0.00000  Uiso   1.00
N233   N     0.83333   0.28402   0.25000   0.00000  Uiso   1.00
N234   N     0.83333   0.04931   0.25000   0.00000  Uiso   1.00
O235   O     0.77321   0.20625   0.25000   0.00000  Uiso   1.00
O236   O     0.95936   0.25146   0.23998   0.00000  Uiso   1.00
O237   O     0.95913   0.08144   0.25556   0.00000  Uiso   1.00
O238   O     0.70731   0.25146   0.26002   0.00000  Uiso   1.00
O239   O     0.89345   0.12709   0.25001   0.00000  Uiso   1.00
O240   O     0.89345   0.20625   0.25001   0.00000  Uiso   1.00
O241   O     0.77321   0.12709   0.25000   0.00000  Uiso   1.00
O242   O     0.83333   0.20626   0.18573   0.00000  Uiso   1.00
O243   O     0.83334   0.12707   0.31427   0.00000  Uiso   1.00
O244   O     0.83334   0.20626   0.31427   0.00000  Uiso   1.00
O245   O     0.83333   0.12707   0.18573   0.00000  Uiso   1.00
O246   O     0.70754   0.08144   0.24444   0.00000  Uiso   1.00
C247   C     0.08736   0.49999   0.25027   0.00000  Uiso   1.00
C248   C     0.31229   0.54254   0.24695   0.00000  Uiso   1.00
C249   C     0.31222   0.45738   0.25216   0.00000  Uiso   1.00
C250   C     0.02104   0.54254   0.25305   0.00000  Uiso   1.00
C251   C     0.17928   0.54004   0.04772   0.00000  Uiso   1.00
C252   C     0.17929   0.46017   0.45250   0.00000  Uiso   1.00
C253   C     0.15405   0.54004   0.45228   0.00000  Uiso   1.00
C254   C     0.15405   0.46016   0.04750   0.00000  Uiso   1.00
C255   C     0.17905   0.54010   0.09365   0.00000  Uiso   1.00
C256   C     0.17903   0.46003   0.40657   0.00000  Uiso   1.00
C257   C     0.15428   0.54010   0.40635   0.00000  Uiso   1.00
C258   C     0.24597   0.49999   0.24973   0.00000  Uiso   1.00
C259   C     0.15430   0.46003   0.09343   0.00000  Uiso   1.00
C260   C     0.16668   0.50004   0.11674   0.00000  Uiso   1.00
C261   C     0.16665   0.50004   0.38326   0.00000  Uiso   1.00
C262   C     0.16666   0.50012   0.02428   0.00000  Uiso   1.00
C263   C     0.16667   0.50012   0.47572   0.00000  Uiso   1.00
C264   C     0.29060   0.49994   0.24947   0.00000  Uiso   1.00
C265   C     0.04274   0.49994   0.25053   0.00000  Uiso   1.00
C266   C     0.03987   0.40004   0.19980   0.00000  Uiso   1.00
C267   C     0.04357   0.34708   0.19821   0.00000  Uiso   1.00
C268   C     0.28984   0.59215   0.19382   0.00000  Uiso   1.00
C269   C     0.16667   0.50001   0.16497   0.00000  Uiso   1.00
C270   C     0.26530   0.63631   0.18461   0.00000  Uiso   1.00
C271   C     0.29347   0.40004   0.30020   0.00000  Uiso   1.00
C272   C     0.28977   0.34708   0.30179   0.00000  Uiso   1.00
C273   C     0.04349   0.59215   0.30618   0.00000  Uiso   1.00
C274   C     0.06803   0.63631   0.31539   0.00000  Uiso   1.00
C275   C     0.16667   0.50001   0.33503   0.00000  Uiso   1.00
C276   C     0.15152   0.35811   0.21479   0.00000  Uiso   1.00
C277   C     0.18208   0.64189   0.28509   0.00000  Uiso   1.00
C278   C     0.18182   0.35811   0.28521   0.00000  Uiso   1.00
C279   C     0.15125   0.64189   0.21491   0.00000  Uiso   1.00
C280   C     0.02111   0.45738   0.24784   0.00000  Uiso   1.00
Cu281  Cu    0.16667   0.54689   0.25000   0.00000  Uiso   1.00
Cu282  Cu    0.16667   0.45311   0.25000   0.00000  Uiso   1.00
H283   H     0.13904   0.37659   0.18664   0.00000  Uiso   1.00
H284   H     0.18906   0.42888   0.38933   0.00000  Uiso   1.00
H285   H     0.14425   0.57122   0.38892   0.00000  Uiso   1.00
H286   H     0.14428   0.42888   0.11067   0.00000  Uiso   1.00
H287   H     0.06591   0.41581   0.18179   0.00000  Uiso   1.00
H288   H     0.01105   0.40958   0.18215   0.00000  Uiso   1.00
H289   H     0.01699   0.66443   0.21462   0.00000  Uiso   1.00
H290   H     0.04486   0.33491   0.16340   0.00000  Uiso   1.00
H291   H     0.07127   0.33551   0.21603   0.00000  Uiso   1.00
H292   H     0.27406   0.56244   0.17701   0.00000  Uiso   1.00
H293   H     0.32066   0.59638   0.17921   0.00000  Uiso   1.00
H294   H     0.19479   0.62339   0.31313   0.00000  Uiso   1.00
H295   H     0.27968   0.33377   0.20067   0.00000  Uiso   1.00
H296   H     0.26354   0.64258   0.14844   0.00000  Uiso   1.00
H297   H     0.23404   0.63214   0.19751   0.00000  Uiso   1.00
H298   H     0.26743   0.41580   0.31821   0.00000  Uiso   1.00
H299   H     0.32228   0.40958   0.31785   0.00000  Uiso   1.00
H300   H     0.31635   0.66444   0.28536   0.00000  Uiso   1.00
H301   H     0.28849   0.33490   0.33660   0.00000  Uiso   1.00
H302   H     0.26207   0.33551   0.28398   0.00000  Uiso   1.00
H303   H     0.05927   0.56244   0.32299   0.00000  Uiso   1.00
H304   H     0.01267   0.59638   0.32079   0.00000  Uiso   1.00
H305   H     0.19429   0.37659   0.31336   0.00000  Uiso   1.00
H306   H     0.06978   0.64258   0.35156   0.00000  Uiso   1.00
H307   H     0.09929   0.63213   0.30250   0.00000  Uiso   1.00
H308   H     0.05366   0.33377   0.29932   0.00000  Uiso   1.00
H309   H     0.13855   0.62339   0.18687   0.00000  Uiso   1.00
H310   H     0.18979   0.57100   0.03056   0.00000  Uiso   1.00
H311   H     0.18982   0.42923   0.46983   0.00000  Uiso   1.00
H312   H     0.14354   0.57100   0.46944   0.00000  Uiso   1.00
H313   H     0.14352   0.42923   0.03017   0.00000  Uiso   1.00
H314   H     0.18908   0.57122   0.11108   0.00000  Uiso   1.00
N315   N     0.16667   0.61736   0.25000   0.00000  Uiso   1.00
N316   N     0.16667   0.38264   0.25000   0.00000  Uiso   1.00
O317   O     0.10655   0.53958   0.25000   0.00000  Uiso   1.00
O318   O     0.29269   0.58480   0.23998   0.00000  Uiso   1.00
O319   O     0.29246   0.41477   0.25556   0.00000  Uiso   1.00
O320   O     0.04064   0.58480   0.26002   0.00000  Uiso   1.00
O321   O     0.22679   0.46042   0.25001   0.00000  Uiso   1.00
O322   O     0.22679   0.53958   0.25001   0.00000  Uiso   1.00
O323   O     0.10655   0.46042   0.25000   0.00000  Uiso   1.00
O324   O     0.16666   0.53959   0.18573   0.00000  Uiso   1.00
O325   O     0.16667   0.46041   0.31427   0.00000  Uiso   1.00
O326   O     0.16667   0.53959   0.31427   0.00000  Uiso   1.00
O327   O     0.16666   0.46041   0.18573   0.00000  Uiso   1.00
O328   O     0.04087   0.41477   0.24444   0.00000  Uiso   1.00
C329   C     0.42069   0.49999   0.25027   0.00000  Uiso   1.00
C330   C     0.64562   0.54254   0.24695   0.00000  Uiso   1.00
C331   C     0.64555   0.45738   0.25216   0.00000  Uiso   1.00
C332   C     0.35438   0.54254   0.25305   0.00000  Uiso   1.00
C333   C     0.51261   0.54004   0.04772   0.00000  Uiso   1.00
C334   C     0.51262   0.46017   0.45250   0.00000  Uiso   1.00
C335   C     0.48739   0.54004   0.45228   0.00000  Uiso   1.00
C336   C     0.48738   0.46016   0.04750   0.00000  Uiso   1.00
C337   C     0.51239   0.54010   0.09365   0.00000  Uiso   1.00
C338   C     0.51237   0.46003   0.40657   0.00000  Uiso   1.00
C339   C     0.48761   0.54010   0.40635   0.00000  Uiso   1.00
C340   C     0.57931   0.49999   0.24973   0.00000  Uiso   1.00
C341   C     0.48764   0.46003   0.09343   0.00000  Uiso   1.00
C342   C     0.50002   0.50004   0.11674   0.00000  Uiso   1.00
C343   C     0.49998   0.50004   0.38326   0.00000  Uiso   1.00
C344   C     0.49999   0.50012   0.02428   0.00000  Uiso   1.00
C345   C     0.50001   0.50012   0.47572   0.00000  Uiso   1.00
C346   C     0.62393   0.49994   0.24947   0.00000  Uiso   1.00
C347   C     0.37607   0.49994   0.25053   0.00000  Uiso   1.00
C348   C     0.37320   0.40004   0.19980   0.00000  Uiso   1.00
C349   C     0.37690   0.34708   0.19821   0.00000  Uiso   1.00
C350   C     0.62317   0.59215   0.19382   0.00000  Uiso   1.00
C351   C     0.50000   0.50001   0.16497   0.00000  Uiso   1.00
C352   C     0.59864   0.63631   0.18461   0.00000  Uiso   1.00
C353   C     0.62680   0.40004   0.30020   0.00000  Uiso   1.00
C354   C     0.62310   0.34708   0.30179   0.00000  Uiso   1.00
C355   C     0.37682   0.59215   0.30618   0.00000  Uiso   1.00
C356   C     0.40136   0.63631   0.31539   0.00000  Uiso   1.00
C357   C     0.50000   0.50001   0.33503   0.00000  Uiso   1.00
C358   C     0.48485   0.35811   0.21479   0.00000  Uiso   1.00
C359   C     0.51542   0.64189   0.28509   0.00000  Uiso   1.00
C360   C     0.51515   0.35811   0.28521   0.00000  Uiso   1.00
C361   C     0.48458   0.64189   0.21491   0.00000  Uiso   1.00
C362   C     0.35445   0.45738   0.24784   0.00000  Uiso   1.00
Cu363  Cu    0.50000   0.54689   0.25000   0.00000  Uiso   1.00
Cu364  Cu    0.50000   0.45311   0.25000   0.00000  Uiso   1.00
H365   H     0.47237   0.37659   0.18664   0.00000  Uiso   1.00
H366   H     0.52239   0.42888   0.38933   0.00000  Uiso   1.00
H367   H     0.47758   0.57122   0.38892   0.00000  Uiso   1.00
H368   H     0.47762   0.42888   0.11067   0.00000  Uiso   1.00
H369   H     0.39924   0.41581   0.18179   0.00000  Uiso   1.00
H370   H     0.34439   0.40958   0.18215   0.00000  Uiso   1.00
H371   H     0.35032   0.66443   0.21462   0.00000  Uiso   1.00
H372   H     0.37819   0.33491   0.16340   0.00000  Uiso   1.00
H373   H     0.40460   0.33551   0.21603   0.00000  Uiso   1.00
H374   H     0.60739   0.56244   0.17701   0.00000  Uiso   1.00
H375   H     0.65400   0.59638   0.17921   0.00000  Uiso   1.00
H376   H     0.52812   0.62339   0.31313   0.00000  Uiso   1.00
H377   H     0.61302   0.33377   0.20067   0.00000  Uiso   1.00
H378   H     0.59688   0.64258   0.14844   0.00000  Uiso   1.00
H379   H     0.56737   0.63214   0.19751   0.00000  Uiso   1.00
H380   H     0.60076   0.41580   0.31821   0.00000  Uiso   1.00
H381   H     0.65562   0.40958   0.31785   0.00000  Uiso   1.00
H382   H     0.64968   0.66444   0.28536   0.00000  Uiso   1.00
H383   H     0.62183   0.33490   0.33660   0.00000  Uiso   1.00
H384   H     0.59540   0.33551   0.28398   0.00000  Uiso   1.00
H385   H     0.39260   0.56244   0.32299   0.00000  Uiso   1.00
H386   H     0.34600   0.59638   0.32079   0.00000  Uiso   1.00
H387   H     0.52763   0.37659   0.31336   0.00000  Uiso   1.00
H388   H     0.40312   0.64258   0.35156   0.00000  Uiso   1.00
H389   H     0.43263   0.63213   0.30250   0.00000  Uiso   1.00
H390   H     0.38699   0.33377   0.29932   0.00000  Uiso   1.00
H391   H     0.47188   0.62339   0.18687   0.00000  Uiso   1.00
H392   H     0.52312   0.57100   0.03056   0.00000  Uiso   1.00
H393   H     0.52315   0.42923   0.46983   0.00000  Uiso   1.00
H394   H     0.47687   0.57100   0.46944   0.00000  Uiso   1.00
H395   H     0.47685   0.42923   0.03017   0.00000  Uiso   1.00
H396   H     0.52241   0.57122   0.11108   0.00000  Uiso   1.00
N397   N     0.50000   0.61736   0.25000   0.00000  Uiso   1.00
N398   N     0.50000   0.38264   0.25000   0.00000  Uiso   1.00
O399   O     0.43988   0.53958   0.25000   0.00000  Uiso   1.00
O400   O     0.62602   0.58480   0.23998   0.00000  Uiso   1.00
O401   O     0.62580   0.41477   0.25556   0.00000  Uiso   1.00
O402   O     0.37398   0.58480   0.26002   0.00000  Uiso   1.00
O403   O     0.56012   0.46042   0.25001   0.00000  Uiso   1.00
O404   O     0.56012   0.53958   0.25001   0.00000  Uiso   1.00
O405   O     0.43988   0.46042   0.25000   0.00000  Uiso   1.00
O406   O     0.50000   0.53959   0.18573   0.00000  Uiso   1.00
O407   O     0.50000   0.46041   0.31427   0.00000  Uiso   1.00
O408   O     0.50000   0.53959   0.31427   0.00000  Uiso   1.00
O409   O     0.50000   0.46041   0.18573   0.00000  Uiso   1.00
O410   O     0.37420   0.41477   0.24444   0.00000  Uiso   1.00
C411   C     0.75403   0.49999   0.25027   0.00000  Uiso   1.00
C412   C     0.97896   0.54254   0.24695   0.00000  Uiso   1.00
C413   C     0.97889   0.45738   0.25216   0.00000  Uiso   1.00
C414   C     0.68771   0.54254   0.25305   0.00000  Uiso   1.00
C415   C     0.84594   0.54004   0.04772   0.00000  Uiso   1.00
C416   C     0.84595   0.46017   0.45250   0.00000  Uiso   1.00
C417   C     0.82072   0.54004   0.45228   0.00000  Uiso   1.00
C418   C     0.82072   0.46016   0.04750   0.00000  Uiso   1.00
C419   C     0.84572   0.54010   0.09365   0.00000  Uiso   1.00
C420   C     0.84570   0.46003   0.40657   0.00000  Uiso   1.00
C421   C     0.82094   0.54010   0.40635   0.00000  Uiso   1.00
C422   C     0.91264   0.49999   0.24973   0.00000  Uiso   1.00
C423   C     0.82097   0.46003   0.09343   0.00000  Uiso   1.00
C424   C     0.83335   0.50004   0.11674   0.00000  Uiso   1.00
C425   C     0.83332   0.50004   0.38326   0.00000  Uiso   1.00
C426   C     0.83333   0.50012   0.02428   0.00000  Uiso   1.00
C427   C     0.83334   0.50012   0.47572   0.00000  Uiso   1.00
C428   C     0.95726   0.49994   0.24947   0.00000  Uiso   1.00
C429   C     0.70940   0.49994   0.25053   0.00000  Uiso   1.00
C430   C     0.70653   0.40004   0.19980   0.00000  Uiso   1.00
C431   C     0.71024   0.34708   0.19821   0.00000  Uiso   1.00
C432   C     0.95651   0.59215   0.19382   0.00000  Uiso   1.00
C433   C     0.83333   0.50001   0.16497   0.00000  Uiso   1.00
C434   C     0.93197   0.63631   0.18461   0.00000  Uiso   1.00
C435   C     0.96014   0.40004   0.30020   0.00000  Uiso   1.00
C436   C     0.95644   0.34708   0.30179   0.00000  Uiso   1.00
C437   C     0.71016   0.59215   0.30618   0.00000  Uiso   1.00
C438   C     0.73469   0.63631   0.31539   0.00000  Uiso   1.00
C439   C     0.83333   0.50001   0.33503   0.00000  Uiso   1.00
C440   C     0.81818   0.35811   0.21479   0.00000  Uiso   1.00
C441   C     0.84875   0.64189   0.28509   0.00000  Uiso   1.00
C442   C     0.84849   0.35811   0.28521   0.00000  Uiso   1.00
C443   C     0.81792   0.64189   0.21491   0.00000  Uiso   1.00
C444   C     0.68778   0.45738   0.24784   0.00000  Uiso   1.00
Cu445  Cu    0.83333   0.54689   0.25000   0.00000  Uiso   1.00
Cu446  Cu    0.83333   0.45311   0.25000   0.00000  Uiso   1.00
H447   H     0.80571   0.37659   0.18664   0.00000  Uiso   1.00
H448   H     0.85572   0.42888   0.38933   0.00000  Uiso   1.00
H449   H     0.81091   0.57122   0.38892   0.00000  Uiso   1.00
H450   H     0.81095   0.42888   0.11067   0.00000  Uiso   1.00
H451   H     0.73257   0.41581   0.18179   0.00000  Uiso   1.00
H452   H     0.67772   0.40958   0.18215   0.00000  Uiso   1.00
H453   H     0.68366   0.66443   0.21462   0.00000  Uiso   1.00
H454   H     0.71153   0.33491   0.16340   0.00000  Uiso   1.00
H455   H     0.73793   0.33551   0.21603   0.00000  Uiso   1.00
H456   H     0.94072   0.56244   0.17701   0.00000  Uiso   1.00
H457   H     0.98733   0.59638   0.17921   0.00000  Uiso   1.00
H458   H     0.86145   0.62339   0.31313   0.00000  Uiso   1.00
H459   H     0.94635   0.33377   0.20067   0.00000  Uiso   1.00
H460   H     0.93021   0.64258   0.14844   0.00000  Uiso   1.00
H461   H     0.90071   0.63214   0.19751   0.00000  Uiso   1.00
H462   H     0.93409   0.41580   0.31821   0.00000  Uiso   1.00
H463   H     0.98895   0.40958   0.31785   0.00000  Uiso   1.00
H464   H     0.98301   0.66444   0.28536   0.00000  Uiso   1.00
H465   H     0.95516   0.33490   0.33660   0.00000  Uiso   1.00
H466   H     0.92874   0.33551   0.28398   0.00000  Uiso   1.00
H467   H     0.72594   0.56244   0.32299   0.00000  Uiso   1.00
H468   H     0.67933   0.59638   0.32079   0.00000  Uiso   1.00
H469   H     0.86096   0.37659   0.31336   0.00000  Uiso   1.00
H470   H     0.73645   0.64258   0.35156   0.00000  Uiso   1.00
H471   H     0.76596   0.63213   0.30250   0.00000  Uiso   1.00
H472   H     0.72032   0.33377   0.29932   0.00000  Uiso   1.00
H473   H     0.80521   0.62339   0.18687   0.00000  Uiso   1.00
H474   H     0.85646   0.57100   0.03056   0.00000  Uiso   1.00
H475   H     0.85648   0.42923   0.46983   0.00000  Uiso   1.00
H476   H     0.81020   0.57100   0.46944   0.00000  Uiso   1.00
H477   H     0.81019   0.42923   0.03017   0.00000  Uiso   1.00
H478   H     0.85575   0.57122   0.11108   0.00000  Uiso   1.00
N479   N     0.83333   0.61736   0.25000   0.00000  Uiso   1.00
N480   N     0.83333   0.38264   0.25000   0.00000  Uiso   1.00
O481   O     0.77321   0.53958   0.25000   0.00000  Uiso   1.00
O482   O     0.95936   0.58480   0.23998   0.00000  Uiso   1.00
O483   O     0.95913   0.41477   0.25556   0.00000  Uiso   1.00
O484   O     0.70731   0.58480   0.26002   0.00000  Uiso   1.00
O485   O     0.89345   0.46042   0.25001   0.00000  Uiso   1.00
O486   O     0.89345   0.53958   0.25001   0.00000  Uiso   1.00
O487   O     0.77321   0.46042   0.25000   0.00000  Uiso   1.00
O488   O     0.83333   0.53959   0.18573   0.00000  Uiso   1.00
O489   O     0.83334   0.46041   0.31427   0.00000  Uiso   1.00
O490   O     0.83334   0.53959   0.31427   0.00000  Uiso   1.00
O491   O     0.83333   0.46041   0.18573   0.00000  Uiso   1.00
O492   O     0.70754   0.41477   0.24444   0.00000  Uiso   1.00
C493   C     0.08736   0.83332   0.25027   0.00000  Uiso   1.00
C494   C     0.31229   0.87587   0.24695   0.00000  Uiso   1.00
C495   C     0.31222   0.79071   0.25216   0.00000  Uiso   1.00
C496   C     0.02104   0.87587   0.25305   0.00000  Uiso   1.00
C497   C     0.17928   0.87338   0.04772   0.00000  Uiso   1.00
C498   C     0.17929   0.79350   0.45250   0.00000  Uiso   1.00
C499   C     0.15405   0.87337   0.45228   0.00000  Uiso   1.00
C500   C     0.15405   0.79350   0.04750   0.00000  Uiso   1.00
C501   C     0.17905   0.87343   0.09365   0.00000  Uiso   1.00
C502   C     0.17903   0.79336   0.40657   0.00000  Uiso   1.00
C503   C     0.15428   0.87343   0.40635   0.00000  Uiso   1.00
C504   C     0.24597   0.83332   0.24973   0.00000  Uiso   1.00
C505   C     0.15430   0.79336   0.09343   0.00000  Uiso   1.00
C506   C     0.16668   0.83337   0.11674   0.00000  Uiso   1.00
C507   C     0.16665   0.83337   0.38326   0.00000  Uiso   1.00
C508   C     0.16666   0.83345   0.02428   0.00000  Uiso   1.00
C509   C     0.16667   0.83345   0.47572   0.00000  Uiso   1.00
C510   C     0.29060   0.83327   0.24947   0.00000  Uiso   1.00
C511   C     0.04274   0.83327   0.25053   0.00000  Uiso   1.00
C512   C     0.03987   0.73338   0.19980   0.00000  Uiso   1.00
C513   C     0.04357   0.68042   0.19821   0.00000  Uiso   1.00
C514   C     0.28984   0.92549   0.19382   0.00000  Uiso   1.00
C515   C     0.16667   0.83334   0.16497   0.00000  Uiso   1.00
C516   C     0.26530   0.96964   0.18461   0.00000  Uiso   1.00
C517   C     0.29347   0.73338   0.30020   0.00000  Uiso   1.00
C518   C     0.28977   0.68042   0.30179   0.00000  Uiso   1.00
C519   C     0.04349   0.92549   0.30618   0.00000  Uiso   1.00
C520   C     0.06803   0.96964   0.31539   0.00000  Uiso   1.00
C521   C     0.16667   0.83334   0.33503   0.00000  Uiso   1.00
C522   C     0.15152   0.69144   0.21479   0.00000  Uiso   1.00
C523   C     0.18208   0.97522   0.28509   0.00000  Uiso   1.00
C524   C     0.18182   0.69144   0.28521   0.00000  Uiso   1.00
C525   C     0.15125   0.97522   0.21491   0.00000  Uiso   1.00
C526   C     0.02111   0.79071   0.24784   0.00000  Uiso   1.00
Cu527  Cu    0.16667   0.88022   0.25000   0.00000  Uiso   1.00
Cu528  Cu    0.16667   0.78645   0.25000   0.00000  Uiso   1.00
H529   H     0.13904   0.70993   0.18664   0.00000  Uiso   1.00
H530   H     0.18906   0.76222   0.38933   0.00000  Uiso   1.00
H531   H     0.14425   0.90455   0.38892   0.00000  Uiso   1.00
H532   H     0.14428   0.76221   0.11067   0.00000  Uiso   1.00
H533   H     0.06591   0.74914   0.18179   0.00000  Uiso   1.00
H534   H     0.01105   0.74291   0.18215   0.00000  Uiso   1.00
H535   H     0.01699   0.99777   0.21462   0.00000  Uiso   1.00
H536   H     0.04486   0.66824   0.16340   0.00000  Uiso   1.00
H537   H     0.07127   0.66885   0.21603   0.00000  Uiso   1.00
H538   H     0.27406   0.89577   0.17701   0.00000  Uiso   1.00
H539   H     0.32066   0.92971   0.17921   0.00000  Uiso   1.00
H540   H     0.19479   0.95673   0.31313   0.00000  Uiso   1.00
H541   H     0.27968   0.66711   0.20067   0.00000  Uiso   1.00
H542   H     0.26354   0.97591   0.14844   0.00000  Uiso   1.00
H543   H     0.23404   0.96547   0.19751   0.00000  Uiso   1.00
H544   H     0.26743   0.74914   0.31821   0.00000  Uiso   1.00
H545   H     0.32228   0.74291   0.31785   0.00000  Uiso   1.00
H546   H     0.31635   0.99777   0.28536   0.00000  Uiso   1.00
H547   H     0.28849   0.66824   0.33660   0.00000  Uiso   1.00
H548   H     0.26207   0.66884   0.28398   0.00000  Uiso   1.00
H549   H     0.05927   0.89577   0.32299   0.00000  Uiso   1.00
H550   H     0.01267   0.92972   0.32079   0.00000  Uiso   1.00
H551   H     0.19429   0.70993   0.31336   0.00000  Uiso   1.00
H552   H     0.06978   0.97591   0.35156   0.00000  Uiso   1.00
H553   H     0.09929   0.96546   0.30250   0.00000  Uiso   1.00
H554   H     0.05366   0.66711   0.29932   0.00000  Uiso   1.00
H555   H     0.13855   0.95673   0.18687   0.00000  Uiso   1.00
H556   H     0.18979   0.90434   0.03056   0.00000  Uiso   1.00
H557   H     0.18982   0.76257   0.46983   0.00000  Uiso   1.00
H558   H     0.14354   0.90433   0.46944   0.00000  Uiso   1.00
H559   H     0.14352   0.76256   0.03017   0.00000  Uiso   1.00
H560   H     0.18908   0.90455   0.11108   0.00000  Uiso   1.00
N561   N     0.16667   0.95069   0.25000   0.00000  Uiso   1.00
N562   N     0.16667   0.71598   0.25000   0.00000  Uiso   1.00
O563   O     0.10655   0.87291   0.25000   0.00000  Uiso   1.00
O564   O     0.29269   0.91813   0.23998   0.00000  Uiso   1.00
O565   O     0.29246   0.74811   0.25556   0.00000  Uiso   1.00
O566   O     0.04064   0.91813   0.26002   0.00000  Uiso   1.00
O567   O     0.22679   0.79375   0.25001   0.00000  Uiso   1.00
O568   O     0.22679   0.87291   0.25001   0.00000  Uiso   1.00
O569   O     0.10655   0.79375   0.25000   0.00000  Uiso   1.00
O570   O     0.16666   0.87293   0.18573   0.00000  Uiso   1.00
O571   O     0.16667   0.79374   0.31427   0.00000  Uiso   1.00
O572   O     0.16667   0.87293   0.31427   0.00000  Uiso   1.00
O573   O     0.16666   0.79374   0.18573   0.00000  Uiso   1.00
O574   O     0.04087   0.74811   0.24444   0.00000  Uiso   1.00
C575   C     0.42069   0.83332   0.25027   0.00000  Uiso   1.00
C576   C     0.64562   0.87587   0.24695   0.00000  Uiso   1.00
C577   C     0.64555   0.79071   0.25216   0.00000  Uiso   1.00
C578   C     0.35438   0.87587   0.25305   0.00000  Uiso   1.00
C579   C     0.51261   0.87338   0.04772   0.00000  Uiso   1.00
C580   C     0.51262   0.79350   0.45250   0.00000  Uiso   1.00
C581   C     0.48739   0.87337   0.45228   0.00000  Uiso   1.00
C582   C     0.48738   0.79350   0.04750   0.00000  Uiso   1.00
C583   C     0.51239   0.87343   0.09365   0.00000  Uiso   1.00
C584   C     0.51237   0.79336   0.40657   0.00000  Uiso   1.00
C585   C     0.48761   0.87343   0.40635   0.00000  Uiso   1.00
C586   C     0.57931   0.83332   0.24973   0.00000  Uiso   1.00
C587   C     0.48764   0.79336   0.09343   0.00000  Uiso   1.00
C588   C     0.50002   0.83337   0.11674   0.00000  Uiso   1.00
C589   C     0.49998   0.83337   0.38326   0.00000  Uiso   1.00
C590   C     0.49999   0.83345   0.02428   0.00000  Uiso   1.00
C591   C     0.50001   0.83345   0.47572   0.00000  Uiso   1.00
C592   C     0.62393   0.83327   0.24947   0.00000  Uiso   1.00
C593   C     0.37607   0.83327   0.25053   0.00000  Uiso   1.00
C594   C     0.37320   0.73338   0.19980   0.00000  Uiso   1.00
C595   C     0.37690   0.68042   0.19821   0.00000  Uiso   1.00
C596   C     0.62317   0.92549   0.19382   0.00000  Uiso   1.00
C597   C     0.50000   0.83334   0.16497   0.00000  Uiso   1.00
C598   C     0.59864   0.96964   0.18461   0.00000  Uiso   1.00
C599   C     0.62680   0.73338   0.30020   0.00000  Uiso   1.00
C600   C     0.62310   0.68042   0.30179   0.00000  Uiso   1.00
C601   C     0.37682   0.92549   0.30618   0.00000  Uiso   1.00
C602   C     0.40136   0.96964   0.31539   0.00000  Uiso   1.00
C603   C     0.50000   0.83334   0.33503   0.00000  Uiso   1.00
C604   C     0.48485   0.69144   0.21479   0.00000  Uiso   1.00
C605   C     0.51542   0.97522   0.28509   0.00000  Uiso   1.00
C606   C     0.51515   0.69144   0.28521   0.00000  Uiso   1.00
C607   C     0.48458   0.97522   0.21491   0.00000  Uiso   1.00
C608   C     0.35445   0.79071   0.24784   0.00000  Uiso   1.00
Cu609  Cu    0.50000   0.88022   0.25000   0.00000  Uiso   1.00
Cu610  Cu    0.50000   0.78645   0.25000   0.00000  Uiso   1.00
H611   H     0.47237   0.70993   0.18664   0.00000  Uiso   1.00
H612   H     0.52239   0.76222   0.38933   0.00000  Uiso   1.00
H613   H     0.47758   0.90455   0.38892   0.00000  Uiso   1.00
H614   H     0.47762   0.76221   0.11067   0.00000  Uiso   1.00
H615   H     0.39924   0.74914   0.18179   0.00000  Uiso   1.00
H616   H     0.34439   0.74291   0.18215   0.00000  Uiso   1.00
H617   H     0.35032   0.99777   0.21462   0.00000  Uiso   1.00
H618   H     0.37819   0.66824   0.16340   0.00000  Uiso   1.00
H619   H     0.40460   0.66885   0.21603   0.00000  Uiso   1.00
H620   H     0.60739   0.89577   0.17701   0.00000  Uiso   1.00
H621   H     0.65400   0.92971   0.17921   0.00000  Uiso   1.00
H622   H     0.52812   0.95673   0.31313   0.00000  Uiso   1.00
H623   H     0.61302   0.66711   0.20067   0.00000  Uiso   1.00
H624   H     0.59688   0.97591   0.14844   0.00000  Uiso   1.00
H625   H     0.56737   0.96547   0.19751   0.00000  Uiso   1.00
H626   H     0.60076   0.74914   0.31821   0.00000  Uiso   1.00
H627   H     0.65562   0.74291   0.31785   0.00000  Uiso   1.00
H628   H     0.64968   0.99777   0.28536   0.00000  Uiso   1.00
H629   H     0.62183   0.66824   0.33660   0.00000  Uiso   1.00
H630   H     0.59540   0.66884   0.28398   0.00000  Uiso   1.00
H631   H     0.39260   0.89577   0.32299   0.00000  Uiso   1.00
H632   H     0.34600   0.92972   0.32079   0.00000  Uiso   1.00
H633   H     0.52763   0.70993   0.31336   0.00000  Uiso   1.00
H634   H     0.40312   0.97591   0.35156   0.00000  Uiso   1.00
H635   H     0.43263   0.96546   0.30250   0.00000  Uiso   1.00
H636   H     0.38699   0.66711   0.29932   0.00000  Uiso   1.00
H637   H     0.47188   0.95673   0.18687   0.00000  Uiso   1.00
H638   H     0.52312   0.90434   0.03056   0.00000  Uiso   1.00
H639   H     0.52315   0.76257   0.46983   0.00000  Uiso   1.00
H640   H     0.47687   0.90433   0.46944   0.00000  Uiso   1.00
H641   H     0.47685   0.76256   0.03017   0.00000  Uiso   1.00
H642   H     0.52241   0.90455   0.11108   0.00000  Uiso   1.00
N643   N     0.50000   0.95069   0.25000   0.00000  Uiso   1.00
N644   N     0.50000   0.71598   0.25000   0.00000  Uiso   1.00
O645   O     0.43988   0.87291   0.25000   0.00000  Uiso   1.00
O646   O     0.62602   0.91813   0.23998   0.00000  Uiso   1.00
O647   O     0.62580   0.74811   0.25556   0.00000  Uiso   1.00
O648   O     0.37398   0.91813   0.26002   0.00000  Uiso   1.00
O649   O     0.56012   0.79375   0.25001   0.00000  Uiso   1.00
O650   O     0.56012   0.87291   0.25001   0.00000  Uiso   1.00
O651   O     0.43988   0.79375   0.25000   0.00000  Uiso   1.00
O652   O     0.50000   0.87293   0.18573   0.00000  Uiso   1.00
O653   O     0.50000   0.79374   0.31427   0.00000  Uiso   1.00
O654   O     0.50000   0.87293   0.31427   0.00000  Uiso   1.00
O655   O     0.50000   0.79374   0.18573   0.00000  Uiso   1.00
O656   O     0.37420   0.74811   0.24444   0.00000  Uiso   1.00
C657   C     0.75403   0.83332   0.25027   0.00000  Uiso   1.00
C658   C     0.97896   0.87587   0.24695   0.00000  Uiso   1.00
C659   C     0.97889   0.79071   0.25216   0.00000  Uiso   1.00
C660   C     0.68771   0.87587   0.25305   0.00000  Uiso   1.00
C661   C     0.84594   0.87338   0.04772   0.00000  Uiso   1.00
C662   C     0.84595   0.79350   0.45250   0.00000  Uiso   1.00
C663   C     0.82072   0.87337   0.45228   0.00000  Uiso   1.00
C664   C     0.82072   0.79350   0.04750   0.00000  Uiso   1.00
C665   C     0.84572   0.87343   0.09365   0.00000  Uiso   1.00
C666   C     0.84570   0.79336   0.40657   0.00000  Uiso   1.00
C667   C     0.82094   0.87343   0.40635   0.00000  Uiso   1.00
C668   C     0.91264   0.83332   0.24973   0.00000  Uiso   1.00
C669   C     0.82097   0.79336   0.09343   0.00000  Uiso   1.00
C670   C     0.83335   0.83337   0.11674   0.00000  Uiso   1.00
C671   C     0.83332   0.83337   0.38326   0.00000  Uiso   1.00
C672   C     0.83333   0.83345   0.02428   0.00000  Uiso   1.00
C673   C     0.83334   0.83345   0.47572   0.00000  Uiso   1.00
C674   C     0.95726   0.83327   0.24947   0.00000  Uiso   1.00
C675   C     0.70940   0.83327   0.25053   0.00000  Uiso   1.00
C676   C     0.70653   0.73338   0.19980   0.00000  Uiso   1.00
C677   C     0.71024   0.68042   0.19821   0.00000  Uiso   1.00
C678   C     0.95651   0.92549   0.19382   0.00000  Uiso   1.00
C679   C     0.83333   0.83334   0.16497   0.00000  Uiso   1.00
C680   C     0.93197   0.96964   0.18461   0.00000  Uiso   1.00
C681   C     0.96014   0.73338   0.30020   0.00000  Uiso   1.00
C682   C     0.95644   0.68042   0.30179   0.00000  Uiso   1.00
C683   C     0.71016   0.92549   0.30618   0.00000  Uiso   1.00
C684   C     0.73469   0.96964   0.31539   0.00000  Uiso   1.00
C685   C     0.83333   0.83334   0.33503   0.00000  Uiso   1.00
C686   C     0.81818   0.69144   0.21479   0.00000  Uiso   1.00
C687   C     0.84875   0.97522   0.28509   0.00000  Uiso   1.00
C688   C     0.84849   0.69144   0.28521   0.00000  Uiso   1.00
C689   C     0.81792   0.97522   0.21491   0.00000  Uiso   1.00
C690   C     0.68778   0.79071   0.24784   0.00000  Uiso   1.00
Cu691  Cu    0.83333   0.88022   0.25000   0.00000  Uiso   1.00
Cu692  Cu    0.83333   0.78645   0.25000   0.00000  Uiso   1.00
H693   H     0.80571   0.70993   0.18664   0.00000  Uiso   1.00
H694   H     0.85572   0.76222   0.38933   0.00000  Uiso   1.00
H695   H     0.81091   0.90455   0.38892   0.00000  Uiso   1.00
H696   H     0.81095   0.76221   0.11067   0.00000  Uiso   1.00
H697   H     0.73257   0.74914   0.18179   0.00000  Uiso   1.00
H698   H     0.67772   0.74291   0.18215   0.00000  Uiso   1.00
H699   H     0.68366   0.99777   0.21462   0.00000  Uiso   1.00
H700   H     0.71153   0.66824   0.16340   0.00000  Uiso   1.00
H701   H     0.73793   0.66885   0.21603   0.00000  Uiso   1.00
H702   H     0.94072   0.89577   0.17701   0.00000  Uiso   1.00
H703   H     0.98733   0.92971   0.17921   0.00000  Uiso   1.00
H704   H     0.86145   0.95673   0.31313   0.00000  Uiso   1.00
H705   H     0.94635   0.66711   0.20067   0.00000  Uiso   1.00
H706   H     0.93021   0.97591   0.14844   0.00000  Uiso   1.00
H707   H     0.90071   0.96547   0.19751   0.00000  Uiso   1.00
H708   H     0.93409   0.74914   0.31821   0.00000  Uiso   1.00
H709   H     0.98895   0.74291   0.31785   0.00000  Uiso   1.00
H710   H     0.98301   0.99777   0.28536   0.00000  Uiso   1.00
H711   H     0.95516   0.66824   0.33660   0.00000  Uiso   1.00
H712   H     0.92874   0.66884   0.28398   0.00000  Uiso   1.00
H713   H     0.72594   0.89577   0.32299   0.00000  Uiso   1.00
H714   H     0.67933   0.92972   0.32079   0.00000  Uiso   1.00
H715   H     0.86096   0.70993   0.31336   0.00000  Uiso   1.00
H716   H     0.73645   0.97591   0.35156   0.00000  Uiso   1.00
H717   H     0.76596   0.96546   0.30250   0.00000  Uiso   1.00
H718   H     0.72032   0.66711   0.29932   0.00000  Uiso   1.00
H719   H     0.80521   0.95673   0.18687   0.00000  Uiso   1.00
H720   H     0.85646   0.90434   0.03056   0.00000  Uiso   1.00
H721   H     0.85648   0.76257   0.46983   0.00000  Uiso   1.00
H722   H     0.81020   0.90433   0.46944   0.00000  Uiso   1.00
H723   H     0.81019   0.76256   0.03017   0.00000  Uiso   1.00
H724   H     0.85575   0.90455   0.11108   0.00000  Uiso   1.00
N725   N     0.83333   0.95069   0.25000   0.00000  Uiso   1.00
N726   N     0.83333   0.71598   0.25000   0.00000  Uiso   1.00
O727   O     0.77321   0.87291   0.25000   0.00000  Uiso   1.00
O728   O     0.95936   0.91813   0.23998   0.00000  Uiso   1.00
O729   O     0.95913   0.74811   0.25556   0.00000  Uiso   1.00
O730   O     0.70731   0.91813   0.26002   0.00000  Uiso   1.00
O731   O     0.89345   0.79375   0.25001   0.00000  Uiso   1.00
O732   O     0.89345   0.87291   0.25001   0.00000  Uiso   1.00
O733   O     0.77321   0.79375   0.25000   0.00000  Uiso   1.00
O734   O     0.83333   0.87293   0.18573   0.00000  Uiso   1.00
O735   O     0.83334   0.79374   0.31427   0.00000  Uiso   1.00
O736   O     0.83334   0.87293   0.31427   0.00000  Uiso   1.00
O737   O     0.83333   0.79374   0.18573   0.00000  Uiso   1.00
O738   O     0.70754   0.74811   0.24444   0.00000  Uiso   1.00
C739   C     0.08736   0.16665   0.75027   0.00000  Uiso   1.00
C740   C     0.31229   0.20921   0.74695   0.00000  Uiso   1.00
C741   C     0.31222   0.12405   0.75216   0.00000  Uiso   1.00
C742   C     0.02104   0.20921   0.75305   0.00000  Uiso   1.00
C743   C     0.17928   0.20671   0.54772   0.00000  Uiso   1.00
C744   C     0.17929   0.12683   0.95250   0.00000  Uiso   1.00
C745   C     0.15405   0.20671   0.95228   0.00000  Uiso   1.00
C746   C     0.15405   0.12683   0.54750   0.00000  Uiso   1.00
C747   C     0.17905   0.20677   0.59365   0.00000  Uiso   1.00
C748   C     0.17903   0.12670   0.90657   0.00000  Uiso   1.00
C749   C     0.15428   0.20677   0.90635   0.00000  Uiso   1.00
C750   C     0.24597   0.16665   0.74973   0.00000  Uiso   1.00
C751   C     0.15430   0.12669   0.59343   0.00000  Uiso   1.00
C752   C     0.16668   0.16671   0.61674   0.00000  Uiso   1.00
C753   C     0.16665   0.16671   0.88326   0.00000  Uiso   1.00
C754   C     0.16666   0.16678   0.52428   0.00000  Uiso   1.00
C755   C     0.16667   0.16678   0.97572   0.00000  Uiso   1.00
C756   C     0.29060   0.16661   0.74947   0.00000  Uiso   1.00
C757   C     0.04274   0.16661   0.75053   0.00000  Uiso   1.00
C758   C     0.03987   0.06671   0.69980   0.00000  Uiso   1.00
C759   C     0.04357   0.01375   0.69821   0.00000  Uiso   1.00
C760   C     0.28984   0.25882   0.69382   0.00000  Uiso   1.00
C761   C     0.16667   0.16667   0.66497   0.00000  Uiso   1.00
C762   C     0.26530   0.30298   0.68461   0.00000  Uiso   1.00
C763   C     0.29347   0.06671   0.80020   0.00000  Uiso   1.00
C764   C     0.28977   0.01375   0.80179   0.00000  Uiso   1.00
C765   C     0.04349   0.25882   0.80618   0.00000  Uiso   1.00
C766   C     0.06803   0.30298   0.81539   0.00000  Uiso   1.00
C767   C     0.16667   0.16667   0.83503   0.00000  Uiso   1.00
C768   C     0.15152   0.02477   0.71479   0.00000  Uiso   1.00
C769   C     0.18208   0.30856   0.78509   0.00000  Uiso   1.00
C770   C     0.18182   0.02477   0.78521   0.00000  Uiso   1.00
C771   C     0.15125   0.30856   0.71491   0.00000  Uiso   1.00
C772   C     0.02111   0.12405   0.74784   0.00000  Uiso   1.00
Cu773  Cu    0.16667   0.21355   0.75000   0.00000  Uiso   1.00
Cu774  Cu    0.16667   0.11978   0.75000   0.00000  Uiso   1.00
H775   H     0.13904   0.04326   0.68664   0.00000  Uiso   1.00
H776   H     0.18906   0.09555   0.88933   0.00000  Uiso   1.00
H777   H     0.14425   0.23788   0.88892   0.00000  Uiso   1.00
H778   H     0.14428   0.09555   0.61067   0.00000  Uiso   1.00
H779   H     0.06591   0.08247   0.68179   0.00000  Uiso   1.00
H780   H     0.01105   0.07624   0.68215   0.00000  Uiso   1.00
H781   H     0.01699   0.33110   0.71462   0.00000  Uiso   1.00
H782   H     0.04486   0.00157   0.66340   0.00000  Uiso   1.00
H783   H     0.07127   0.00218   0.71603   0.00000  Uiso   1.00
H784   H     0.27406   0.22911   0.67701   0.00000  Uiso   1.00
H785   H     0.32066   0.26305   0.67921   0.00000  Uiso   1.00
H786   H     0.19479   0.29006   0.81313   0.00000  Uiso   1.00
H787   H     0.27968   0.00044   0.70067   0.00000  Uiso   1.00
H788   H     0.26354   0.30924   0.64844   0.00000  Uiso   1.00
H789   H     0.23404   0.29880   0.69751   0.00000  Uiso   1.00
H790   H     0.26743   0.08247   0.81821   0.00000  Uiso   1.00
H791   H     0.32228   0.07624   0.81785   0.00000  Uiso   1.00
H792   H     0.31635   0.33110   0.78536   0.00000  Uiso   1.00
H793   H     0.28849   0.00157   0.83660   0.00000  Uiso   1.00
H794   H     0.26207   0.00218   0.78398   0.00000  Uiso   1.00
H795   H     0.05927   0.22911   0.82299   0.00000  Uiso   1.00
H796   H     0.01267   0.26305   0.82079   0.00000  Uiso   1.00
H797   H     0.19429   0.04326   0.81336   0.00000  Uiso   1.00
H798   H     0.06978   0.30925   0.85156   0.00000  Uiso   1.00
H799   H     0.09929   0.29880   0.80250   0.00000  Uiso   1.00
H800   H     0.05366   0.00044   0.79932   0.00000  Uiso   1.00
H801   H     0.13855   0.29006   0.68687   0.00000  Uiso   1.00
H802   H     0.18979   0.23767   0.53056   0.00000  Uiso   1.00
H803   H     0.18982   0.09590   0.96983   0.00000  Uiso   1.00
H804   H     0.14354   0.23767   0.96944   0.00000  Uiso   1.00
H805   H     0.14352   0.09590   0.53017   0.00000  Uiso   1.00
H806   H     0.18908   0.23789   0.61108   0.00000  Uiso   1.00
N807   N     0.16667   0.28402   0.75000   0.00000  Uiso   1.00
N808   N     0.16667   0.04931   0.75000   0.00000  Uiso   1.00
O809   O     0.10655   0.20625   0.75000   0.00000  Uiso   1.00
O810   O     0.29269   0.25146   0.73998   0.00000  Uiso   1.00
O811   O     0.29246   0.08144   0.75556   0.00000  Uiso   1.00
O812   O     0.04064   0.25146   0.76002   0.00000  Uiso   1.00
O813   O     0.22679   0.12709   0.75001   0.00000  Uiso   1.00
O814   O     0.22679   0.20625   0.75001   0.00000  Uiso   1.00
O815   O     0.10655   0.12709   0.75000   0.00000  Uiso   1.00
O816   O     0.16666   0.20626   0.68573   0.00000  Uiso   1.00
O817   O     0.16667   0.12707   0.81427   0.00000  Uiso   1.00
O818   O     0.16667   0.20626   0.81427   0.00000  Uiso   1.00
O819   O     0.16666   0.12707   0.68573   0.00000  Uiso   1.00
O820   O     0.04087   0.08144   0.74444   0.00000  Uiso   1.00
C821   C     0.42069   0.16665   0.75027   0.00000  Uiso   1.00
C822   C     0.64562   0.20921   0.74695   0.00000  Uiso   1.00
C823   C     0.64555   0.12405   0.75216   0.00000  Uiso   1.00
C824   C     0.35438   0.20921   0.75305   0.00000  Uiso   1.00
C825   C     0.51261   0.20671   0.54772   0.00000  Uiso   1.00
C826   C     0.51262   0.12683   0.95250   0.00000  Uiso   1.00
C827   C     0.48739   0.20671   0.95228   0.00000  Uiso   1.00
C828   C     0.48738   0.12683   0.54750   0.00000  Uiso   1.00
C829   C     0.51239   0.20677   0.59365   0.00000  Uiso   1.00
C830   C     0.51237   0.12670   0.90657   0.00000  Uiso   1.00
C831   C     0.48761   0.20677   0.90635   0.00000  Uiso   1.00
C832   C     0.57931   0.16665   0.74973   0.00000  Uiso   1.00
C833   C     0.48764   0.12669   0.59343   0.00000  Uiso   1.00
C834   C     0.50002   0.16671   0.61674   0.00000  Uiso   1.00
C835   C     0.49998   0.16671   0.88326   0.00000  Uiso   1.00
C836   C     0.49999   0.16678   0.52428   0.00000  Uiso   1.00
C837   C     0.50001   0.16678   0.97572   0.00000  Uiso   1.00
C838   C     0.62393   0.16661   0.74947   0.00000  Uiso   1.00
C839   C     0.37607   0.16661   0.75053   0.00000  Uiso   1.00
C840   C     0.37320   0.06671   0.69980   0.00000  Uiso   1.00
C841   C     0.37690   0.01375   0.69821   0.00000  Uiso   1.00
C842   C     0.62317   0.25882   0.69382   0.00000  Uiso   1.00
C843   C     0.50000   0.16667   0.66497   0.00000  Uiso   1.00
C844   C     0.59864   0.30298   0.68461   0.00000  Uiso   1.00
C845   C     0.62680   0.06671   0.80020   0.00000  Uiso   1.00
C846   C     0.62310   0.01375   0.80179   0.00000  Uiso   1.00
C847   C     0.37682   0.25882   0.80618   0.00000  Uiso   1.00
C848   C     0.40136   0.30298   0.81539   0.00000  Uiso   1.00
C849   C     0.50000   0.16667   0.83503   0.00000  Uiso   1.00
C850   C     0.48485   0.02477   0.71479   0.00000  Uiso   1.00
C851   C     0.51542   0.30856   0.78509   0.00000  Uiso   1.00
C852   C     0.51515   0.02477   0.78521   0.00000  Uiso   1.00
C853   C     0.48458   0.30856   0.71491   0.00000  Uiso   1.00
C854   C     0.35445   0.12405   0.74784   0.00000  Uiso   1.00
Cu855  Cu    0.50000   0.21355   0.75000   0.00000  Uiso   1.00
Cu856  Cu    0.50000   0.11978   0.75000   0.00000  Uiso   1.00
H857   H     0.47237   0.04326   0.68664   0.00000  Uiso   1.00
H858   H     0.52239   0.09555   0.88933   0.00000  Uiso   1.00
H859   H     0.47758   0.23788   0.88892   0.00000  Uiso   1.00
H860   H     0.47762   0.09555   0.61067   0.00000  Uiso   1.00
H861   H     0.39924   0.08247   0.68179   0.00000  Uiso   1.00
H862   H     0.34439   0.07624   0.68215   0.00000  Uiso   1.00
H863   H     0.35032   0.33110   0.71462   0.00000  Uiso   1.00
H864   H     0.37819   0.00157   0.66340   0.00000  Uiso   1.00
H865   H     0.40460   0.00218   0.71603   0.00000  Uiso   1.00
H866   H     0.60739   0.22911   0.67701   0.00000  Uiso   1.00
H867   H     0.65400   0.26305   0.67921   0.00000  Uiso   1.00
H868   H     0.52812   0.29006   0.81313   0.00000  Uiso   1.00
H869   H     0.61302   0.00044   0.70067   0.00000  Uiso   1.00
H870   H     0.59688   0.30924   0.64844   0.00000  Uiso   1.00
H871   H     0.56737   0.29880   0.69751   0.00000  Uiso   1.00
H872   H     0.60076   0.08247   0.81821   0.00000  Uiso   1.00
H873   H     0.65562   0.07624   0.81785   0.00000  Uiso   1.00
H874   H     0.64968   0.33110   0.78536   0.00000  Uiso   1.00
H875   H     0.62183   0.00157   0.83660   0.00000  Uiso   1.00
H876   H     0.59540   0.00218   0.78398   0.00000  Uiso   1.00
H877   H     0.39260   0.22911   0.82299   0.00000  Uiso   1.00
H878   H     0.34600   0.26305   0.82079   0.00000  Uiso   1.00
H879   H     0.52763   0.04326   0.81336   0.00000  Uiso   1.00
H880   H     0.40312   0.30925   0.85156   0.00000  Uiso   1.00
H881   H     0.43263   0.29880   0.80250   0.00000  Uiso   1.00
H882   H     0.38699   0.00044   0.79932   0.00000  Uiso   1.00
H883   H     0.47188   0.29006   0.68687   0.00000  Uiso   1.00
H884   H     0.52312   0.23767   0.53056   0.00000  Uiso   1.00
H885   H     0.52315   0.09590   0.96983   0.00000  Uiso   1.00
H886   H     0.47687   0.23767   0.96944   0.00000  Uiso   1.00
H887   H     0.47685   0.09590   0.53017   0.00000  Uiso   1.00
H888   H     0.52241   0.23789   0.61108   0.00000  Uiso   1.00
N889   N     0.50000   0.28402   0.75000   0.00000  Uiso   1.00
N890   N     0.50000   0.04931   0.75000   0.00000  Uiso   1.00
O891   O     0.43988   0.20625   0.75000   0.00000  Uiso   1.00
O892   O     0.62602   0.25146   0.73998   0.00000  Uiso   1.00
O893   O     0.62580   0.08144   0.75556   0.00000  Uiso   1.00
O894   O     0.37398   0.25146   0.76002   0.00000  Uiso   1.00
O895   O     0.56012   0.12709   0.75001   0.00000  Uiso   1.00
O896   O     0.56012   0.20625   0.75001   0.00000  Uiso   1.00
O897   O     0.43988   0.12709   0.75000   0.00000  Uiso   1.00
O898   O     0.50000   0.20626   0.68573   0.00000  Uiso   1.00
O899   O     0.50000   0.12707   0.81427   0.00000  Uiso   1.00
O900   O     0.50000   0.20626   0.81427   0.00000  Uiso   1.00
O901   O     0.50000   0.12707   0.68573   0.00000  Uiso   1.00
O902   O     0.37420   0.08144   0.74444   0.00000  Uiso   1.00
C903   C     0.75403   0.16665   0.75027   0.00000  Uiso   1.00
C904   C     0.97896   0.20921   0.74695   0.00000  Uiso   1.00
C905   C     0.97889   0.12405   0.75216   0.00000  Uiso   1.00
C906   C     0.68771   0.20921   0.75305   0.00000  Uiso   1.00
C907   C     0.84594   0.20671   0.54772   0.00000  Uiso   1.00
C908   C     0.84595   0.12683   0.95250   0.00000  Uiso   1.00
C909   C     0.82072   0.20671   0.95228   0.00000  Uiso   1.00
C910   C     0.82072   0.12683   0.54750   0.00000  Uiso   1.00
C911   C     0.84572   0.20677   0.59365   0.00000  Uiso   1.00
C912   C     0.84570   0.12670   0.90657   0.00000  Uiso   1.00
C913   C     0.82094   0.20677   0.90635   0.00000  Uiso   1.00
C914   C     0.91264   0.16665   0.74973   0.00000  Uiso   1.00
C915   C     0.82097   0.12669   0.59343   0.00000  Uiso   1.00
C916   C     0.83335   0.16671   0.61674   0.00000  Uiso   1.00
C917   C     0.83332   0.16671   0.88326   0.00000  Uiso   1.00
C918   C     0.83333   0.16678   0.52428   0.00000  Uiso   1.00
C919   C     0.83334   0.16678   0.97572   0.00000  Uiso   1.00
C920   C     0.95726   0.16661   0.74947   0.00000  Uiso   1.00
C921   C     0.70940   0.16661   0.75053   0.00000  Uiso   1.00
C922   C     0.70653   0.06671   0.69980   0.00000  Uiso   1.00
C923   C     0.71024   0.01375   0.69821   0.00000  Uiso   1.00
C924   C     0.95651   0.25882   0.69382   0.00000  Uiso   1.00
C925   C     0.83333   0.16667   0.66497   0.00000  Uiso   1.00
C926   C     0.93197   0.30298   0.68461   0.00000  Uiso   1.00
C927   C     0.96014   0.06671   0.80020   0.00000  Uiso   1.00
C928   C     0.95644   0.01375   0.80179   0.00000  Uiso   1.00
C929   C     0.71016   0.25882   0.80618   0.00000  Uiso   1.00
C930   C     0.73469   0.30298   0.81539   0.00000  Uiso   1.00
C931   C     0.83333   0.16667   0.83503   0.00000  Uiso   1.00
C932   C     0.81818   0.02477   0.71479   0.00000  Uiso   1.00
C933   C     0.84875   0.30856   0.78509   0.00000  Uiso   1.00
C934   C     0.84849   0.02477   0.78521   0.00000  Uiso   1.00
C935   C     0.81792   0.30856   0.71491   0.00000  Uiso   1.00
C936   C     0.68778   0.12405   0.74784   0.00000  Uiso   1.00
Cu937  Cu    0.83333   0.21355   0.75000   0.00000  Uiso   1.00
Cu938  Cu    0.83333   0.11978   0.75000   0.00000  Uiso   1.00
H939   H     0.80571   0.04326   0.68664   0.00000  Uiso   1.00
H940   H     0.85572   0.09555   0.88933   0.00000  Uiso   1.00
H941   H     0.81091   0.23788   0.88892   0.00000  Uiso   1.00
H942   H     0.81095   0.09555   0.61067   0.00000  Uiso   1.00
H943   H     0.73257   0.08247   0.68179   0.00000  Uiso   1.00
H944   H     0.67772   0.07624   0.68215   0.00000  Uiso   1.00
H945   H     0.68366   0.33110   0.71462   0.00000  Uiso   1.00
H946   H     0.71153   0.00157   0.66340   0.00000  Uiso   1.00
H947   H     0.73793   0.00218   0.71603   0.00000  Uiso   1.00
H948   H     0.94072   0.22911   0.67701   0.00000  Uiso   1.00
H949   H     0.98733   0.26305   0.67921   0.00000  Uiso   1.00
H950   H     0.86145   0.29006   0.81313   0.00000  Uiso   1.00
H951   H     0.94635   0.00044   0.70067   0.00000  Uiso   1.00
H952   H     0.93021   0.30924   0.64844   0.00000  Uiso   1.00
H953   H     0.90071   0.29880   0.69751   0.00000  Uiso   1.00
H954   H     0.93409   0.08247   0.81821   0.00000  Uiso   1.00
H955   H     0.98895   0.07624   0.81785   0.00000  Uiso   1.00
H956   H     0.98301   0.33110   0.78536   0.00000  Uiso   1.00
H957   H     0.95516   0.00157   0.83660   0.00000  Uiso   1.00
H958   H     0.92874   0.00218   0.78398   0.00000  Uiso   1.00
H959   H     0.72594   0.22911   0.82299   0.00000  Uiso   1.00
H960   H     0.67933   0.26305   0.82079   0.00000  Uiso   1.00
H961   H     0.86096   0.04326   0.81336   0.00000  Uiso   1.00
H962   H     0.73645   0.30925   0.85156   0.00000  Uiso   1.00
H963   H     0.76596   0.29880   0.80250   0.00000  Uiso   1.00
H964   H     0.72032   0.00044   0.79932   0.00000  Uiso   1.00
H965   H     0.80521   0.29006   0.68687   0.00000  Uiso   1.00
H966   H     0.85646   0.23767   0.53056   0.00000  Uiso   1.00
H967   H     0.85648   0.09590   0.96983   0.00000  Uiso   1.00
H968   H     0.81020   0.23767   0.96944   0.00000  Uiso   1.00
H969   H     0.81019   0.09590   0.53017   0.00000  Uiso   1.00
H970   H     0.85575   0.23789   0.61108   0.00000  Uiso   1.00
N971   N     0.83333   0.28402   0.75000   0.00000  Uiso   1.00
N972   N     0.83333   0.04931   0.75000   0.00000  Uiso   1.00
O973   O     0.77321   0.20625   0.75000   0.00000  Uiso   1.00
O974   O     0.95936   0.25146   0.73998   0.00000  Uiso   1.00
O975   O     0.95913   0.08144   0.75556   0.00000  Uiso   1.00
O976   O     0.70731   0.25146   0.76002   0.00000  Uiso   1.00
O977   O     0.89345   0.12709   0.75001   0.00000  Uiso   1.00
O978   O     0.89345   0.20625   0.75001   0.00000  Uiso   1.00
O979   O     0.77321   0.12709   0.75000   0.00000  Uiso   1.00
O980   O     0.83333   0.20626   0.68573   0.00000  Uiso   1.00
O981   O     0.83334   0.12707   0.81427   0.00000  Uiso   1.00
O982   O     0.83334   0.20626   0.81427   0.00000  Uiso   1.00
O983   O     0.83333   0.12707   0.68573   0.00000  Uiso   1.00
O984   O     0.70754   0.08144   0.74444   0.00000  Uiso   1.00
C985   C     0.08736   0.49999   0.75027   0.00000  Uiso   1.00
C986   C     0.31229   0.54254   0.74695   0.00000  Uiso   1.00
C987   C     0.31222   0.45738   0.75216   0.00000  Uiso   1.00
C988   C     0.02104   0.54254   0.75305   0.00000  Uiso   1.00
C989   C     0.17928   0.54004   0.54772   0.00000  Uiso   1.00
C990   C     0.17929   0.46017   0.95250   0.00000  Uiso   1.00
C991   C     0.15405   0.54004   0.95228   0.00000  Uiso   1.00
C992   C     0.15405   0.46016   0.54750   0.00000  Uiso   1.00
C993   C     0.17905   0.54010   0.59365   0.00000  Uiso   1.00
C994   C     0.17903   0.46003   0.90657   0.00000  Uiso   1.00
C995   C     0.15428   0.54010   0.90635   0.00000  Uiso   1.00
C996   C     0.24597   0.49999   0.74973   0.00000  Uiso   1.00
C997   C     0.15430   0.46003   0.59343   0.00000  Uiso   1.00
C998   C     0.16668   0.50004   0.61674   0.00000  Uiso   1.00
C999   C     0.16665   0.50004   0.88326   0.00000  Uiso   1.00
C1000  C     0.16666   0.50012   0.52428   0.00000  Uiso   1.00
C1001  C     0.16667   0.50012   0.97572   0.00000  Uiso   1.00
C1002  C     0.29060   0.49994   0.74947   0.00000  Uiso   1.00
C1003  C     0.04274   0.49994   0.75053   0.00000  Uiso   1.00
C1004  C     0.03987   0.40004   0.69980   0.00000  Uiso   1.00
C1005  C     0.04357   0.34708   0.69821   0.00000  Uiso   1.00
C1006  C     0.28984   0.59215   0.69382   0.00000  Uiso   1.00
C1007  C     0.16667   0.50001   0.66497   0.00000  Uiso   1.00
C1008  C     0.26530   0.63631   0.68461   0.00000  Uiso   1.00
C1009  C     0.29347   0.40004   0.80020   0.00000  Uiso   1.00
C1010  C     0.28977   0.34708   0.80179   0.00000  Uiso   1.00
C1011  C     0.04349   0.59215   0.80618   0.00000  Uiso   1.00
C1012  C     0.06803   0.63631   0.81539   0.00000  Uiso   1.00
C1013  C     0.16667   0.50001   0.83503   0.00000  Uiso   1.00
C1014  C     0.15152   0.35811   0.71479   0.00000  Uiso   1.00
C1015  C     0.18208   0.64189   0.78509   0.00000  Uiso   1.00
C1016  C     0.18182   0.35811   0.78521   0.00000  Uiso   1.00
C1017  C     0.15125   0.64189   0.71491   0.00000  Uiso   1.00
C1018  C     0.02111   0.45738   0.74784   0.00000  Uiso   1.00
Cu1019 Cu    0.16667   0.54689   0.75000   0.00000  Uiso   1.00
Cu1020 Cu    0.16667   0.45311   0.75000   0.00000  Uiso   1.00
H1021  H     0.13904   0.37659   0.68664   0.00000  Uiso   1.00
H1022  H     0.18906   0.42888   0.88933   0.00000  Uiso   1.00
H1023  H     0.14425   0.57122   0.88892   0.00000  Uiso   1.00
H1024  H     0.14428   0.42888   0.61067   0.00000  Uiso   1.00
H1025  H     0.06591   0.41581   0.68179   0.00000  Uiso   1.00
H1026  H     0.01105   0.40958   0.68215   0.00000  Uiso   1.00
H1027  H     0.01699   0.66443   0.71462   0.00000  Uiso   1.00
H1028  H     0.04486   0.33491   0.66340   0.00000  Uiso   1.00
H1029  H     0.07127   0.33551   0.71603   0.00000  Uiso   1.00
H1030  H     0.27406   0.56244   0.67701   0.00000  Uiso   1.00
H1031  H     0.32066   0.59638   0.67921   0.00000  Uiso   1.00
H1032  H     0.19479   0.62339   0.81313   0.00000  Uiso   1.00
H1033  H     0.27968   0.33377   0.70067   0.00000  Uiso   1.00
H1034  H     0.26354   0.64258   0.64844   0.00000  Uiso   1.00
H1035  H     0.23404   0.63214   0.69751   0.00000  Uiso   1.00
H1036  H     0.26743   0.41580   0.81821   0.00000  Uiso   1.00
H1037  H     0.32228   0.40958   0.81785   0.00000  Uiso   1.00
H1038  H     0.31635   0.66444   0.78536   0.00000  Uiso   1.00
H1039  H     0.28849   0.33490   0.83660   0.00000  Uiso   1.00
H1040  H     0.26207   0.33551   0.78398   0.00000  Uiso   1.00
H1041  H     0.05927   0.56244   0.82299   0.00000  Uiso   1.00
H1042  H     0.01267   0.59638   0.82079   0.00000  Uiso   1.00
H1043  H     0.19429   0.37659   0.81336   0.00000  Uiso   1.00
H1044  H     0.06978   0.64258   0.85156   0.00000  Uiso   1.00
H1045  H     0.09929   0.63213   0.80250   0.00000  Uiso   1.00
H1046  H     0.05366   0.33377   0.79932   0.00000  Uiso   1.00
H1047  H     0.13855   0.62339   0.68687   0.00000  Uiso   1.00
H1048  H     0.18979   0.57100   0.53056   0.00000  Uiso   1.00
H1049  H     0.18982   0.42923   0.96983   0.00000  Uiso   1.00
H1050  H     0.14354   0.57100   0.96944   0.00000  Uiso   1.00
H1051  H     0.14352   0.42923   0.53017   0.00000  Uiso   1.00
H1052  H     0.18908   0.57122   0.61108   0.00000  Uiso   1.00
N1053  N     0.16667   0.61736   0.75000   0.00000  Uiso   1.00
N1054  N     0.16667   0.38264   0.75000   0.00000  Uiso   1.00
O1055  O     0.10655   0.53958   0.75000   0.00000  Uiso   1.00
O1056  O     0.29269   0.58480   0.73998   0.00000  Uiso   1.00
O1057  O     0.29246   0.41477   0.75556   0.00000  Uiso   1.00
O1058  O     0.04064   0.58480   0.76002   0.00000  Uiso   1.00
O1059  O     0.22679   0.46042   0.75001   0.00000  Uiso   1.00
O1060  O     0.22679   0.53958   0.75001   0.00000  Uiso   1.00
O1061  O     0.10655   0.46042   0.75000   0.00000  Uiso   1.00
O1062  O     0.16666   0.53959   0.68573   0.00000  Uiso   1.00
O1063  O     0.16667   0.46041   0.81427   0.00000  Uiso   1.00
O1064  O     0.16667   0.53959   0.81427   0.00000  Uiso   1.00
O1065  O     0.16666   0.46041   0.68573   0.00000  Uiso   1.00
O1066  O     0.04087   0.41477   0.74444   0.00000  Uiso   1.00
C1067  C     0.42069   0.49999   0.75027   0.00000  Uiso   1.00
C1068  C     0.64562   0.54254   0.74695   0.00000  Uiso   1.00
C1069  C     0.64555   0.45738   0.75216   0.00000  Uiso   1.00
C1070  C     0.35438   0.54254   0.75305   0.00000  Uiso   1.00
C1071  C     0.51261   0.54004   0.54772   0.00000  Uiso   1.00
C1072  C     0.51262   0.46017   0.95250   0.00000  Uiso   1.00
C1073  C     0.48739   0.54004   0.95228   0.00000  Uiso   1.00
C1074  C     0.48738   0.46016   0.54750   0.00000  Uiso   1.00
C1075  C     0.51239   0.54010   0.59365   0.00000  Uiso   1.00
C1076  C     0.51237   0.46003   0.90657   0.00000  Uiso   1.00
C1077  C     0.48761   0.54010   0.90635   0.00000  Uiso   1.00
C1078  C     0.57931   0.49999   0.74973   0.00000  Uiso   1.00
C1079  C     0.48764   0.46003   0.59343   0.00000  Uiso   1.00
C1080  C     0.50002   0.50004   0.61674   0.00000  Uiso   1.00
C1081  C     0.49998   0.50004   0.88326   0.00000  Uiso   1.00
C1082  C     0.49999   0.50012   0.52428   0.00000  Uiso   1.00
C1083  C     0.50001   0.50012   0.97572   0.00000  Uiso   1.00
C1084  C     0.62393   0.49994   0.74947   0.00000  Uiso   1.00
C1085  C     0.37607   0.49994   0.75053   0.00000  Uiso   1.00
C1086  C     0.37320   0.40004   0.69980   0.00000  Uiso   1.00
C1087  C     0.37690   0.34708   0.69821   0.00000  Uiso   1.00
C1088  C     0.62317   0.59215   0.69382   0.00000  Uiso   1.00
C1089  C     0.50000   0.50001   0.66497   0.00000  Uiso   1.00
C1090  C     0.59864   0.63631   0.68461   0.00000  Uiso   1.00
C1091  C     0.62680   0.40004   0.80020   0.00000  Uiso   1.00
C1092  C     0.62310   0.34708   0.80179   0.00000  Uiso   1.00
C1093  C     0.37682   0.59215   0.80618   0.00000  Uiso   1.00
C1094  C     0.40136   0.63631   0.81539   0.00000  Uiso   1.00
C1095  C     0.50000   0.50001   0.83503   0.00000  Uiso   1.00
C1096  C     0.48485   0.35811   0.71479   0.00000  Uiso   1.00
C1097  C     0.51542   0.64189   0.78509   0.00000  Uiso   1.00
C1098  C     0.51515   0.35811   0.78521   0.00000  Uiso   1.00
C1099  C     0.48458   0.64189   0.71491   0.00000  Uiso   1.00
C1100  C     0.35445   0.45738   0.74784   0.00000  Uiso   1.00
Cu1101 Cu    0.50000   0.54689   0.75000   0.00000  Uiso   1.00
Cu1102 Cu    0.50000   0.45311   0.75000   0.00000  Uiso   1.00
H1103  H     0.47237   0.37659   0.68664   0.00000  Uiso   1.00
H1104  H     0.52239   0.42888   0.88933   0.00000  Uiso   1.00
H1105  H     0.47758   0.57122   0.88892   0.00000  Uiso   1.00
H1106  H     0.47762   0.42888   0.61067   0.00000  Uiso   1.00
H1107  H     0.39924   0.41581   0.68179   0.00000  Uiso   1.00
H1108  H     0.34439   0.40958   0.68215   0.00000  Uiso   1.00
H1109  H     0.35032   0.66443   0.71462   0.00000  Uiso   1.00
H1110  H     0.37819   0.33491   0.66340   0.00000  Uiso   1.00
H1111  H     0.40460   0.33551   0.71603   0.00000  Uiso   1.00
H1112  H     0.60739   0.56244   0.67701   0.00000  Uiso   1.00
H1113  H     0.65400   0.59638   0.67921   0.00000  Uiso   1.00
H1114  H     0.52812   0.62339   0.81313   0.00000  Uiso   1.00
H1115  H     0.61302   0.33377   0.70067   0.00000  Uiso   1.00
H1116  H     0.59688   0.64258   0.64844   0.00000  Uiso   1.00
H1117  H     0.56737   0.63214   0.69751   0.00000  Uiso   1.00
H1118  H     0.60076   0.41580   0.81821   0.00000  Uiso   1.00
H1119  H     0.65562   0.40958   0.81785   0.00000  Uiso   1.00
H1120  H     0.64968   0.66444   0.78536   0.00000  Uiso   1.00
H1121  H     0.62183   0.33490   0.83660   0.00000  Uiso   1.00
H1122  H     0.59540   0.33551   0.78398   0.00000  Uiso   1.00
H1123  H     0.39260   0.56244   0.82299   0.00000  Uiso   1.00
H1124  H     0.34600   0.59638   0.82079   0.00000  Uiso   1.00
H1125  H     0.52763   0.37659   0.81336   0.00000  Uiso   1.00
H1126  H     0.40312   0.64258   0.85156   0.00000  Uiso   1.00
H1127  H     0.43263   0.63213   0.80250   0.00000  Uiso   1.00
H1128  H     0.38699   0.33377   0.79932   0.00000  Uiso   1.00
H1129  H     0.47188   0.62339   0.68687   0.00000  Uiso   1.00
H1130  H     0.52312   0.57100   0.53056   0.00000  Uiso   1.00
H1131  H     0.52315   0.42923   0.96983   0.00000  Uiso   1.00
H1132  H     0.47687   0.57100   0.96944   0.00000  Uiso   1.00
H1133  H     0.47685   0.42923   0.53017   0.00000  Uiso   1.00
H1134  H     0.52241   0.57122   0.61108   0.00000  Uiso   1.00
N1135  N     0.50000   0.61736   0.75000   0.00000  Uiso   1.00
N1136  N     0.50000   0.38264   0.75000   0.00000  Uiso   1.00
O1137  O     0.43988   0.53958   0.75000   0.00000  Uiso   1.00
O1138  O     0.62602   0.58480   0.73998   0.00000  Uiso   1.00
O1139  O     0.62580   0.41477   0.75556   0.00000  Uiso   1.00
O1140  O     0.37398   0.58480   0.76002   0.00000  Uiso   1.00
O1141  O     0.56012   0.46042   0.75001   0.00000  Uiso   1.00
O1142  O     0.56012   0.53958   0.75001   0.00000  Uiso   1.00
O1143  O     0.43988   0.46042   0.75000   0.00000  Uiso   1.00
O1144  O     0.50000   0.53959   0.68573   0.00000  Uiso   1.00
O1145  O     0.50000   0.46041   0.81427   0.00000  Uiso   1.00
O1146  O     0.50000   0.53959   0.81427   0.00000  Uiso   1.00
O1147  O     0.50000   0.46041   0.68573   0.00000  Uiso   1.00
O1148  O     0.37420   0.41477   0.74444   0.00000  Uiso   1.00
C1149  C     0.75403   0.49999   0.75027   0.00000  Uiso   1.00
C1150  C     0.97896   0.54254   0.74695   0.00000  Uiso   1.00
C1151  C     0.97889   0.45738   0.75216   0.00000  Uiso   1.00
C1152  C     0.68771   0.54254   0.75305   0.00000  Uiso   1.00
C1153  C     0.84594   0.54004   0.54772   0.00000  Uiso   1.00
C1154  C     0.84595   0.46017   0.95250   0.00000  Uiso   1.00
C1155  C     0.82072   0.54004   0.95228   0.00000  Uiso   1.00
C1156  C     0.82072   0.46016   0.54750   0.00000  Uiso   1.00
C1157  C     0.84572   0.54010   0.59365   0.00000  Uiso   1.00
C1158  C     0.84570   0.46003   0.90657   0.00000  Uiso   1.00
C1159  C     0.82094   0.54010   0.90635   0.00000  Uiso   1.00
C1160  C     0.91264   0.49999   0.74973   0.00000  Uiso   1.00
C1161  C     0.82097   0.46003   0.59343   0.00000  Uiso   1.00
C1162  C     0.83335   0.50004   0.61674   0.00000  Uiso   1.00
C1163  C     0.83332   0.50004   0.88326   0.00000  Uiso   1.00
C1164  C     0.83333   0.50012   0.52428   0.00000  Uiso   1.00
C1165  C     0.83334   0.50012   0.97572   0.00000  Uiso   1.00
C1166  C     0.95726   0.49994   0.74947   0.00000  Uiso   1.00
C1167  C     0.70940   0.49994   0.75053   0.00000  Uiso   1.00
C1168  C     0.70653   0.40004   0.69980   0.00000  Uiso   1.00
C1169  C     0.71024   0.34708   0.69821   0.00000  Uiso   1.00
C1170  C     0.95651   0.59215   0.69382   0.00000  Uiso   1.00
C1171  C     0.83333   0.50001   0.66497   0.00000  Uiso   1.00
C1172  C     0.93197   0.63631   0.68461   0.00000  Uiso   1.00
C1173  C     0.96014   0.40004   0.80020   0.00000  Uiso   1.00
C1174  C     0.95644   0.34708   0.80179   0.00000  Uiso   1.00
C1175  C     0.71016   0.59215   0.80618   0.00000  Uiso   1.00
C1176  C     0.73469   0.63631   0.81539   0.00000  Uiso   1.00
C1177  C     0.83333   0.50001   0.83503   0.00000  Uiso   1.00
C1178  C     0.81818   0.35811   0.71479   0.00000  Uiso   1.00
C1179  C     0.84875   0.64189   0.78509   0.00000  Uiso   1.00
C1180  C     0.84849   0.35811   0.78521   0.00000  Uiso   1.00
C1181  C     0.81792   0.64189   0.71491   0.00000  Uiso   1.00
C1182  C     0.68778   0.45738   0.74784   0.00000  Uiso   1.00
Cu1183 Cu    0.83333   0.54689   0.75000   0.00000  Uiso   1.00
Cu1184 Cu    0.83333   0.45311   0.75000   0.00000  Uiso   1.00
H1185  H     0.80571   0.37659   0.68664   0.00000  Uiso   1.00
H1186  H     0.85572   0.42888   0.88933   0.00000  Uiso   1.00
H1187  H     0.81091   0.57122   0.88892   0.00000  Uiso   1.00
H1188  H     0.81095   0.42888   0.61067   0.00000  Uiso   1.00
H1189  H     0.73257   0.41581   0.68179   0.00000  Uiso   1.00
H1190  H     0.67772   0.40958   0.68215   0.00000  Uiso   1.00
H1191  H     0.68366   0.66443   0.71462   0.00000  Uiso   1.00
H1192  H     0.71153   0.33491   0.66340   0.00000  Uiso   1.00
H1193  H     0.73793   0.33551   0.71603   0.00000  Uiso   1.00
H1194  H     0.94072   0.56244   0.67701   0.00000  Uiso   1.00
H1195  H     0.98733   0.59638   0.67921   0.00000  Uiso   1.00
H1196  H     0.86145   0.62339   0.81313   0.00000  Uiso   1.00
H1197  H     0.94635   0.33377   0.70067   0.00000  Uiso   1.00
H1198  H     0.93021   0.64258   0.64844   0.00000  Uiso   1.00
H1199  H     0.90071   0.63214   0.69751   0.00000  Uiso   1.00
H1200  H     0.93409   0.41580   0.81821   0.00000  Uiso   1.00
H1201  H     0.98895   0.40958   0.81785   0.00000  Uiso   1.00
H1202  H     0.98301   0.66444   0.78536   0.00000  Uiso   1.00
H1203  H     0.95516   0.33490   0.83660   0.00000  Uiso   1.00
H1204  H     0.92874   0.33551   0.78398   0.00000  Uiso   1.00
H1205  H     0.72594   0.56244   0.82299   0.00000  Uiso   1.00
H1206  H     0.67933   0.59638   0.82079   0.00000  Uiso   1.00
H1207  H     0.86096   0.37659   0.81336   0.00000  Uiso   1.00
H1208  H     0.73645   0.64258   0.85156   0.00000  Uiso   1.00
H1209  H     0.76596   0.63213   0.80250   0.00000  Uiso   1.00
H1210  H     0.72032   0.33377   0.79932   0.00000  Uiso   1.00
H1211  H     0.80521   0.62339   0.68687   0.00000  Uiso   1.00
H1212  H     0.85646   0.57100   0.53056   0.00000  Uiso   1.00
H1213  H     0.85648   0.42923   0.96983   0.00000  Uiso   1.00
H1214  H     0.81020   0.57100   0.96944   0.00000  Uiso   1.00
H1215  H     0.81019   0.42923   0.53017   0.00000  Uiso   1.00
H1216  H     0.85575   0.57122   0.61108   0.00000  Uiso   1.00
N1217  N     0.83333   0.61736   0.75000   0.00000  Uiso   1.00
N1218  N     0.83333   0.38264   0.75000   0.00000  Uiso   1.00
O1219  O     0.77321   0.53958   0.75000   0.00000  Uiso   1.00
O1220  O     0.95936   0.58480   0.73998   0.00000  Uiso   1.00
O1221  O     0.95913   0.41477   0.75556   0.00000  Uiso   1.00
O1222  O     0.70731   0.58480   0.76002   0.00000  Uiso   1.00
O1223  O     0.89345   0.46042   0.75001   0.00000  Uiso   1.00
O1224  O     0.89345   0.53958   0.75001   0.00000  Uiso   1.00
O1225  O     0.77321   0.46042   0.75000   0.00000  Uiso   1.00
O1226  O     0.83333   0.53959   0.68573   0.00000  Uiso   1.00
O1227  O     0.83334   0.46041   0.81427   0.00000  Uiso   1.00
O1228  O     0.83334   0.53959   0.81427   0.00000  Uiso   1.00
O1229  O     0.83333   0.46041   0.68573   0.00000  Uiso   1.00
O1230  O     0.70754   0.41477   0.74444   0.00000  Uiso   1.00
C1231  C     0.08736   0.83332   0.75027   0.00000  Uiso   1.00
C1232  C     0.31229   0.87587   0.74695   0.00000  Uiso   1.00
C1233  C     0.31222   0.79071   0.75216   0.00000  Uiso   1.00
C1234  C     0.02104   0.87587   0.75305   0.00000  Uiso   1.00
C1235  C     0.17928   0.87338   0.54772   0.00000  Uiso   1.00
C1236  C     0.17929   0.79350   0.95250   0.00000  Uiso   1.00
C1237  C     0.15405   0.87337   0.95228   0.00000  Uiso   1.00
C1238  C     0.15405   0.79350   0.54750   0.00000  Uiso   1.00
C1239  C     0.17905   0.87343   0.59365   0.00000  Uiso   1.00
C1240  C     0.17903   0.79336   0.90657   0.00000  Uiso   1.00
C1241  C     0.15428   0.87343   0.90635   0.00000  Uiso   1.00
C1242  C     0.24597   0.83332   0.74973   0.00000  Uiso   1.00
C1243  C     0.15430   0.79336   0.59343   0.00000  Uiso   1.00
C1244  C     0.16668   0.83337   0.61674   0.00000  Uiso   1.00
C1245  C     0.16665   0.83337   0.88326   0.00000  Uiso   1.00
C1246  C     0.16666   0.83345   0.52428   0.00000  Uiso   1.00
C1247  C     0.16667   0.83345   0.97572   0.00000  Uiso   1.00
C1248  C     0.29060   0.83327   0.74947   0.00000  Uiso   1.00
C1249  C     0.04274   0.83327   0.75053   0.00000  Uiso   1.00
C1250  C     0.03987   0.73338   0.69980   0.00000  Uiso   1.00
C1251  C     0.04357   0.68042   0.69821   0.00000  Uiso   1.00
C1252  C     0.28984   0.92549   0.69382   0.00000  Uiso   1.00
C1253  C     0.16667   0.83334   0.66497   0.00000  Uiso   1.00
C1254  C     0.26530   0.96964   0.68461   0.00000  Uiso   1.00
C1255  C     0.29347   0.73338   0.80020   0.00000  Uiso   1.00
C1256  C     0.28977   0.68042   0.80179   0.00000  Uiso   1.00
C1257  C     0.04349   0.92549   0.80618   0.00000  Uiso   1.00
C1258  C     0.06803   0.96964   0.81539   0.00000  Uiso   1.00
C1259  C     0.16667   0.83334   0.83503   0.00000  Uiso   1.00
C1260  C     0.15152   0.69144   0.71479   0.00000  Uiso   1.00
C1261  C     0.18208   0.97522   0.78509   0.00000  Uiso   1.00
C1262  C     0.18182   0.69144   0.78521   0.00000  Uiso   1.00
C1263  C     0.15125   0.97522   0.71491   0.00000  Uiso   1.00
C1264  C     0.02111   0.79071   0.74784   0.00000  Uiso   1.00
Cu1265 Cu    0.16667   0.88022   0.75000   0.00000  Uiso   1.00
Cu1266 Cu    0.16667   0.78645   0.75000   0.00000  Uiso   1.00
H1267  H     0.13904   0.70993   0.68664   0.00000  Uiso   1.00
H1268  H     0.18906   0.76222   0.88933   0.00000  Uiso   1.00
H1269  H     0.14425   0.90455   0.88892   0.00000  Uiso   1.00
H1270  H     0.14428   0.76221   0.61067   0.00000  Uiso   1.00
H1271  H     0.06591   0.74914   0.68179   0.00000  Uiso   1.00
H1272  H     0.01105   0.74291   0.68215   0.00000  Uiso   1.00
H1273  H     0.01699   0.99777   0.71462   0.00000  Uiso   1.00
H1274  H     0.04486   0.66824   0.66340   0.00000  Uiso   1.00
H1275  H     0.07127   0.66885   0.71603   0.00000  Uiso   1.00
H1276  H     0.27406   0.89577   0.67701   0.00000  Uiso   1.00
H1277  H     0.32066   0.92971   0.67921   0.00000  Uiso   1.00
H1278  H     0.19479   0.95673   0.81313   0.00000  Uiso   1.00
H1279  H     0.27968   0.66711   0.70067   0.00000  Uiso   1.00
H1280  H     0.26354   0.97591   0.64844   0.00000  Uiso   1.00
H1281  H     0.23404   0.96547   0.69751   0.00000  Uiso   1.00
H1282  H     0.26743   0.74914   0.81821   0.00000  Uiso   1.00
H1283  H     0.32228   0.74291   0.81785   0.00000  Uiso   1.00
H1284  H     0.31635   0.99777   0.78536   0.00000  Uiso   1.00
H1285  H     0.28849   0.66824   0.83660   0.00000  Uiso   1.00
H1286  H     0.26207   0.66884   0.78398   0.00000  Uiso   1.00
H1287  H     0.05927   0.89577   0.82299   0.00000  Uiso   1.00
H1288  H     0.01267   0.92972   0.82079   0.00000  Uiso   1.00
H1289  H     0.19429   0.70993   0.81336   0.00000  Uiso   1.00
H1290  H     0.06978   0.97591   0.85156   0.00000  Uiso   1.00
H1291  H     0.09929   0.96546   0.80250   0.00000  Uiso   1.00
H1292  H     0.05366   0.66711   0.79932   0.00000  Uiso   1.00
H1293  H     0.13855   0.95673   0.68687   0.00000  Uiso   1.00
H1294  H     0.18979   0.90434   0.53056   0.00000  Uiso   1.00
H1295  H     0.18982   0.76257   0.96983   0.00000  Uiso   1.00
H1296  H     0.14354   0.90433   0.96944   0.00000  Uiso   1.00
H1297  H     0.14352   0.76256   0.53017   0.00000  Uiso   1.00
H1298  H     0.18908   0.90455   0.61108   0.00000  Uiso   1.00
N1299  N     0.16667   0.95069   0.75000   0.00000  Uiso   1.00
N1300  N     0.16667   0.71598   0.75000   0.00000  Uiso   1.00
O1301  O     0.10655   0.87291   0.75000   0.00000  Uiso   1.00
O1302  O     0.29269   0.91813   0.73998   0.00000  Uiso   1.00
O1303  O     0.29246   0.74811   0.75556   0.00000  Uiso   1.00
O1304  O     0.04064   0.91813   0.76002   0.00000  Uiso   1.00
O1305  O     0.22679   0.79375   0.75001   0.00000  Uiso   1.00
O1306  O     0.22679   0.87291   0.75001   0.00000  Uiso   1.00
O1307  O     0.10655   0.79375   0.75000   0.00000  Uiso   1.00
O1308  O     0.16666   0.87293   0.68573   0.00000  Uiso   1.00
O1309  O     0.16667   0.79374   0.81427   0.00000  Uiso   1.00
O1310  O     0.16667   0.87293   0.81427   0.00000  Uiso   1.00
O1311  O     0.16666   0.79374   0.68573   0.00000  Uiso   1.00
O1312  O     0.04087   0.74811   0.74444   0.00000  Uiso   1.00
C1313  C     0.42069   0.83332   0.75027   0.00000  Uiso   1.00
C1314  C     0.64562   0.87587   0.74695   0.00000  Uiso   1.00
C1315  C     0.64555   0.79071   0.75216   0.00000  Uiso   1.00
C1316  C     0.35438   0.87587   0.75305   0.00000  Uiso   1.00
C1317  C     0.51261   0.87338   0.54772   0.00000  Uiso   1.00
C1318  C     0.51262   0.79350   0.95250   0.00000  Uiso   1.00
C1319  C     0.48739   0.87337   0.95228   0.00000  Uiso   1.00
C1320  C     0.48738   0.79350   0.54750   0.00000  Uiso   1.00
C1321  C     0.51239   0.87343   0.59365   0.00000  Uiso   1.00
C1322  C     0.51237   0.79336   0.90657   0.00000  Uiso   1.00
C1323  C     0.48761   0.87343   0.90635   0.00000  Uiso   1.00
C1324  C     0.57931   0.83332   0.74973   0.00000  Uiso   1.00
C1325  C     0.48764   0.79336   0.59343   0.00000  Uiso   1.00
C1326  C     0.50002   0.83337   0.61674   0.00000  Uiso   1.00
C1327  C     0.49998   0.83337   0.88326   0.00000  Uiso   1.00
C1328  C     0.49999   0.83345   0.52428   0.00000  Uiso   1.00
C1329  C     0.50001   0.83345   0.97572   0.00000  Uiso   1.00
C1330  C     0.62393   0.83327   0.74947   0.00000  Uiso   1.00
C1331  C     0.37607   0.83327   0.75053   0.00000  Uiso   1.00
C1332  C     0.37320   0.73338   0.69980   0.00000  Uiso   1.00
C1333  C     0.37690   0.68042   0.69821   0.00000  Uiso   1.00
C1334  C     0.62317   0.92549   0.69382   0.00000  Uiso   1.00
C1335  C     0.50000   0.83334   0.66497   0.00000  Uiso   1.00
C1336  C     0.59864   0.96964   0.68461   0.00000  Uiso   1.00
C1337  C     0.62680   0.73338   0.80020   0.00000  Uiso   1.00
C1338  C     0.62310   0.68042   0.80179   0.00000  Uiso   1.00
C1339  C     0.37682   0.92549   0.80618   0.00000  Uiso   1.00
C1340  C     0.40136   0.96964   0.81539   0.00000  Uiso   1.00
C1341  C     0.50000   0.83334   0.83503   0.00000  Uiso   1.00
C1342  C     0.48485   0.69144   0.71479   0.00000  Uiso   1.00
C1343  C     0.51542   0.97522   0.78509   0.00000  Uiso   1.00
C1344  C     0.51515   0.69144   0.78521   0.00000  Uiso   1.00
C1345  C     0.48458   0.97522   0.71491   0.00000  Uiso   1.00
C1346  C     0.35445   0.79071   0.74784   0.00000  Uiso   1.00
Cu1347 Cu    0.50000   0.88022   0.75000   0.00000  Uiso   1.00
Cu1348 Cu    0.50000   0.78645   0.75000   0.00000  Uiso   1.00
H1349  H     0.47237   0.70993   0.68664   0.00000  Uiso   1.00
H1350  H     0.52239   0.76222   0.88933   0.00000  Uiso   1.00
H1351  H     0.47758   0.90455   0.88892   0.00000  Uiso   1.00
H1352  H     0.47762   0.76221   0.61067   0.00000  Uiso   1.00
H1353  H     0.39924   0.74914   0.68179   0.00000  Uiso   1.00
H1354  H     0.34439   0.74291   0.68215   0.00000  Uiso   1.00
H1355  H     0.35032   0.99777   0.71462   0.00000  Uiso   1.00
H1356  H     0.37819   0.66824   0.66340   0.00000  Uiso   1.00
H1357  H     0.40460   0.66885   0.71603   0.00000  Uiso   1.00
H1358  H     0.60739   0.89577   0.67701   0.00000  Uiso   1.00
H1359  H     0.65400   0.92971   0.67921   0.00000  Uiso   1.00
H1360  H     0.52812   0.95673   0.81313   0.00000  Uiso   1.00
H1361  H     0.61302   0.66711   0.70067   0.00000  Uiso   1.00
H1362  H     0.59688   0.97591   0.64844   0.00000  Uiso   1.00
H1363  H     0.56737   0.96547   0.69751   0.00000  Uiso   1.00
H1364  H     0.60076   0.74914   0.81821   0.00000  Uiso   1.00
H1365  H     0.65562   0.74291   0.81785   0.00000  Uiso   1.00
H1366  H     0.64968   0.99777   0.78536   0.00000  Uiso   1.00
H1367  H     0.62183   0.66824   0.83660   0.00000  Uiso   1.00
H1368  H     0.59540   0.66884   0.78398   0.00000  Uiso   1.00
H1369  H     0.39260   0.89577   0.82299   0.00000  Uiso   1.00
H1370  H     0.34600   0.92972   0.82079   0.00000  Uiso   1.00
H1371  H     0.52763   0.70993   0.81336   0.00000  Uiso   1.00
H1372  H     0.40312   0.97591   0.85156   0.00000  Uiso   1.00
H1373  H     0.43263   0.96546   0.80250   0.00000  Uiso   1.00
H1374  H     0.38699   0.66711   0.79932   0.00000  Uiso   1.00
H1375  H     0.47188   0.95673   0.68687   0.00000  Uiso   1.00
H1376  H     0.52312   0.90434   0.53056   0.00000  Uiso   1.00
H1377  H     0.52315   0.76257   0.96983   0.00000  Uiso   1.00
H1378  H     0.47687   0.90433   0.96944   0.00000  Uiso   1.00
H1379  H     0.47685   0.76256   0.53017   0.00000  Uiso   1.00
H1380  H     0.52241   0.90455   0.61108   0.00000  Uiso   1.00
N1381  N     0.50000   0.95069   0.75000   0.00000  Uiso   1.00
N1382  N     0.50000   0.71598   0.75000   0.00000  Uiso   1.00
O1383  O     0.43988   0.87291   0.75000   0.00000  Uiso   1.00
O1384  O     0.62602   0.91813   0.73998   0.00000  Uiso   1.00
O1385  O     0.62580   0.74811   0.75556   0.00000  Uiso   1.00
O1386  O     0.37398   0.91813   0.76002   0.00000  Uiso   1.00
O1387  O     0.56012   0.79375   0.75001   0.00000  Uiso   1.00
O1388  O     0.56012   0.87291   0.75001   0.00000  Uiso   1.00
O1389  O     0.43988   0.79375   0.75000   0.00000  Uiso   1.00
O1390  O     0.50000   0.87293   0.68573   0.00000  Uiso   1.00
O1391  O     0.50000   0.79374   0.81427   0.00000  Uiso   1.00
O1392  O     0.50000   0.87293   0.81427   0.00000  Uiso   1.00
O1393  O     0.50000   0.79374   0.68573   0.00000  Uiso   1.00
O1394  O     0.37420   0.74811   0.74444   0.00000  Uiso   1.00
C1395  C     0.75403   0.83332   0.75027   0.00000  Uiso   1.00
C1396  C     0.97896   0.87587   0.74695   0.00000  Uiso   1.00
C1397  C     0.97889   0.79071   0.75216   0.00000  Uiso   1.00
C1398  C     0.68771   0.87587   0.75305   0.00000  Uiso   1.00
C1399  C     0.84594   0.87338   0.54772   0.00000  Uiso   1.00
C1400  C     0.84595   0.79350   0.95250   0.00000  Uiso   1.00
C1401  C     0.82072   0.87337   0.95228   0.00000  Uiso   1.00
C1402  C     0.82072   0.79350   0.54750   0.00000  Uiso   1.00
C1403  C     0.84572   0.87343   0.59365   0.00000  Uiso   1.00
C1404  C     0.84570   0.79336   0.90657   0.00000  Uiso   1.00
C1405  C     0.82094   0.87343   0.90635   0.00000  Uiso   1.00
C1406  C     0.91264   0.83332   0.74973   0.00000  Uiso   1.00
C1407  C     0.82097   0.79336   0.59343   0.00000  Uiso   1.00
C1408  C     0.83335   0.83337   0.61674   0.00000  Uiso   1.00
C1409  C     0.83332   0.83337   0.88326   0.00000  Uiso   1.00
C1410  C     0.83333   0.83345   0.52428   0.00000  Uiso   1.00
C1411  C     0.83334   0.83345   0.97572   0.00000  Uiso   1.00
C1412  C     0.95726   0.83327   0.74947   0.00000  Uiso   1.00
C1413  C     0.70940   0.83327   0.75053   0.00000  Uiso   1.00
C1414  C     0.70653   0.73338   0.69980   0.00000  Uiso   1.00
C1415  C     0.71024   0.68042   0.69821   0.00000  Uiso   1.00
C1416  C     0.95651   0.92549   0.69382   0.00000  Uiso   1.00
C1417  C     0.83333   0.83334   0.66497   0.00000  Uiso   1.00
C1418  C     0.93197   0.96964   0.68461   0.00000  Uiso   1.00
C1419  C     0.96014   0.73338   0.80020   0.00000  Uiso   1.00
C1420  C     0.95644   0.68042   0.80179   0.00000  Uiso   1.00
C1421  C     0.71016   0.92549   0.80618   0.00000  Uiso   1.00
C1422  C     0.73469   0.96964   0.81539   0.00000  Uiso   1.00
C1423  C     0.83333   0.83334   0.83503   0.00000  Uiso   1.00
C1424  C     0.81818   0.69144   0.71479   0.00000  Uiso   1.00
C1425  C     0.84875   0.97522   0.78509   0.00000  Uiso   1.00
C1426  C     0.84849   0.69144   0.78521   0.00000  Uiso   1.00
C1427  C     0.81792   0.97522   0.71491   0.00000  Uiso   1.00
C1428  C     0.68778   0.79071   0.74784   0.00000  Uiso   1.00
Cu1429 Cu    0.83333   0.88022   0.75000   0.00000  Uiso   1.00
Cu1430 Cu    0.83333   0.78645   0.75000   0.00000  Uiso   1.00
H1431  H     0.80571   0.70993   0.68664   0.00000  Uiso   1.00
H1432  H     0.85572   0.76222   0.88933   0.00000  Uiso   1.00
H1433  H     0.81091   0.90455   0.88892   0.00000  Uiso   1.00
H1434  H     0.81095   0.76221   0.61067   0.00000  Uiso   1.00
H1435  H     0.73257   0.74914   0.68179   0.00000  Uiso   1.00
H1436  H     0.67772   0.74291   0.68215   0.00000  Uiso   1.00
H1437  H     0.68366   0.99777   0.71462   0.00000  Uiso   1.00
H1438  H     0.71153   0.66824   0.66340   0.00000  Uiso   1.00
H1439  H     0.73793   0.66885   0.71603   0.00000  Uiso   1.00
H1440  H     0.94072   0.89577   0.67701   0.00000  Uiso   1.00
H1441  H     0.98733   0.92971   0.67921   0.00000  Uiso   1.00
H1442  H     0.86145   0.95673   0.81313   0.00000  Uiso   1.00
H1443  H     0.94635   0.66711   0.70067   0.00000  Uiso   1.00
H1444  H     0.93021   0.97591   0.64844   0.00000  Uiso   1.00
H1445  H     0.90071   0.96547   0.69751   0.00000  Uiso   1.00
H1446  H     0.93409   0.74914   0.81821   0.00000  Uiso   1.00
H1447  H     0.98895   0.74291   0.81785   0.00000  Uiso   1.00
H1448  H     0.98301   0.99777   0.78536   0.00000  Uiso   1.00
H1449  H     0.95516   0.66824   0.83660   0.00000  Uiso   1.00
H1450  H     0.92874   0.66884   0.78398   0.00000  Uiso   1.00
H1451  H     0.72594   0.89577   0.82299   0.00000  Uiso   1.00
H1452  H     0.67933   0.92972   0.82079   0.00000  Uiso   1.00
H1453  H     0.86096   0.70993   0.81336   0.00000  Uiso   1.00
H1454  H     0.73645   0.97591   0.85156   0.00000  Uiso   1.00
H1455  H     0.76596   0.96546   0.80250   0.00000  Uiso   1.00
H1456  H     0.72032   0.66711   0.79932   0.00000  Uiso   1.00
H1457  H     0.80521   0.95673   0.68687   0.00000  Uiso   1.00
H1458  H     0.85646   0.90434   0.53056   0.00000  Uiso   1.00
H1459  H     0.85648   0.76257   0.96983   0.00000  Uiso   1.00
H1460  H     0.81020   0.90433   0.96944   0.00000  Uiso   1.00
H1461  H     0.81019   0.76256   0.53017   0.00000  Uiso   1.00
H1462  H     0.85575   0.90455   0.61108   0.00000  Uiso   1.00
N1463  N     0.83333   0.95069   0.75000   0.00000  Uiso   1.00
N1464  N     0.83333   0.71598   0.75000   0.00000  Uiso   1.00
O1465  O     0.77321   0.87291   0.75000   0.00000  Uiso   1.00
O1466  O     0.95936   0.91813   0.73998   0.00000  Uiso   1.00
O1467  O     0.95913   0.74811   0.75556   0.00000  Uiso   1.00
O1468  O     0.70731   0.91813   0.76002   0.00000  Uiso   1.00
O1469  O     0.89345   0.79375   0.75001   0.00000  Uiso   1.00
O1470  O     0.89345   0.87291   0.75001   0.00000  Uiso   1.00
O1471  O     0.77321   0.79375   0.75000   0.00000  Uiso   1.00
O1472  O     0.83333   0.87293   0.68573   0.00000  Uiso   1.00
O1473  O     0.83334   0.79374   0.81427   0.00000  Uiso   1.00
O1474  O     0.83334   0.87293   0.81427   0.00000  Uiso   1.00
O1475  O     0.83333   0.79374   0.68573   0.00000  Uiso   1.00
O1476  O     0.70754   0.74811   0.74444   0.00000  Uiso   1.00
loop_
_geom_bond_atom_site_label_1
_geom_bond_atom_site_label_2
_geom_bond_distance
_geom_bond_site_symmetry_2
_ccdc_geom_bond_type
C1     O77     1.294   .     A
C1     O71     1.294   .     A
C1     C19     1.465   .     S
C2     C18     1.412   .     A
C2     O72     1.383   .     S
C2     C86     1.393   .     S
C3     C18     1.410   .     A
C3     O73     1.383   .     S
C3     C116    1.393   .     S
C4     C19     1.412   .     A
C4     O74     1.383   .     S
C4     C166    1.393   1_455 S
C5     H64     1.083   .     S
C5     C16     1.404   .     A
C5     C9      1.390   .     A
C6     H65     1.083   .     S
C6     C17     1.404   .     A
C6     C10     1.390   .     A
C7     C11     1.390   .     A
C7     C17     1.404   .     A
C7     H66     1.083   .     S
C8     C13     1.390   .     A
C8     C16     1.404   .     A
C8     H67     1.083   .     S
C9     C14     1.402   .     A
C9     H68     1.084   .     S
C10    C15     1.402   .     A
C10    H38     1.083   .     S
C11    C15     1.402   .     A
C11    H39     1.084   .     S
C12    O76     1.294   .     A
C12    O75     1.294   .     A
C12    C18     1.465   .     S
C13    H40     1.083   .     S
C13    C14     1.402   .     A
C14    C23     1.459   .     S
C15    C29     1.459   .     S
C16    C755    1.470   1_554 S
C17    C754    1.470   .     S
C19    C34     1.410   .     A
C20    O82     1.415   .     S
C20    H41     1.112   .     S
C20    H42     1.117   .     S
C20    C21     1.518   .     S
C21    H45     1.105   .     S
C21    H44     1.110   .     S
C21    H535    1.105   1_545 S
C22    H47     1.114   .     S
C22    O72     1.415   .     S
C22    H46     1.115   .     S
C22    C24     1.521   .     S
C23    O81     1.294   .     A
C23    O78     1.293   .     A
C24    H51     1.107   .     S
C24    H50     1.110   .     S
C24    H295    1.109   .     S
C25    H53     1.117   .     S
C25    C26     1.518   .     S
C25    H52     1.112   .     S
C25    O73     1.415   .     S
C26    H55     1.110   .     S
C26    H56     1.105   .     S
C26    H546    1.106   1_545 S
C27    O74     1.415   .     S
C27    H57     1.115   .     S
C27    H58     1.113   .     S
C27    C28     1.521   .     S
C28    H61     1.107   .     S
C28    H60     1.110   .     S
C28    H308    1.109   .     S
C29    O79     1.294   .     A
C29    O80     1.293   .     A
C30    N70     1.366   .     A
C30    H37     1.081   .     S
C30    C525    1.415   1_545 S
C31    H48     1.081   .     S
C31    N69     1.367   .     A
C31    C278    1.415   .     S
C32    N70     1.366   .     A
C32    H59     1.081   .     S
C32    C523    1.415   1_545 S
C33    N69     1.367   .     A
C33    H63     1.081   .     S
C33    C276    1.415   .     S
C34    O82     1.383   .     S
C34    C167    1.393   1_455 S
Cu35   Cu36    2.678   .     S
Cu35   O80     1.956   .     S
Cu35   O71     1.985   .     S
Cu35   O76     1.985   .     S
Cu35   O78     1.956   .     S
Cu35   N69     2.012   .     S
Cu36   O77     1.985   .     S
Cu36   N70     2.012   .     S
Cu36   O79     1.956   .     S
Cu36   O75     1.985   .     S
Cu36   O81     1.956   .     S
H43    C267    1.105   .     S
H49    C516    1.109   1_545 S
H54    C272    1.106   .     S
H62    C520    1.109   1_545 S
C83    O159    1.294   .     A
C83    O153    1.294   .     A
C83    C101    1.465   .     S
C84    C100    1.412   .     A
C84    O154    1.383   .     S
C84    C168    1.393   .     S
C85    C100    1.410   .     A
C85    O155    1.383   .     S
C85    C198    1.393   .     S
C86    C101    1.412   .     A
C86    O156    1.383   .     S
C87    H146    1.083   .     S
C87    C98     1.404   .     A
C87    C91     1.390   .     A
C88    H147    1.083   .     S
C88    C99     1.404   .     A
C88    C92     1.390   .     A
C89    C93     1.390   .     A
C89    C99     1.404   .     A
C89    H148    1.083   .     S
C90    C95     1.390   .     A
C90    C98     1.404   .     A
C90    H149    1.083   .     S
C91    C96     1.402   .     A
C91    H150    1.084   .     S
C92    C97     1.402   .     A
C92    H120    1.083   .     S
C93    C97     1.402   .     A
C93    H121    1.084   .     S
C94    O158    1.294   .     A
C94    O157    1.294   .     A
C94    C100    1.465   .     S
C95    H122    1.083   .     S
C95    C96     1.402   .     A
C96    C105    1.459   .     S
C97    C111    1.459   .     S
C98    C837    1.470   1_554 S
C99    C836    1.470   .     S
C101   C116    1.410   .     A
C102   O164    1.415   .     S
C102   H123    1.112   .     S
C102   H124    1.117   .     S
C102   C103    1.518   .     S
C103   H127    1.105   .     S
C103   H126    1.110   .     S
C103   H617    1.105   1_545 S
C104   H129    1.114   .     S
C104   O154    1.415   .     S
C104   H128    1.115   .     S
C104   C106    1.521   .     S
C105   O163    1.294   .     A
C105   O160    1.293   .     A
C106   H133    1.107   .     S
C106   H132    1.110   .     S
C106   H377    1.109   .     S
C107   H135    1.117   .     S
C107   C108    1.518   .     S
C107   H134    1.112   .     S
C107   O155    1.415   .     S
C108   H137    1.110   .     S
C108   H138    1.105   .     S
C108   H628    1.106   1_545 S
C109   O156    1.415   .     S
C109   H139    1.115   .     S
C109   H140    1.113   .     S
C109   C110    1.521   .     S
C110   H143    1.107   .     S
C110   H142    1.110   .     S
C110   H390    1.109   .     S
C111   O161    1.294   .     A
C111   O162    1.293   .     A
C112   N152    1.366   .     A
C112   H119    1.081   .     S
C112   C607    1.415   1_545 S
C113   H130    1.081   .     S
C113   N151    1.367   .     A
C113   C360    1.415   .     S
C114   N152    1.366   .     A
C114   H141    1.081   .     S
C114   C605    1.415   1_545 S
C115   N151    1.367   .     A
C115   H145    1.081   .     S
C115   C358    1.415   .     S
C116   O164    1.383   .     S
Cu117  Cu118   2.678   .     S
Cu117  O162    1.956   .     S
Cu117  O153    1.985   .     S
Cu117  O158    1.985   .     S
Cu117  O160    1.956   .     S
Cu117  N151    2.012   .     S
Cu118  O159    1.985   .     S
Cu118  N152    2.012   .     S
Cu118  O161    1.956   .     S
Cu118  O157    1.985   .     S
Cu118  O163    1.956   .     S
H125   C349    1.105   .     S
H131   C598    1.109   1_545 S
H136   C354    1.106   .     S
H144   C602    1.109   1_545 S
C165   O241    1.294   .     A
C165   O235    1.294   .     A
C165   C183    1.465   .     S
C166   C182    1.412   .     A
C166   O236    1.383   .     S
C166   C4      1.393   1_655 S
C167   C182    1.410   .     A
C167   O237    1.383   .     S
C167   C34     1.393   1_655 S
C168   C183    1.412   .     A
C168   O238    1.383   .     S
C169   H228    1.083   .     S
C169   C180    1.404   .     A
C169   C173    1.390   .     A
C170   H229    1.083   .     S
C170   C181    1.404   .     A
C170   C174    1.390   .     A
C171   C175    1.390   .     A
C171   C181    1.404   .     A
C171   H230    1.083   .     S
C172   C177    1.390   .     A
C172   C180    1.404   .     A
C172   H231    1.083   .     S
C173   C178    1.402   .     A
C173   H232    1.084   .     S
C174   C179    1.402   .     A
C174   H202    1.083   .     S
C175   C179    1.402   .     A
C175   H203    1.084   .     S
C176   O240    1.294   .     A
C176   O239    1.294   .     A
C176   C182    1.465   .     S
C177   H204    1.083   .     S
C177   C178    1.402   .     A
C178   C187    1.459   .     S
C179   C193    1.459   .     S
C180   C919    1.470   1_554 S
C181   C918    1.470   .     S
C183   C198    1.410   .     A
C184   O246    1.415   .     S
C184   H205    1.112   .     S
C184   H206    1.117   .     S
C184   C185    1.518   .     S
C185   H209    1.105   .     S
C185   H208    1.110   .     S
C185   H699    1.105   1_545 S
C186   H211    1.114   .     S
C186   O236    1.415   .     S
C186   H210    1.115   .     S
C186   C188    1.521   .     S
C187   O245    1.294   .     A
C187   O242    1.293   .     A
C188   H215    1.107   .     S
C188   H214    1.110   .     S
C188   H459    1.109   .     S
C189   H217    1.117   .     S
C189   C190    1.518   .     S
C189   H216    1.112   .     S
C189   O237    1.415   .     S
C190   H219    1.110   .     S
C190   H220    1.105   .     S
C190   H710    1.106   1_545 S
C191   O238    1.415   .     S
C191   H221    1.115   .     S
C191   H222    1.113   .     S
C191   C192    1.521   .     S
C192   H225    1.107   .     S
C192   H224    1.110   .     S
C192   H472    1.109   .     S
C193   O243    1.294   .     A
C193   O244    1.293   .     A
C194   N234    1.366   .     A
C194   H201    1.081   .     S
C194   C689    1.415   1_545 S
C195   H212    1.081   .     S
C195   N233    1.367   .     A
C195   C442    1.415   .     S
C196   N234    1.366   .     A
C196   H223    1.081   .     S
C196   C687    1.415   1_545 S
C197   N233    1.367   .     A
C197   H227    1.081   .     S
C197   C440    1.415   .     S
C198   O246    1.383   .     S
Cu199  Cu200   2.678   .     S
Cu199  O244    1.956   .     S
Cu199  O235    1.985   .     S
Cu199  O240    1.985   .     S
Cu199  O242    1.956   .     S
Cu199  N233    2.012   .     S
Cu200  O241    1.985   .     S
Cu200  N234    2.012   .     S
Cu200  O243    1.956   .     S
Cu200  O239    1.985   .     S
Cu200  O245    1.956   .     S
H207   C431    1.105   .     S
H213   C680    1.109   1_545 S
H218   C436    1.106   .     S
H226   C684    1.109   1_545 S
C247   O323    1.294   .     A
C247   O317    1.294   .     A
C247   C265    1.465   .     S
C248   C264    1.412   .     A
C248   O318    1.383   .     S
C248   C332    1.393   .     S
C249   C264    1.410   .     A
C249   O319    1.383   .     S
C249   C362    1.393   .     S
C250   C265    1.412   .     A
C250   O320    1.383   .     S
C250   C412    1.393   1_455 S
C251   H310    1.083   .     S
C251   C262    1.404   .     A
C251   C255    1.390   .     A
C252   H311    1.083   .     S
C252   C263    1.404   .     A
C252   C256    1.390   .     A
C253   C257    1.390   .     A
C253   C263    1.404   .     A
C253   H312    1.083   .     S
C254   C259    1.390   .     A
C254   C262    1.404   .     A
C254   H313    1.083   .     S
C255   C260    1.402   .     A
C255   H314    1.084   .     S
C256   C261    1.402   .     A
C256   H284    1.083   .     S
C257   C261    1.402   .     A
C257   H285    1.084   .     S
C258   O322    1.294   .     A
C258   O321    1.294   .     A
C258   C264    1.465   .     S
C259   H286    1.083   .     S
C259   C260    1.402   .     A
C260   C269    1.459   .     S
C261   C275    1.459   .     S
C262   C1001   1.470   1_554 S
C263   C1000   1.470   .     S
C265   C280    1.410   .     A
C266   O328    1.415   .     S
C266   H287    1.112   .     S
C266   H288    1.117   .     S
C266   C267    1.518   .     S
C267   H291    1.105   .     S
C267   H290    1.110   .     S
C268   H293    1.114   .     S
C268   O318    1.415   .     S
C268   H292    1.115   .     S
C268   C270    1.521   .     S
C269   O327    1.294   .     A
C269   O324    1.293   .     A
C270   H297    1.107   .     S
C270   H296    1.110   .     S
C270   H541    1.109   .     S
C271   H299    1.117   .     S
C271   C272    1.518   .     S
C271   H298    1.112   .     S
C271   O319    1.415   .     S
C272   H301    1.110   .     S
C272   H302    1.105   .     S
C273   O320    1.415   .     S
C273   H303    1.115   .     S
C273   H304    1.113   .     S
C273   C274    1.521   .     S
C274   H307    1.107   .     S
C274   H306    1.110   .     S
C274   H554    1.109   .     S
C275   O325    1.294   .     A
C275   O326    1.293   .     A
C276   N316    1.366   .     A
C276   H283    1.081   .     S
C277   H294    1.081   .     S
C277   N315    1.367   .     A
C277   C524    1.415   .     S
C278   N316    1.366   .     A
C278   H305    1.081   .     S
C279   N315    1.367   .     A
C279   H309    1.081   .     S
C279   C522    1.415   .     S
C280   O328    1.383   .     S
C280   C413    1.393   1_455 S
Cu281  Cu282   2.678   .     S
Cu281  O326    1.956   .     S
Cu281  O317    1.985   .     S
Cu281  O322    1.985   .     S
Cu281  O324    1.956   .     S
Cu281  N315    2.012   .     S
Cu282  O323    1.985   .     S
Cu282  N316    2.012   .     S
Cu282  O325    1.956   .     S
Cu282  O321    1.985   .     S
Cu282  O327    1.956   .     S
H289   C513    1.105   .     S
H300   C518    1.106   .     S
C329   O405    1.294   .     A
C329   O399    1.294   .     A
C329   C347    1.465   .     S
C330   C346    1.412   .     A
C330   O400    1.383   .     S
C330   C414    1.393   .     S
C331   C346    1.410   .     A
C331   O401    1.383   .     S
C331   C444    1.393   .     S
C332   C347    1.412   .     A
C332   O402    1.383   .     S
C333   H392    1.083   .     S
C333   C344    1.404   .     A
C333   C337    1.390   .     A
C334   H393    1.083   .     S
C334   C345    1.404   .     A
C334   C338    1.390   .     A
C335   C339    1.390   .     A
C335   C345    1.404   .     A
C335   H394    1.083   .     S
C336   C341    1.390   .     A
C336   C344    1.404   .     A
C336   H395    1.083   .     S
C337   C342    1.402   .     A
C337   H396    1.084   .     S
C338   C343    1.402   .     A
C338   H366    1.083   .     S
C339   C343    1.402   .     A
C339   H367    1.084   .     S
C340   O404    1.294   .     A
C340   O403    1.294   .     A
C340   C346    1.465   .     S
C341   H368    1.083   .     S
C341   C342    1.402   .     A
C342   C351    1.459   .     S
C343   C357    1.459   .     S
C344   C1083   1.470   1_554 S
C345   C1082   1.470   .     S
C347   C362    1.410   .     A
C348   O410    1.415   .     S
C348   H369    1.112   .     S
C348   H370    1.117   .     S
C348   C349    1.518   .     S
C349   H373    1.105   .     S
C349   H372    1.110   .     S
C350   H375    1.114   .     S
C350   O400    1.415   .     S
C350   H374    1.115   .     S
C350   C352    1.521   .     S
C351   O409    1.294   .     A
C351   O406    1.293   .     A
C352   H379    1.107   .     S
C352   H378    1.110   .     S
C352   H623    1.109   .     S
C353   H381    1.117   .     S
C353   C354    1.518   .     S
C353   H380    1.112   .     S
C353   O401    1.415   .     S
C354   H383    1.110   .     S
C354   H384    1.105   .     S
C355   O402    1.415   .     S
C355   H385    1.115   .     S
C355   H386    1.113   .     S
C355   C356    1.521   .     S
C356   H389    1.107   .     S
C356   H388    1.110   .     S
C356   H636    1.109   .     S
C357   O407    1.294   .     A
C357   O408    1.293   .     A
C358   N398    1.366   .     A
C358   H365    1.081   .     S
C359   H376    1.081   .     S
C359   N397    1.367   .     A
C359   C606    1.415   .     S
C360   N398    1.366   .     A
C360   H387    1.081   .     S
C361   N397    1.367   .     A
C361   H391    1.081   .     S
C361   C604    1.415   .     S
C362   O410    1.383   .     S
Cu363  Cu364   2.678   .     S
Cu363  O408    1.956   .     S
Cu363  O399    1.985   .     S
Cu363  O404    1.985   .     S
Cu363  O406    1.956   .     S
Cu363  N397    2.012   .     S
Cu364  O405    1.985   .     S
Cu364  N398    2.012   .     S
Cu364  O407    1.956   .     S
Cu364  O403    1.985   .     S
Cu364  O409    1.956   .     S
H371   C595    1.105   .     S
H382   C600    1.106   .     S
C411   O487    1.294   .     A
C411   O481    1.294   .     A
C411   C429    1.465   .     S
C412   C428    1.412   .     A
C412   O482    1.383   .     S
C412   C250    1.393   1_655 S
C413   C428    1.410   .     A
C413   O483    1.383   .     S
C413   C280    1.393   1_655 S
C414   C429    1.412   .     A
C414   O484    1.383   .     S
C415   H474    1.083   .     S
C415   C426    1.404   .     A
C415   C419    1.390   .     A
C416   H475    1.083   .     S
C416   C427    1.404   .     A
C416   C420    1.390   .     A
C417   C421    1.390   .     A
C417   C427    1.404   .     A
C417   H476    1.083   .     S
C418   C423    1.390   .     A
C418   C426    1.404   .     A
C418   H477    1.083   .     S
C419   C424    1.402   .     A
C419   H478    1.084   .     S
C420   C425    1.402   .     A
C420   H448    1.083   .     S
C421   C425    1.402   .     A
C421   H449    1.084   .     S
C422   O486    1.294   .     A
C422   O485    1.294   .     A
C422   C428    1.465   .     S
C423   H450    1.083   .     S
C423   C424    1.402   .     A
C424   C433    1.459   .     S
C425   C439    1.459   .     S
C426   C1165   1.470   1_554 S
C427   C1164   1.470   .     S
C429   C444    1.410   .     A
C430   O492    1.415   .     S
C430   H451    1.112   .     S
C430   H452    1.117   .     S
C430   C431    1.518   .     S
C431   H455    1.105   .     S
C431   H454    1.110   .     S
C432   H457    1.114   .     S
C432   O482    1.415   .     S
C432   H456    1.115   .     S
C432   C434    1.521   .     S
C433   O491    1.294   .     A
C433   O488    1.293   .     A
C434   H461    1.107   .     S
C434   H460    1.110   .     S
C434   H705    1.109   .     S
C435   H463    1.117   .     S
C435   C436    1.518   .     S
C435   H462    1.112   .     S
C435   O483    1.415   .     S
C436   H465    1.110   .     S
C436   H466    1.105   .     S
C437   O484    1.415   .     S
C437   H467    1.115   .     S
C437   H468    1.113   .     S
C437   C438    1.521   .     S
C438   H471    1.107   .     S
C438   H470    1.110   .     S
C438   H718    1.109   .     S
C439   O489    1.294   .     A
C439   O490    1.293   .     A
C440   N480    1.366   .     A
C440   H447    1.081   .     S
C441   H458    1.081   .     S
C441   N479    1.367   .     A
C441   C688    1.415   .     S
C442   N480    1.366   .     A
C442   H469    1.081   .     S
C443   N479    1.367   .     A
C443   H473    1.081   .     S
C443   C686    1.415   .     S
C444   O492    1.383   .     S
Cu445  Cu446   2.678   .     S
Cu445  O490    1.956   .     S
Cu445  O481    1.985   .     S
Cu445  O486    1.985   .     S
Cu445  O488    1.956   .     S
Cu445  N479    2.012   .     S
Cu446  O487    1.985   .     S
Cu446  N480    2.012   .     S
Cu446  O489    1.956   .     S
Cu446  O485    1.985   .     S
Cu446  O491    1.956   .     S
H453   C677    1.105   .     S
H464   C682    1.106   .     S
C493   O569    1.294   .     A
C493   O563    1.294   .     A
C493   C511    1.465   .     S
C494   C510    1.412   .     A
C494   O564    1.383   .     S
C494   C578    1.393   .     S
C495   C510    1.410   .     A
C495   O565    1.383   .     S
C495   C608    1.393   .     S
C496   C511    1.412   .     A
C496   O566    1.383   .     S
C496   C658    1.393   1_455 S
C497   H556    1.083   .     S
C497   C508    1.404   .     A
C497   C501    1.390   .     A
C498   H557    1.083   .     S
C498   C509    1.404   .     A
C498   C502    1.390   .     A
C499   C503    1.390   .     A
C499   C509    1.404   .     A
C499   H558    1.083   .     S
C500   C505    1.390   .     A
C500   C508    1.404   .     A
C500   H559    1.083   .     S
C501   C506    1.402   .     A
C501   H560    1.084   .     S
C502   C507    1.402   .     A
C502   H530    1.083   .     S
C503   C507    1.402   .     A
C503   H531    1.084   .     S
C504   O568    1.294   .     A
C504   O567    1.294   .     A
C504   C510    1.465   .     S
C505   H532    1.083   .     S
C505   C506    1.402   .     A
C506   C515    1.459   .     S
C507   C521    1.459   .     S
C508   C1247   1.470   1_554 S
C509   C1246   1.470   .     S
C511   C526    1.410   .     A
C512   O574    1.415   .     S
C512   H533    1.112   .     S
C512   H534    1.117   .     S
C512   C513    1.518   .     S
C513   H537    1.105   .     S
C513   H536    1.110   .     S
C514   H539    1.114   .     S
C514   O564    1.415   .     S
C514   H538    1.115   .     S
C514   C516    1.521   .     S
C515   O573    1.294   .     A
C515   O570    1.293   .     A
C516   H543    1.107   .     S
C516   H542    1.110   .     S
C516   H49     1.109   1_565 S
C517   H545    1.117   .     S
C517   C518    1.518   .     S
C517   H544    1.112   .     S
C517   O565    1.415   .     S
C518   H547    1.110   .     S
C518   H548    1.105   .     S
C519   O566    1.415   .     S
C519   H549    1.115   .     S
C519   H550    1.113   .     S
C519   C520    1.521   .     S
C520   H553    1.107   .     S
C520   H552    1.110   .     S
C520   H62     1.109   1_565 S
C521   O571    1.294   .     A
C521   O572    1.293   .     A
C522   N562    1.366   .     A
C522   H529    1.081   .     S
C523   H540    1.081   .     S
C523   N561    1.367   .     A
C523   C32     1.415   1_565 S
C524   N562    1.366   .     A
C524   H551    1.081   .     S
C525   N561    1.367   .     A
C525   H555    1.081   .     S
C525   C30     1.415   1_565 S
C526   O574    1.383   .     S
C526   C659    1.393   1_455 S
Cu527  Cu528   2.678   .     S
Cu527  O572    1.956   .     S
Cu527  O563    1.985   .     S
Cu527  O568    1.985   .     S
Cu527  O570    1.956   .     S
Cu527  N561    2.012   .     S
Cu528  O569    1.985   .     S
Cu528  N562    2.012   .     S
Cu528  O571    1.956   .     S
Cu528  O567    1.985   .     S
Cu528  O573    1.956   .     S
H535   C21     1.105   1_565 S
H546   C26     1.106   1_565 S
C575   O651    1.294   .     A
C575   O645    1.294   .     A
C575   C593    1.465   .     S
C576   C592    1.412   .     A
C576   O646    1.383   .     S
C576   C660    1.393   .     S
C577   C592    1.410   .     A
C577   O647    1.383   .     S
C577   C690    1.393   .     S
C578   C593    1.412   .     A
C578   O648    1.383   .     S
C579   H638    1.083   .     S
C579   C590    1.404   .     A
C579   C583    1.390   .     A
C580   H639    1.083   .     S
C580   C591    1.404   .     A
C580   C584    1.390   .     A
C581   C585    1.390   .     A
C581   C591    1.404   .     A
C581   H640    1.083   .     S
C582   C587    1.390   .     A
C582   C590    1.404   .     A
C582   H641    1.083   .     S
C583   C588    1.402   .     A
C583   H642    1.084   .     S
C584   C589    1.402   .     A
C584   H612    1.083   .     S
C585   C589    1.402   .     A
C585   H613    1.084   .     S
C586   O650    1.294   .     A
C586   O649    1.294   .     A
C586   C592    1.465   .     S
C587   H614    1.083   .     S
C587   C588    1.402   .     A
C588   C597    1.459   .     S
C589   C603    1.459   .     S
C590   C1329   1.470   1_554 S
C591   C1328   1.470   .     S
C593   C608    1.410   .     A
C594   O656    1.415   .     S
C594   H615    1.112   .     S
C594   H616    1.117   .     S
C594   C595    1.518   .     S
C595   H619    1.105   .     S
C595   H618    1.110   .     S
C596   H621    1.114   .     S
C596   O646    1.415   .     S
C596   H620    1.115   .     S
C596   C598    1.521   .     S
C597   O655    1.294   .     A
C597   O652    1.293   .     A
C598   H625    1.107   .     S
C598   H624    1.110   .     S
C598   H131    1.109   1_565 S
C599   H627    1.117   .     S
C599   C600    1.518   .     S
C599   H626    1.112   .     S
C599   O647    1.415   .     S
C600   H629    1.110   .     S
C600   H630    1.105   .     S
C601   O648    1.415   .     S
C601   H631    1.115   .     S
C601   H632    1.113   .     S
C601   C602    1.521   .     S
C602   H635    1.107   .     S
C602   H634    1.110   .     S
C602   H144    1.109   1_565 S
C603   O653    1.294   .     A
C603   O654    1.293   .     A
C604   N644    1.366   .     A
C604   H611    1.081   .     S
C605   H622    1.081   .     S
C605   N643    1.367   .     A
C605   C114    1.415   1_565 S
C606   N644    1.366   .     A
C606   H633    1.081   .     S
C607   N643    1.367   .     A
C607   H637    1.081   .     S
C607   C112    1.415   1_565 S
C608   O656    1.383   .     S
Cu609  Cu610   2.678   .     S
Cu609  O654    1.956   .     S
Cu609  O645    1.985   .     S
Cu609  O650    1.985   .     S
Cu609  O652    1.956   .     S
Cu609  N643    2.012   .     S
Cu610  O651    1.985   .     S
Cu610  N644    2.012   .     S
Cu610  O653    1.956   .     S
Cu610  O649    1.985   .     S
Cu610  O655    1.956   .     S
H617   C103    1.105   1_565 S
H628   C108    1.106   1_565 S
C657   O733    1.294   .     A
C657   O727    1.294   .     A
C657   C675    1.465   .     S
C658   C674    1.412   .     A
C658   O728    1.383   .     S
C658   C496    1.393   1_655 S
C659   C674    1.410   .     A
C659   O729    1.383   .     S
C659   C526    1.393   1_655 S
C660   C675    1.412   .     A
C660   O730    1.383   .     S
C661   H720    1.083   .     S
C661   C672    1.404   .     A
C661   C665    1.390   .     A
C662   H721    1.083   .     S
C662   C673    1.404   .     A
C662   C666    1.390   .     A
C663   C667    1.390   .     A
C663   C673    1.404   .     A
C663   H722    1.083   .     S
C664   C669    1.390   .     A
C664   C672    1.404   .     A
C664   H723    1.083   .     S
C665   C670    1.402   .     A
C665   H724    1.084   .     S
C666   C671    1.402   .     A
C666   H694    1.083   .     S
C667   C671    1.402   .     A
C667   H695    1.084   .     S
C668   O732    1.294   .     A
C668   O731    1.294   .     A
C668   C674    1.465   .     S
C669   H696    1.083   .     S
C669   C670    1.402   .     A
C670   C679    1.459   .     S
C671   C685    1.459   .     S
C672   C1411   1.470   1_554 S
C673   C1410   1.470   .     S
C675   C690    1.410   .     A
C676   O738    1.415   .     S
C676   H697    1.112   .     S
C676   H698    1.117   .     S
C676   C677    1.518   .     S
C677   H701    1.105   .     S
C677   H700    1.110   .     S
C678   H703    1.114   .     S
C678   O728    1.415   .     S
C678   H702    1.115   .     S
C678   C680    1.521   .     S
C679   O737    1.294   .     A
C679   O734    1.293   .     A
C680   H707    1.107   .     S
C680   H706    1.110   .     S
C680   H213    1.109   1_565 S
C681   H709    1.117   .     S
C681   C682    1.518   .     S
C681   H708    1.112   .     S
C681   O729    1.415   .     S
C682   H711    1.110   .     S
C682   H712    1.105   .     S
C683   O730    1.415   .     S
C683   H713    1.115   .     S
C683   H714    1.113   .     S
C683   C684    1.521   .     S
C684   H717    1.107   .     S
C684   H716    1.110   .     S
C684   H226    1.109   1_565 S
C685   O735    1.294   .     A
C685   O736    1.293   .     A
C686   N726    1.366   .     A
C686   H693    1.081   .     S
C687   H704    1.081   .     S
C687   N725    1.367   .     A
C687   C196    1.415   1_565 S
C688   N726    1.366   .     A
C688   H715    1.081   .     S
C689   N725    1.367   .     A
C689   H719    1.081   .     S
C689   C194    1.415   1_565 S
C690   O738    1.383   .     S
Cu691  Cu692   2.678   .     S
Cu691  O736    1.956   .     S
Cu691  O727    1.985   .     S
Cu691  O732    1.985   .     S
Cu691  O734    1.956   .     S
Cu691  N725    2.012   .     S
Cu692  O733    1.985   .     S
Cu692  N726    2.012   .     S
Cu692  O735    1.956   .     S
Cu692  O731    1.985   .     S
Cu692  O737    1.956   .     S
H699   C185    1.105   1_565 S
H710   C190    1.106   1_565 S
C739   O815    1.294   .     A
C739   O809    1.294   .     A
C739   C757    1.465   .     S
C740   C756    1.412   .     A
C740   O810    1.383   .     S
C740   C824    1.393   .     S
C741   C756    1.410   .     A
C741   O811    1.383   .     S
C741   C854    1.393   .     S
C742   C757    1.412   .     A
C742   O812    1.383   .     S
C742   C904    1.393   1_455 S
C743   H802    1.083   .     S
C743   C754    1.404   .     A
C743   C747    1.390   .     A
C744   H803    1.083   .     S
C744   C755    1.404   .     A
C744   C748    1.390   .     A
C745   C749    1.390   .     A
C745   C755    1.404   .     A
C745   H804    1.083   .     S
C746   C751    1.390   .     A
C746   C754    1.404   .     A
C746   H805    1.083   .     S
C747   C752    1.402   .     A
C747   H806    1.084   .     S
C748   C753    1.402   .     A
C748   H776    1.083   .     S
C749   C753    1.402   .     A
C749   H777    1.084   .     S
C750   O814    1.294   .     A
C750   O813    1.294   .     A
C750   C756    1.465   .     S
C751   H778    1.083   .     S
C751   C752    1.402   .     A
C752   C761    1.459   .     S
C753   C767    1.459   .     S
C755   C16     1.470   1_556 S
C757   C772    1.410   .     A
C758   O820    1.415   .     S
C758   H779    1.112   .     S
C758   H780    1.117   .     S
C758   C759    1.518   .     S
C759   H783    1.105   .     S
C759   H782    1.110   .     S
C759   H1273   1.105   1_545 S
C760   H785    1.114   .     S
C760   O810    1.415   .     S
C760   H784    1.115   .     S
C760   C762    1.521   .     S
C761   O819    1.294   .     A
C761   O816    1.293   .     A
C762   H789    1.107   .     S
C762   H788    1.110   .     S
C762   H1033   1.109   .     S
C763   H791    1.117   .     S
C763   C764    1.518   .     S
C763   H790    1.112   .     S
C763   O811    1.415   .     S
C764   H793    1.110   .     S
C764   H794    1.105   .     S
C764   H1284   1.106   1_545 S
C765   O812    1.415   .     S
C765   H795    1.115   .     S
C765   H796    1.113   .     S
C765   C766    1.521   .     S
C766   H799    1.107   .     S
C766   H798    1.110   .     S
C766   H1046   1.109   .     S
C767   O817    1.294   .     A
C767   O818    1.293   .     A
C768   N808    1.366   .     A
C768   H775    1.081   .     S
C768   C1263   1.415   1_545 S
C769   H786    1.081   .     S
C769   N807    1.367   .     A
C769   C1016   1.415   .     S
C770   N808    1.366   .     A
C770   H797    1.081   .     S
C770   C1261   1.415   1_545 S
C771   N807    1.367   .     A
C771   H801    1.081   .     S
C771   C1014   1.415   .     S
C772   O820    1.383   .     S
C772   C905    1.393   1_455 S
Cu773  Cu774   2.678   .     S
Cu773  O818    1.956   .     S
Cu773  O809    1.985   .     S
Cu773  O814    1.985   .     S
Cu773  O816    1.956   .     S
Cu773  N807    2.012   .     S
Cu774  O815    1.985   .     S
Cu774  N808    2.012   .     S
Cu774  O817    1.956   .     S
Cu774  O813    1.985   .     S
Cu774  O819    1.956   .     S
H781   C1005   1.105   .     S
H787   C1254   1.109   1_545 S
H792   C1010   1.106   .     S
H800   C1258   1.109   1_545 S
C821   O897    1.294   .     A
C821   O891    1.294   .     A
C821   C839    1.465   .     S
C822   C838    1.412   .     A
C822   O892    1.383   .     S
C822   C906    1.393   .     S
C823   C838    1.410   .     A
C823   O893    1.383   .     S
C823   C936    1.393   .     S
C824   C839    1.412   .     A
C824   O894    1.383   .     S
C825   H884    1.083   .     S
C825   C836    1.404   .     A
C825   C829    1.390   .     A
C826   H885    1.083   .     S
C826   C837    1.404   .     A
C826   C830    1.390   .     A
C827   C831    1.390   .     A
C827   C837    1.404   .     A
C827   H886    1.083   .     S
C828   C833    1.390   .     A
C828   C836    1.404   .     A
C828   H887    1.083   .     S
C829   C834    1.402   .     A
C829   H888    1.084   .     S
C830   C835    1.402   .     A
C830   H858    1.083   .     S
C831   C835    1.402   .     A
C831   H859    1.084   .     S
C832   O896    1.294   .     A
C832   O895    1.294   .     A
C832   C838    1.465   .     S
C833   H860    1.083   .     S
C833   C834    1.402   .     A
C834   C843    1.459   .     S
C835   C849    1.459   .     S
C837   C98     1.470   1_556 S
C839   C854    1.410   .     A
C840   O902    1.415   .     S
C840   H861    1.112   .     S
C840   H862    1.117   .     S
C840   C841    1.518   .     S
C841   H865    1.105   .     S
C841   H864    1.110   .     S
C841   H1355   1.105   1_545 S
C842   H867    1.114   .     S
C842   O892    1.415   .     S
C842   H866    1.115   .     S
C842   C844    1.521   .     S
C843   O901    1.294   .     A
C843   O898    1.293   .     A
C844   H871    1.107   .     S
C844   H870    1.110   .     S
C844   H1115   1.109   .     S
C845   H873    1.117   .     S
C845   C846    1.518   .     S
C845   H872    1.112   .     S
C845   O893    1.415   .     S
C846   H875    1.110   .     S
C846   H876    1.105   .     S
C846   H1366   1.106   1_545 S
C847   O894    1.415   .     S
C847   H877    1.115   .     S
C847   H878    1.113   .     S
C847   C848    1.521   .     S
C848   H881    1.107   .     S
C848   H880    1.110   .     S
C848   H1128   1.109   .     S
C849   O899    1.294   .     A
C849   O900    1.293   .     A
C850   N890    1.366   .     A
C850   H857    1.081   .     S
C850   C1345   1.415   1_545 S
C851   H868    1.081   .     S
C851   N889    1.367   .     A
C851   C1098   1.415   .     S
C852   N890    1.366   .     A
C852   H879    1.081   .     S
C852   C1343   1.415   1_545 S
C853   N889    1.367   .     A
C853   H883    1.081   .     S
C853   C1096   1.415   .     S
C854   O902    1.383   .     S
Cu855  Cu856   2.678   .     S
Cu855  O900    1.956   .     S
Cu855  O891    1.985   .     S
Cu855  O896    1.985   .     S
Cu855  O898    1.956   .     S
Cu855  N889    2.012   .     S
Cu856  O897    1.985   .     S
Cu856  N890    2.012   .     S
Cu856  O899    1.956   .     S
Cu856  O895    1.985   .     S
Cu856  O901    1.956   .     S
H863   C1087   1.105   .     S
H869   C1336   1.109   1_545 S
H874   C1092   1.106   .     S
H882   C1340   1.109   1_545 S
C903   O979    1.294   .     A
C903   O973    1.294   .     A
C903   C921    1.465   .     S
C904   C920    1.412   .     A
C904   O974    1.383   .     S
C904   C742    1.393   1_655 S
C905   C920    1.410   .     A
C905   O975    1.383   .     S
C905   C772    1.393   1_655 S
C906   C921    1.412   .     A
C906   O976    1.383   .     S
C907   H966    1.083   .     S
C907   C918    1.404   .     A
C907   C911    1.390   .     A
C908   H967    1.083   .     S
C908   C919    1.404   .     A
C908   C912    1.390   .     A
C909   C913    1.390   .     A
C909   C919    1.404   .     A
C909   H968    1.083   .     S
C910   C915    1.390   .     A
C910   C918    1.404   .     A
C910   H969    1.083   .     S
C911   C916    1.402   .     A
C911   H970    1.084   .     S
C912   C917    1.402   .     A
C912   H940    1.083   .     S
C913   C917    1.402   .     A
C913   H941    1.084   .     S
C914   O978    1.294   .     A
C914   O977    1.294   .     A
C914   C920    1.465   .     S
C915   H942    1.083   .     S
C915   C916    1.402   .     A
C916   C925    1.459   .     S
C917   C931    1.459   .     S
C919   C180    1.470   1_556 S
C921   C936    1.410   .     A
C922   O984    1.415   .     S
C922   H943    1.112   .     S
C922   H944    1.117   .     S
C922   C923    1.518   .     S
C923   H947    1.105   .     S
C923   H946    1.110   .     S
C923   H1437   1.105   1_545 S
C924   H949    1.114   .     S
C924   O974    1.415   .     S
C924   H948    1.115   .     S
C924   C926    1.521   .     S
C925   O983    1.294   .     A
C925   O980    1.293   .     A
C926   H953    1.107   .     S
C926   H952    1.110   .     S
C926   H1197   1.109   .     S
C927   H955    1.117   .     S
C927   C928    1.518   .     S
C927   H954    1.112   .     S
C927   O975    1.415   .     S
C928   H957    1.110   .     S
C928   H958    1.105   .     S
C928   H1448   1.106   1_545 S
C929   O976    1.415   .     S
C929   H959    1.115   .     S
C929   H960    1.113   .     S
C929   C930    1.521   .     S
C930   H963    1.107   .     S
C930   H962    1.110   .     S
C930   H1210   1.109   .     S
C931   O981    1.294   .     A
C931   O982    1.293   .     A
C932   N972    1.366   .     A
C932   H939    1.081   .     S
C932   C1427   1.415   1_545 S
C933   H950    1.081   .     S
C933   N971    1.367   .     A
C933   C1180   1.415   .     S
C934   N972    1.366   .     A
C934   H961    1.081   .     S
C934   C1425   1.415   1_545 S
C935   N971    1.367   .     A
C935   H965    1.081   .     S
C935   C1178   1.415   .     S
C936   O984    1.383   .     S
Cu937  Cu938   2.678   .     S
Cu937  O982    1.956   .     S
Cu937  O973    1.985   .     S
Cu937  O978    1.985   .     S
Cu937  O980    1.956   .     S
Cu937  N971    2.012   .     S
Cu938  O979    1.985   .     S
Cu938  N972    2.012   .     S
Cu938  O981    1.956   .     S
Cu938  O977    1.985   .     S
Cu938  O983    1.956   .     S
H945   C1169   1.105   .     S
H951   C1418   1.109   1_545 S
H956   C1174   1.106   .     S
H964   C1422   1.109   1_545 S
C985   O1061   1.294   .     A
C985   O1055   1.294   .     A
C985   C1003   1.465   .     S
C986   C1002   1.412   .     A
C986   O1056   1.383   .     S
C986   C1070   1.393   .     S
C987   C1002   1.410   .     A
C987   O1057   1.383   .     S
C987   C1100   1.393   .     S
C988   C1003   1.412   .     A
C988   O1058   1.383   .     S
C988   C1150   1.393   1_455 S
C989   H1048   1.083   .     S
C989   C1000   1.404   .     A
C989   C993    1.390   .     A
C990   H1049   1.083   .     S
C990   C1001   1.404   .     A
C990   C994    1.390   .     A
C991   C995    1.390   .     A
C991   C1001   1.404   .     A
C991   H1050   1.083   .     S
C992   C997    1.390   .     A
C992   C1000   1.404   .     A
C992   H1051   1.083   .     S
C993   C998    1.402   .     A
C993   H1052   1.084   .     S
C994   C999    1.402   .     A
C994   H1022   1.083   .     S
C995   C999    1.402   .     A
C995   H1023   1.084   .     S
C996   O1060   1.294   .     A
C996   O1059   1.294   .     A
C996   C1002   1.465   .     S
C997   H1024   1.083   .     S
C997   C998    1.402   .     A
C998   C1007   1.459   .     S
C999   C1013   1.459   .     S
C1001  C262    1.470   1_556 S
C1003  C1018   1.410   .     A
C1004  O1066   1.415   .     S
C1004  H1025   1.112   .     S
C1004  H1026   1.117   .     S
C1004  C1005   1.518   .     S
C1005  H1029   1.105   .     S
C1005  H1028   1.110   .     S
C1006  H1031   1.114   .     S
C1006  O1056   1.415   .     S
C1006  H1030   1.115   .     S
C1006  C1008   1.521   .     S
C1007  O1065   1.294   .     A
C1007  O1062   1.293   .     A
C1008  H1035   1.107   .     S
C1008  H1034   1.110   .     S
C1008  H1279   1.109   .     S
C1009  H1037   1.117   .     S
C1009  C1010   1.518   .     S
C1009  H1036   1.112   .     S
C1009  O1057   1.415   .     S
C1010  H1039   1.110   .     S
C1010  H1040   1.105   .     S
C1011  O1058   1.415   .     S
C1011  H1041   1.115   .     S
C1011  H1042   1.113   .     S
C1011  C1012   1.521   .     S
C1012  H1045   1.107   .     S
C1012  H1044   1.110   .     S
C1012  H1292   1.109   .     S
C1013  O1063   1.294   .     A
C1013  O1064   1.293   .     A
C1014  N1054   1.366   .     A
C1014  H1021   1.081   .     S
C1015  H1032   1.081   .     S
C1015  N1053   1.367   .     A
C1015  C1262   1.415   .     S
C1016  N1054   1.366   .     A
C1016  H1043   1.081   .     S
C1017  N1053   1.367   .     A
C1017  H1047   1.081   .     S
C1017  C1260   1.415   .     S
C1018  O1066   1.383   .     S
C1018  C1151   1.393   1_455 S
Cu1019 Cu1020  2.678   .     S
Cu1019 O1064   1.956   .     S
Cu1019 O1055   1.985   .     S
Cu1019 O1060   1.985   .     S
Cu1019 O1062   1.956   .     S
Cu1019 N1053   2.012   .     S
Cu1020 O1061   1.985   .     S
Cu1020 N1054   2.012   .     S
Cu1020 O1063   1.956   .     S
Cu1020 O1059   1.985   .     S
Cu1020 O1065   1.956   .     S
H1027  C1251   1.105   .     S
H1038  C1256   1.106   .     S
C1067  O1143   1.294   .     A
C1067  O1137   1.294   .     A
C1067  C1085   1.465   .     S
C1068  C1084   1.412   .     A
C1068  O1138   1.383   .     S
C1068  C1152   1.393   .     S
C1069  C1084   1.410   .     A
C1069  O1139   1.383   .     S
C1069  C1182   1.393   .     S
C1070  C1085   1.412   .     A
C1070  O1140   1.383   .     S
C1071  H1130   1.083   .     S
C1071  C1082   1.404   .     A
C1071  C1075   1.390   .     A
C1072  H1131   1.083   .     S
C1072  C1083   1.404   .     A
C1072  C1076   1.390   .     A
C1073  C1077   1.390   .     A
C1073  C1083   1.404   .     A
C1073  H1132   1.083   .     S
C1074  C1079   1.390   .     A
C1074  C1082   1.404   .     A
C1074  H1133   1.083   .     S
C1075  C1080   1.402   .     A
C1075  H1134   1.084   .     S
C1076  C1081   1.402   .     A
C1076  H1104   1.083   .     S
C1077  C1081   1.402   .     A
C1077  H1105   1.084   .     S
C1078  O1142   1.294   .     A
C1078  O1141   1.294   .     A
C1078  C1084   1.465   .     S
C1079  H1106   1.083   .     S
C1079  C1080   1.402   .     A
C1080  C1089   1.459   .     S
C1081  C1095   1.459   .     S
C1083  C344    1.470   1_556 S
C1085  C1100   1.410   .     A
C1086  O1148   1.415   .     S
C1086  H1107   1.112   .     S
C1086  H1108   1.117   .     S
C1086  C1087   1.518   .     S
C1087  H1111   1.105   .     S
C1087  H1110   1.110   .     S
C1088  H1113   1.114   .     S
C1088  O1138   1.415   .     S
C1088  H1112   1.115   .     S
C1088  C1090   1.521   .     S
C1089  O1147   1.294   .     A
C1089  O1144   1.293   .     A
C1090  H1117   1.107   .     S
C1090  H1116   1.110   .     S
C1090  H1361   1.109   .     S
C1091  H1119   1.117   .     S
C1091  C1092   1.518   .     S
C1091  H1118   1.112   .     S
C1091  O1139   1.415   .     S
C1092  H1121   1.110   .     S
C1092  H1122   1.105   .     S
C1093  O1140   1.415   .     S
C1093  H1123   1.115   .     S
C1093  H1124   1.113   .     S
C1093  C1094   1.521   .     S
C1094  H1127   1.107   .     S
C1094  H1126   1.110   .     S
C1094  H1374   1.109   .     S
C1095  O1145   1.294   .     A
C1095  O1146   1.293   .     A
C1096  N1136   1.366   .     A
C1096  H1103   1.081   .     S
C1097  H1114   1.081   .     S
C1097  N1135   1.367   .     A
C1097  C1344   1.415   .     S
C1098  N1136   1.366   .     A
C1098  H1125   1.081   .     S
C1099  N1135   1.367   .     A
C1099  H1129   1.081   .     S
C1099  C1342   1.415   .     S
C1100  O1148   1.383   .     S
Cu1101 Cu1102  2.678   .     S
Cu1101 O1146   1.956   .     S
Cu1101 O1137   1.985   .     S
Cu1101 O1142   1.985   .     S
Cu1101 O1144   1.956   .     S
Cu1101 N1135   2.012   .     S
Cu1102 O1143   1.985   .     S
Cu1102 N1136   2.012   .     S
Cu1102 O1145   1.956   .     S
Cu1102 O1141   1.985   .     S
Cu1102 O1147   1.956   .     S
H1109  C1333   1.105   .     S
H1120  C1338   1.106   .     S
C1149  O1225   1.294   .     A
C1149  O1219   1.294   .     A
C1149  C1167   1.465   .     S
C1150  C1166   1.412   .     A
C1150  O1220   1.383   .     S
C1150  C988    1.393   1_655 S
C1151  C1166   1.410   .     A
C1151  O1221   1.383   .     S
C1151  C1018   1.393   1_655 S
C1152  C1167   1.412   .     A
C1152  O1222   1.383   .     S
C1153  H1212   1.083   .     S
C1153  C1164   1.404   .     A
C1153  C1157   1.390   .     A
C1154  H1213   1.083   .     S
C1154  C1165   1.404   .     A
C1154  C1158   1.390   .     A
C1155  C1159   1.390   .     A
C1155  C1165   1.404   .     A
C1155  H1214   1.083   .     S
C1156  C1161   1.390   .     A
C1156  C1164   1.404   .     A
C1156  H1215   1.083   .     S
C1157  C1162   1.402   .     A
C1157  H1216   1.084   .     S
C1158  C1163   1.402   .     A
C1158  H1186   1.083   .     S
C1159  C1163   1.402   .     A
C1159  H1187   1.084   .     S
C1160  O1224   1.294   .     A
C1160  O1223   1.294   .     A
C1160  C1166   1.465   .     S
C1161  H1188   1.083   .     S
C1161  C1162   1.402   .     A
C1162  C1171   1.459   .     S
C1163  C1177   1.459   .     S
C1165  C426    1.470   1_556 S
C1167  C1182   1.410   .     A
C1168  O1230   1.415   .     S
C1168  H1189   1.112   .     S
C1168  H1190   1.117   .     S
C1168  C1169   1.518   .     S
C1169  H1193   1.105   .     S
C1169  H1192   1.110   .     S
C1170  H1195   1.114   .     S
C1170  O1220   1.415   .     S
C1170  H1194   1.115   .     S
C1170  C1172   1.521   .     S
C1171  O1229   1.294   .     A
C1171  O1226   1.293   .     A
C1172  H1199   1.107   .     S
C1172  H1198   1.110   .     S
C1172  H1443   1.109   .     S
C1173  H1201   1.117   .     S
C1173  C1174   1.518   .     S
C1173  H1200   1.112   .     S
C1173  O1221   1.415   .     S
C1174  H1203   1.110   .     S
C1174  H1204   1.105   .     S
C1175  O1222   1.415   .     S
C1175  H1205   1.115   .     S
C1175  H1206   1.113   .     S
C1175  C1176   1.521   .     S
C1176  H1209   1.107   .     S
C1176  H1208   1.110   .     S
C1176  H1456   1.109   .     S
C1177  O1227   1.294   .     A
C1177  O1228   1.293   .     A
C1178  N1218   1.366   .     A
C1178  H1185   1.081   .     S
C1179  H1196   1.081   .     S
C1179  N1217   1.367   .     A
C1179  C1426   1.415   .     S
C1180  N1218   1.366   .     A
C1180  H1207   1.081   .     S
C1181  N1217   1.367   .     A
C1181  H1211   1.081   .     S
C1181  C1424   1.415   .     S
C1182  O1230   1.383   .     S
Cu1183 Cu1184  2.678   .     S
Cu1183 O1228   1.956   .     S
Cu1183 O1219   1.985   .     S
Cu1183 O1224   1.985   .     S
Cu1183 O1226   1.956   .     S
Cu1183 N1217   2.012   .     S
Cu1184 O1225   1.985   .     S
Cu1184 N1218   2.012   .     S
Cu1184 O1227   1.956   .     S
Cu1184 O1223   1.985   .     S
Cu1184 O1229   1.956   .     S
H1191  C1415   1.105   .     S
H1202  C1420   1.106   .     S
C1231  O1307   1.294   .     A
C1231  O1301   1.294   .     A
C1231  C1249   1.465   .     S
C1232  C1248   1.412   .     A
C1232  O1302   1.383   .     S
C1232  C1316   1.393   .     S
C1233  C1248   1.410   .     A
C1233  O1303   1.383   .     S
C1233  C1346   1.393   .     S
C1234  C1249   1.412   .     A
C1234  O1304   1.383   .     S
C1234  C1396   1.393   1_455 S
C1235  H1294   1.083   .     S
C1235  C1246   1.404   .     A
C1235  C1239   1.390   .     A
C1236  H1295   1.083   .     S
C1236  C1247   1.404   .     A
C1236  C1240   1.390   .     A
C1237  C1241   1.390   .     A
C1237  C1247   1.404   .     A
C1237  H1296   1.083   .     S
C1238  C1243   1.390   .     A
C1238  C1246   1.404   .     A
C1238  H1297   1.083   .     S
C1239  C1244   1.402   .     A
C1239  H1298   1.084   .     S
C1240  C1245   1.402   .     A
C1240  H1268   1.083   .     S
C1241  C1245   1.402   .     A
C1241  H1269   1.084   .     S
C1242  O1306   1.294   .     A
C1242  O1305   1.294   .     A
C1242  C1248   1.465   .     S
C1243  H1270   1.083   .     S
C1243  C1244   1.402   .     A
C1244  C1253   1.459   .     S
C1245  C1259   1.459   .     S
C1247  C508    1.470   1_556 S
C1249  C1264   1.410   .     A
C1250  O1312   1.415   .     S
C1250  H1271   1.112   .     S
C1250  H1272   1.117   .     S
C1250  C1251   1.518   .     S
C1251  H1275   1.105   .     S
C1251  H1274   1.110   .     S
C1252  H1277   1.114   .     S
C1252  O1302   1.415   .     S
C1252  H1276   1.115   .     S
C1252  C1254   1.521   .     S
C1253  O1311   1.294   .     A
C1253  O1308   1.293   .     A
C1254  H1281   1.107   .     S
C1254  H1280   1.110   .     S
C1254  H787    1.109   1_565 S
C1255  H1283   1.117   .     S
C1255  C1256   1.518   .     S
C1255  H1282   1.112   .     S
C1255  O1303   1.415   .     S
C1256  H1285   1.110   .     S
C1256  H1286   1.105   .     S
C1257  O1304   1.415   .     S
C1257  H1287   1.115   .     S
C1257  H1288   1.113   .     S
C1257  C1258   1.521   .     S
C1258  H1291   1.107   .     S
C1258  H1290   1.110   .     S
C1258  H800    1.109   1_565 S
C1259  O1309   1.294   .     A
C1259  O1310   1.293   .     A
C1260  N1300   1.366   .     A
C1260  H1267   1.081   .     S
C1261  H1278   1.081   .     S
C1261  N1299   1.367   .     A
C1261  C770    1.415   1_565 S
C1262  N1300   1.366   .     A
C1262  H1289   1.081   .     S
C1263  N1299   1.367   .     A
C1263  H1293   1.081   .     S
C1263  C768    1.415   1_565 S
C1264  O1312   1.383   .     S
C1264  C1397   1.393   1_455 S
Cu1265 Cu1266  2.678   .     S
Cu1265 O1310   1.956   .     S
Cu1265 O1301   1.985   .     S
Cu1265 O1306   1.985   .     S
Cu1265 O1308   1.956   .     S
Cu1265 N1299   2.012   .     S
Cu1266 O1307   1.985   .     S
Cu1266 N1300   2.012   .     S
Cu1266 O1309   1.956   .     S
Cu1266 O1305   1.985   .     S
Cu1266 O1311   1.956   .     S
H1273  C759    1.105   1_565 S
H1284  C764    1.106   1_565 S
C1313  O1389   1.294   .     A
C1313  O1383   1.294   .     A
C1313  C1331   1.465   .     S
C1314  C1330   1.412   .     A
C1314  O1384   1.383   .     S
C1314  C1398   1.393   .     S
C1315  C1330   1.410   .     A
C1315  O1385   1.383   .     S
C1315  C1428   1.393   .     S
C1316  C1331   1.412   .     A
C1316  O1386   1.383   .     S
C1317  H1376   1.083   .     S
C1317  C1328   1.404   .     A
C1317  C1321   1.390   .     A
C1318  H1377   1.083   .     S
C1318  C1329   1.404   .     A
C1318  C1322   1.390   .     A
C1319  C1323   1.390   .     A
C1319  C1329   1.404   .     A
C1319  H1378   1.083   .     S
C1320  C1325   1.390   .     A
C1320  C1328   1.404   .     A
C1320  H1379   1.083   .     S
C1321  C1326   1.402   .     A
C1321  H1380   1.084   .     S
C1322  C1327   1.402   .     A
C1322  H1350   1.083   .     S
C1323  C1327   1.402   .     A
C1323  H1351   1.084   .     S
C1324  O1388   1.294   .     A
C1324  O1387   1.294   .     A
C1324  C1330   1.465   .     S
C1325  H1352   1.083   .     S
C1325  C1326   1.402   .     A
C1326  C1335   1.459   .     S
C1327  C1341   1.459   .     S
C1329  C590    1.470   1_556 S
C1331  C1346   1.410   .     A
C1332  O1394   1.415   .     S
C1332  H1353   1.112   .     S
C1332  H1354   1.117   .     S
C1332  C1333   1.518   .     S
C1333  H1357   1.105   .     S
C1333  H1356   1.110   .     S
C1334  H1359   1.114   .     S
C1334  O1384   1.415   .     S
C1334  H1358   1.115   .     S
C1334  C1336   1.521   .     S
C1335  O1393   1.294   .     A
C1335  O1390   1.293   .     A
C1336  H1363   1.107   .     S
C1336  H1362   1.110   .     S
C1336  H869    1.109   1_565 S
C1337  H1365   1.117   .     S
C1337  C1338   1.518   .     S
C1337  H1364   1.112   .     S
C1337  O1385   1.415   .     S
C1338  H1367   1.110   .     S
C1338  H1368   1.105   .     S
C1339  O1386   1.415   .     S
C1339  H1369   1.115   .     S
C1339  H1370   1.113   .     S
C1339  C1340   1.521   .     S
C1340  H1373   1.107   .     S
C1340  H1372   1.110   .     S
C1340  H882    1.109   1_565 S
C1341  O1391   1.294   .     A
C1341  O1392   1.293   .     A
C1342  N1382   1.366   .     A
C1342  H1349   1.081   .     S
C1343  H1360   1.081   .     S
C1343  N1381   1.367   .     A
C1343  C852    1.415   1_565 S
C1344  N1382   1.366   .     A
C1344  H1371   1.081   .     S
C1345  N1381   1.367   .     A
C1345  H1375   1.081   .     S
C1345  C850    1.415   1_565 S
C1346  O1394   1.383   .     S
Cu1347 Cu1348  2.678   .     S
Cu1347 O1392   1.956   .     S
Cu1347 O1383   1.985   .     S
Cu1347 O1388   1.985   .     S
Cu1347 O1390   1.956   .     S
Cu1347 N1381   2.012   .     S
Cu1348 O1389   1.985   .     S
Cu1348 N1382   2.012   .     S
Cu1348 O1391   1.956   .     S
Cu1348 O1387   1.985   .     S
Cu1348 O1393   1.956   .     S
H1355  C841    1.105   1_565 S
H1366  C846    1.106   1_565 S
C1395  O1471   1.294   .     A
C1395  O1465   1.294   .     A
C1395  C1413   1.465   .     S
C1396  C1412   1.412   .     A
C1396  O1466   1.383   .     S
C1396  C1234   1.393   1_655 S
C1397  C1412   1.410   .     A
C1397  O1467   1.383   .     S
C1397  C1264   1.393   1_655 S
C1398  C1413   1.412   .     A
C1398  O1468   1.383   .     S
C1399  H1458   1.083   .     S
C1399  C1410   1.404   .     A
C1399  C1403   1.390   .     A
C1400  H1459   1.083   .     S
C1400  C1411   1.404   .     A
C1400  C1404   1.390   .     A
C1401  C1405   1.390   .     A
C1401  C1411   1.404   .     A
C1401  H1460   1.083   .     S
C1402  C1407   1.390   .     A
C1402  C1410   1.404   .     A
C1402  H1461   1.083   .     S
C1403  C1408   1.402   .     A
C1403  H1462   1.084   .     S
C1404  C1409   1.402   .     A
C1404  H1432   1.083   .     S
C1405  C1409   1.402   .     A
C1405  H1433   1.084   .     S
C1406  O1470   1.294   .     A
C1406  O1469   1.294   .     A
C1406  C1412   1.465   .     S
C1407  H1434   1.083   .     S
C1407  C1408   1.402   .     A
C1408  C1417   1.459   .     S
C1409  C1423   1.459   .     S
C1411  C672    1.470   1_556 S
C1413  C1428   1.410   .     A
C1414  O1476   1.415   .     S
C1414  H1435   1.112   .     S
C1414  H1436   1.117   .     S
C1414  C1415   1.518   .     S
C1415  H1439   1.105   .     S
C1415  H1438   1.110   .     S
C1416  H1441   1.114   .     S
C1416  O1466   1.415   .     S
C1416  H1440   1.115   .     S
C1416  C1418   1.521   .     S
C1417  O1475   1.294   .     A
C1417  O1472   1.293   .     A
C1418  H1445   1.107   .     S
C1418  H1444   1.110   .     S
C1418  H951    1.109   1_565 S
C1419  H1447   1.117   .     S
C1419  C1420   1.518   .     S
C1419  H1446   1.112   .     S
C1419  O1467   1.415   .     S
C1420  H1449   1.110   .     S
C1420  H1450   1.105   .     S
C1421  O1468   1.415   .     S
C1421  H1451   1.115   .     S
C1421  H1452   1.113   .     S
C1421  C1422   1.521   .     S
C1422  H1455   1.107   .     S
C1422  H1454   1.110   .     S
C1422  H964    1.109   1_565 S
C1423  O1473   1.294   .     A
C1423  O1474   1.293   .     A
C1424  N1464   1.366   .     A
C1424  H1431   1.081   .     S
C1425  H1442   1.081   .     S
C1425  N1463   1.367   .     A
C1425  C934    1.415   1_565 S
C1426  N1464   1.366   .     A
C1426  H1453   1.081   .     S
C1427  N1463   1.367   .     A
C1427  H1457   1.081   .     S
C1427  C932    1.415   1_565 S
C1428  O1476   1.383   .     S
Cu1429 Cu1430  2.678   .     S
Cu1429 O1474   1.956   .     S
Cu1429 O1465   1.985   .     S
Cu1429 O1470   1.985   .     S
Cu1429 O1472   1.956   .     S
Cu1429 N1463   2.012   .     S
Cu1430 O1471   1.985   .     S
Cu1430 N1464   2.012   .     S
Cu1430 O1473   1.956   .     S
Cu1430 O1469   1.985   .     S
Cu1430 O1475   1.956   .     S
H1437  C923    1.105   1_565 S
H1448  C928    1.106   1_565 S
