data_str_m2_o10_o18_pcu_sym.76
_audit_creation_date              2020-01-03
_audit_creation_method            'Materials Studio'
_symmetry_space_group_name_H-M    'P1'
_symmetry_Int_Tables_number       1
_symmetry_cell_setting            triclinic
loop_
_symmetry_equiv_pos_as_xyz
  x,y,z
_cell_length_a                    22.2694
_cell_length_b                    26.0735
_cell_length_c                    31.4745
_cell_angle_alpha                 94.1667
_cell_angle_beta                  74.4581
_cell_angle_gamma                 103.2788
loop_
_atom_site_label
_atom_site_type_symbol
_atom_site_fract_x
_atom_site_fract_y
_atom_site_fract_z
_atom_site_U_iso_or_equiv
_atom_site_adp_type
_atom_site_occupancy
Br1    Br    0.13801   0.08391   0.10914   0.00000  Uiso   1.00
Br2    Br    0.19532   0.24942   0.39086   0.00000  Uiso   1.00
Br3    Br    0.01517   0.24776   0.13277   0.00000  Uiso   1.00
Br4    Br    0.31816   0.08558   0.36723   0.00000  Uiso   1.00
C5     C     0.18172   0.26674   0.25131   0.00000  Uiso   1.00
C6     C     0.20594   0.17110   0.16663   0.00000  Uiso   1.00
C7     C     0.10238   0.15565   0.38150   0.00000  Uiso   1.00
C8     C     0.23095   0.17768   0.11850   0.00000  Uiso   1.00
C9     C     0.02546   0.11221   0.44565   0.00000  Uiso   1.00
C10    C     0.30787   0.22112   0.05435   0.00000  Uiso   1.00
C11    C     0.04341   0.12138   0.40045   0.00000  Uiso   1.00
C12    C     0.28993   0.21195   0.09955   0.00000  Uiso   1.00
C13    C     0.14172   0.18053   0.40875   0.00000  Uiso   1.00
C14    C     0.19161   0.15280   0.09125   0.00000  Uiso   1.00
C15    C     0.12981   0.16219   0.45214   0.00000  Uiso   1.00
C16    C     0.15161   0.06659   0.24869   0.00000  Uiso   1.00
C17    C     0.20352   0.17114   0.04786   0.00000  Uiso   1.00
C18    C     0.06820   0.13178   0.47145   0.00000  Uiso   1.00
C19    C     0.26514   0.20155   0.02855   0.00000  Uiso   1.00
C20    C     0.17615   0.17307   0.47719   0.00000  Uiso   1.00
C21    C     0.15718   0.16026   0.02281   0.00000  Uiso   1.00
C22    C     0.09192   0.13991   0.04235   0.00000  Uiso   1.00
C23    C     0.24142   0.19342   0.45765   0.00000  Uiso   1.00
C24    C     0.04912   0.12270   0.01668   0.00000  Uiso   1.00
C25    C     0.28421   0.21063   0.48332   0.00000  Uiso   1.00
C26    C     0.19018   0.32272   0.25198   0.00000  Uiso   1.00
C27    C     0.14315   0.01061   0.24802   0.00000  Uiso   1.00
C28    C     0.12739   0.16224   0.33337   0.00000  Uiso   1.00
Cu29   Cu    0.10737   0.16108   0.24516   0.00000  Uiso   1.00
Cu30   Cu    0.22596   0.17225   0.25484   0.00000  Uiso   1.00
H31    H     0.00029   0.10363   0.03254   0.00000  Uiso   1.00
H32    H     0.33223   0.12847   0.21538   0.00000  Uiso   1.00
H33    H     0.33305   0.22970   0.46746   0.00000  Uiso   1.00
H34    H     0.31213   0.08803   0.46038   0.00000  Uiso   1.00
H35    H     0.02120   0.24531   0.03962   0.00000  Uiso   1.00
H36    H     0.07291   0.13723   0.07762   0.00000  Uiso   1.00
H37    H     0.26043   0.19610   0.42238   0.00000  Uiso   1.00
H38    H     0.23548   0.01324   0.25573   0.00000  Uiso   1.00
H39    H     0.09786   0.32009   0.24427   0.00000  Uiso   1.00
H40    H     0.00110   0.20486   0.28462   0.00000  Uiso   1.00
N41    N     0.31506   0.18068   0.26212   0.00000  Uiso   1.00
N42    N     0.01827   0.15265   0.23788   0.00000  Uiso   1.00
O43    O     0.12815   0.23809   0.24686   0.00000  Uiso   1.00
O44    O     0.20518   0.09524   0.25314   0.00000  Uiso   1.00
O45    O     0.22829   0.24753   0.25503   0.00000  Uiso   1.00
O46    O     0.10504   0.08580   0.24497   0.00000  Uiso   1.00
O47    O     0.08851   0.15930   0.30854   0.00000  Uiso   1.00
O48    O     0.24482   0.17403   0.19146   0.00000  Uiso   1.00
O49    O     0.18866   0.16874   0.31671   0.00000  Uiso   1.00
O50    O     0.14468   0.16460   0.18329   0.00000  Uiso   1.00
Br51   Br    0.47134   0.08391   0.10914   0.00000  Uiso   1.00
Br52   Br    0.52866   0.24942   0.39086   0.00000  Uiso   1.00
Br53   Br    0.34851   0.24776   0.13277   0.00000  Uiso   1.00
Br54   Br    0.65149   0.08558   0.36723   0.00000  Uiso   1.00
C55    C     0.51506   0.26674   0.25131   0.00000  Uiso   1.00
C56    C     0.53928   0.17110   0.16663   0.00000  Uiso   1.00
C57    C     0.43571   0.15565   0.38150   0.00000  Uiso   1.00
C58    C     0.56429   0.17768   0.11850   0.00000  Uiso   1.00
C59    C     0.35879   0.11221   0.44565   0.00000  Uiso   1.00
C60    C     0.64121   0.22112   0.05435   0.00000  Uiso   1.00
C61    C     0.37674   0.12138   0.40045   0.00000  Uiso   1.00
C62    C     0.62326   0.21195   0.09955   0.00000  Uiso   1.00
C63    C     0.47505   0.18053   0.40875   0.00000  Uiso   1.00
C64    C     0.52495   0.15280   0.09125   0.00000  Uiso   1.00
C65    C     0.46315   0.16219   0.45214   0.00000  Uiso   1.00
C66    C     0.48494   0.06659   0.24869   0.00000  Uiso   1.00
C67    C     0.53685   0.17114   0.04786   0.00000  Uiso   1.00
C68    C     0.40153   0.13178   0.47145   0.00000  Uiso   1.00
C69    C     0.59847   0.20155   0.02855   0.00000  Uiso   1.00
C70    C     0.50949   0.17307   0.47719   0.00000  Uiso   1.00
C71    C     0.49051   0.16026   0.02281   0.00000  Uiso   1.00
C72    C     0.42525   0.13991   0.04235   0.00000  Uiso   1.00
C73    C     0.57475   0.19342   0.45765   0.00000  Uiso   1.00
C74    C     0.38246   0.12270   0.01668   0.00000  Uiso   1.00
C75    C     0.61755   0.21063   0.48332   0.00000  Uiso   1.00
C76    C     0.52352   0.32272   0.25198   0.00000  Uiso   1.00
C77    C     0.47648   0.01061   0.24802   0.00000  Uiso   1.00
C78    C     0.46072   0.16224   0.33337   0.00000  Uiso   1.00
Cu79   Cu    0.44071   0.16108   0.24516   0.00000  Uiso   1.00
Cu80   Cu    0.55929   0.17225   0.25484   0.00000  Uiso   1.00
H81    H     0.33362   0.10363   0.03254   0.00000  Uiso   1.00
H82    H     0.66556   0.12847   0.21538   0.00000  Uiso   1.00
H83    H     0.66638   0.22970   0.46746   0.00000  Uiso   1.00
H84    H     0.64547   0.08803   0.46038   0.00000  Uiso   1.00
H85    H     0.35453   0.24531   0.03962   0.00000  Uiso   1.00
H86    H     0.40624   0.13723   0.07762   0.00000  Uiso   1.00
H87    H     0.59376   0.19610   0.42238   0.00000  Uiso   1.00
H88    H     0.56881   0.01324   0.25573   0.00000  Uiso   1.00
H89    H     0.43119   0.32009   0.24427   0.00000  Uiso   1.00
H90    H     0.33444   0.20486   0.28462   0.00000  Uiso   1.00
N91    N     0.64839   0.18068   0.26212   0.00000  Uiso   1.00
N92    N     0.35161   0.15265   0.23788   0.00000  Uiso   1.00
O93    O     0.46148   0.23809   0.24686   0.00000  Uiso   1.00
O94    O     0.53852   0.09524   0.25314   0.00000  Uiso   1.00
O95    O     0.56163   0.24753   0.25503   0.00000  Uiso   1.00
O96    O     0.43837   0.08580   0.24497   0.00000  Uiso   1.00
O97    O     0.42185   0.15930   0.30854   0.00000  Uiso   1.00
O98    O     0.57815   0.17403   0.19146   0.00000  Uiso   1.00
O99    O     0.52199   0.16874   0.31671   0.00000  Uiso   1.00
O100   O     0.47801   0.16460   0.18329   0.00000  Uiso   1.00
Br101  Br    0.80468   0.08391   0.10914   0.00000  Uiso   1.00
Br102  Br    0.86199   0.24942   0.39086   0.00000  Uiso   1.00
Br103  Br    0.68184   0.24776   0.13277   0.00000  Uiso   1.00
Br104  Br    0.98482   0.08558   0.36723   0.00000  Uiso   1.00
C105   C     0.84839   0.26674   0.25131   0.00000  Uiso   1.00
C106   C     0.87261   0.17110   0.16663   0.00000  Uiso   1.00
C107   C     0.76905   0.15565   0.38150   0.00000  Uiso   1.00
C108   C     0.89762   0.17768   0.11850   0.00000  Uiso   1.00
C109   C     0.69213   0.11221   0.44565   0.00000  Uiso   1.00
C110   C     0.97454   0.22112   0.05435   0.00000  Uiso   1.00
C111   C     0.71007   0.12138   0.40045   0.00000  Uiso   1.00
C112   C     0.95659   0.21195   0.09955   0.00000  Uiso   1.00
C113   C     0.80839   0.18053   0.40875   0.00000  Uiso   1.00
C114   C     0.85828   0.15280   0.09125   0.00000  Uiso   1.00
C115   C     0.79648   0.16219   0.45214   0.00000  Uiso   1.00
C116   C     0.81828   0.06659   0.24869   0.00000  Uiso   1.00
C117   C     0.87019   0.17114   0.04786   0.00000  Uiso   1.00
C118   C     0.73487   0.13178   0.47145   0.00000  Uiso   1.00
C119   C     0.93180   0.20155   0.02855   0.00000  Uiso   1.00
C120   C     0.84282   0.17307   0.47719   0.00000  Uiso   1.00
C121   C     0.82385   0.16026   0.02281   0.00000  Uiso   1.00
C122   C     0.75859   0.13991   0.04235   0.00000  Uiso   1.00
C123   C     0.90808   0.19342   0.45765   0.00000  Uiso   1.00
C124   C     0.71579   0.12270   0.01668   0.00000  Uiso   1.00
C125   C     0.95088   0.21063   0.48332   0.00000  Uiso   1.00
C126   C     0.85685   0.32272   0.25198   0.00000  Uiso   1.00
C127   C     0.80982   0.01061   0.24802   0.00000  Uiso   1.00
C128   C     0.79406   0.16224   0.33337   0.00000  Uiso   1.00
Cu129  Cu    0.77404   0.16108   0.24516   0.00000  Uiso   1.00
Cu130  Cu    0.89263   0.17225   0.25484   0.00000  Uiso   1.00
H131   H     0.66695   0.10363   0.03254   0.00000  Uiso   1.00
H132   H     0.99890   0.12847   0.21538   0.00000  Uiso   1.00
H133   H     0.99971   0.22970   0.46746   0.00000  Uiso   1.00
H134   H     0.97880   0.08803   0.46038   0.00000  Uiso   1.00
H135   H     0.68787   0.24531   0.03962   0.00000  Uiso   1.00
H136   H     0.73957   0.13723   0.07762   0.00000  Uiso   1.00
H137   H     0.92710   0.19610   0.42238   0.00000  Uiso   1.00
H138   H     0.90214   0.01324   0.25573   0.00000  Uiso   1.00
H139   H     0.76452   0.32009   0.24427   0.00000  Uiso   1.00
H140   H     0.66777   0.20486   0.28462   0.00000  Uiso   1.00
N141   N     0.98173   0.18068   0.26212   0.00000  Uiso   1.00
N142   N     0.68494   0.15265   0.23788   0.00000  Uiso   1.00
O143   O     0.79482   0.23809   0.24686   0.00000  Uiso   1.00
O144   O     0.87185   0.09524   0.25314   0.00000  Uiso   1.00
O145   O     0.89496   0.24753   0.25503   0.00000  Uiso   1.00
O146   O     0.77171   0.08580   0.24497   0.00000  Uiso   1.00
O147   O     0.75518   0.15930   0.30854   0.00000  Uiso   1.00
O148   O     0.91149   0.17403   0.19146   0.00000  Uiso   1.00
O149   O     0.85532   0.16874   0.31671   0.00000  Uiso   1.00
O150   O     0.81134   0.16460   0.18329   0.00000  Uiso   1.00
Br151  Br    0.13801   0.41725   0.10914   0.00000  Uiso   1.00
Br152  Br    0.19532   0.58275   0.39086   0.00000  Uiso   1.00
Br153  Br    0.01517   0.58109   0.13277   0.00000  Uiso   1.00
Br154  Br    0.31816   0.41891   0.36723   0.00000  Uiso   1.00
C155   C     0.18172   0.60008   0.25131   0.00000  Uiso   1.00
C156   C     0.20594   0.50443   0.16663   0.00000  Uiso   1.00
C157   C     0.10238   0.48899   0.38150   0.00000  Uiso   1.00
C158   C     0.23095   0.51101   0.11850   0.00000  Uiso   1.00
C159   C     0.02546   0.44554   0.44565   0.00000  Uiso   1.00
C160   C     0.30787   0.55445   0.05435   0.00000  Uiso   1.00
C161   C     0.04341   0.45471   0.40045   0.00000  Uiso   1.00
C162   C     0.28993   0.54529   0.09955   0.00000  Uiso   1.00
C163   C     0.14172   0.51386   0.40875   0.00000  Uiso   1.00
C164   C     0.19161   0.48614   0.09125   0.00000  Uiso   1.00
C165   C     0.12981   0.49553   0.45214   0.00000  Uiso   1.00
C166   C     0.15161   0.39992   0.24869   0.00000  Uiso   1.00
C167   C     0.20352   0.50447   0.04786   0.00000  Uiso   1.00
C168   C     0.06820   0.46511   0.47145   0.00000  Uiso   1.00
C169   C     0.26514   0.53489   0.02855   0.00000  Uiso   1.00
C170   C     0.17615   0.50640   0.47719   0.00000  Uiso   1.00
C171   C     0.15718   0.49359   0.02281   0.00000  Uiso   1.00
C172   C     0.09192   0.47324   0.04235   0.00000  Uiso   1.00
C173   C     0.24142   0.52675   0.45765   0.00000  Uiso   1.00
C174   C     0.04912   0.45603   0.01668   0.00000  Uiso   1.00
C175   C     0.28421   0.54396   0.48332   0.00000  Uiso   1.00
C176   C     0.19018   0.65605   0.25198   0.00000  Uiso   1.00
C177   C     0.14315   0.34395   0.24802   0.00000  Uiso   1.00
C178   C     0.12739   0.49557   0.33337   0.00000  Uiso   1.00
Cu179  Cu    0.10737   0.49441   0.24516   0.00000  Uiso   1.00
Cu180  Cu    0.22596   0.50559   0.25484   0.00000  Uiso   1.00
H181   H     0.00029   0.43697   0.03254   0.00000  Uiso   1.00
H182   H     0.33223   0.46181   0.21538   0.00000  Uiso   1.00
H183   H     0.33305   0.56303   0.46746   0.00000  Uiso   1.00
H184   H     0.31213   0.42136   0.46038   0.00000  Uiso   1.00
H185   H     0.02120   0.57864   0.03962   0.00000  Uiso   1.00
H186   H     0.07291   0.47056   0.07762   0.00000  Uiso   1.00
H187   H     0.26043   0.52943   0.42238   0.00000  Uiso   1.00
H188   H     0.23548   0.34657   0.25573   0.00000  Uiso   1.00
H189   H     0.09786   0.65343   0.24427   0.00000  Uiso   1.00
H190   H     0.00110   0.53819   0.28462   0.00000  Uiso   1.00
N191   N     0.31506   0.51401   0.26212   0.00000  Uiso   1.00
N192   N     0.01827   0.48599   0.23788   0.00000  Uiso   1.00
O193   O     0.12815   0.57142   0.24686   0.00000  Uiso   1.00
O194   O     0.20518   0.42858   0.25314   0.00000  Uiso   1.00
O195   O     0.22829   0.58086   0.25503   0.00000  Uiso   1.00
O196   O     0.10504   0.41914   0.24497   0.00000  Uiso   1.00
O197   O     0.08851   0.49263   0.30854   0.00000  Uiso   1.00
O198   O     0.24482   0.50737   0.19146   0.00000  Uiso   1.00
O199   O     0.18866   0.50207   0.31671   0.00000  Uiso   1.00
O200   O     0.14468   0.49793   0.18329   0.00000  Uiso   1.00
Br201  Br    0.47134   0.41725   0.10914   0.00000  Uiso   1.00
Br202  Br    0.52866   0.58275   0.39086   0.00000  Uiso   1.00
Br203  Br    0.34851   0.58109   0.13277   0.00000  Uiso   1.00
Br204  Br    0.65149   0.41891   0.36723   0.00000  Uiso   1.00
C205   C     0.51506   0.60008   0.25131   0.00000  Uiso   1.00
C206   C     0.53928   0.50443   0.16663   0.00000  Uiso   1.00
C207   C     0.43571   0.48899   0.38150   0.00000  Uiso   1.00
C208   C     0.56429   0.51101   0.11850   0.00000  Uiso   1.00
C209   C     0.35879   0.44554   0.44565   0.00000  Uiso   1.00
C210   C     0.64121   0.55445   0.05435   0.00000  Uiso   1.00
C211   C     0.37674   0.45471   0.40045   0.00000  Uiso   1.00
C212   C     0.62326   0.54529   0.09955   0.00000  Uiso   1.00
C213   C     0.47505   0.51386   0.40875   0.00000  Uiso   1.00
C214   C     0.52495   0.48614   0.09125   0.00000  Uiso   1.00
C215   C     0.46315   0.49553   0.45214   0.00000  Uiso   1.00
C216   C     0.48494   0.39992   0.24869   0.00000  Uiso   1.00
C217   C     0.53685   0.50447   0.04786   0.00000  Uiso   1.00
C218   C     0.40153   0.46511   0.47145   0.00000  Uiso   1.00
C219   C     0.59847   0.53489   0.02855   0.00000  Uiso   1.00
C220   C     0.50949   0.50640   0.47719   0.00000  Uiso   1.00
C221   C     0.49051   0.49359   0.02281   0.00000  Uiso   1.00
C222   C     0.42525   0.47324   0.04235   0.00000  Uiso   1.00
C223   C     0.57475   0.52675   0.45765   0.00000  Uiso   1.00
C224   C     0.38246   0.45603   0.01668   0.00000  Uiso   1.00
C225   C     0.61755   0.54396   0.48332   0.00000  Uiso   1.00
C226   C     0.52352   0.65605   0.25198   0.00000  Uiso   1.00
C227   C     0.47648   0.34395   0.24802   0.00000  Uiso   1.00
C228   C     0.46072   0.49557   0.33337   0.00000  Uiso   1.00
Cu229  Cu    0.44071   0.49441   0.24516   0.00000  Uiso   1.00
Cu230  Cu    0.55929   0.50559   0.25484   0.00000  Uiso   1.00
H231   H     0.33362   0.43697   0.03254   0.00000  Uiso   1.00
H232   H     0.66556   0.46181   0.21538   0.00000  Uiso   1.00
H233   H     0.66638   0.56303   0.46746   0.00000  Uiso   1.00
H234   H     0.64547   0.42136   0.46038   0.00000  Uiso   1.00
H235   H     0.35453   0.57864   0.03962   0.00000  Uiso   1.00
H236   H     0.40624   0.47056   0.07762   0.00000  Uiso   1.00
H237   H     0.59376   0.52943   0.42238   0.00000  Uiso   1.00
H238   H     0.56881   0.34657   0.25573   0.00000  Uiso   1.00
H239   H     0.43119   0.65343   0.24427   0.00000  Uiso   1.00
H240   H     0.33444   0.53819   0.28462   0.00000  Uiso   1.00
N241   N     0.64839   0.51401   0.26212   0.00000  Uiso   1.00
N242   N     0.35161   0.48599   0.23788   0.00000  Uiso   1.00
O243   O     0.46148   0.57142   0.24686   0.00000  Uiso   1.00
O244   O     0.53852   0.42858   0.25314   0.00000  Uiso   1.00
O245   O     0.56163   0.58086   0.25503   0.00000  Uiso   1.00
O246   O     0.43837   0.41914   0.24497   0.00000  Uiso   1.00
O247   O     0.42185   0.49263   0.30854   0.00000  Uiso   1.00
O248   O     0.57815   0.50737   0.19146   0.00000  Uiso   1.00
O249   O     0.52199   0.50207   0.31671   0.00000  Uiso   1.00
O250   O     0.47801   0.49793   0.18329   0.00000  Uiso   1.00
Br251  Br    0.80468   0.41725   0.10914   0.00000  Uiso   1.00
Br252  Br    0.86199   0.58275   0.39086   0.00000  Uiso   1.00
Br253  Br    0.68184   0.58109   0.13277   0.00000  Uiso   1.00
Br254  Br    0.98482   0.41891   0.36723   0.00000  Uiso   1.00
C255   C     0.84839   0.60008   0.25131   0.00000  Uiso   1.00
C256   C     0.87261   0.50443   0.16663   0.00000  Uiso   1.00
C257   C     0.76905   0.48899   0.38150   0.00000  Uiso   1.00
C258   C     0.89762   0.51101   0.11850   0.00000  Uiso   1.00
C259   C     0.69213   0.44554   0.44565   0.00000  Uiso   1.00
C260   C     0.97454   0.55445   0.05435   0.00000  Uiso   1.00
C261   C     0.71007   0.45471   0.40045   0.00000  Uiso   1.00
C262   C     0.95659   0.54529   0.09955   0.00000  Uiso   1.00
C263   C     0.80839   0.51386   0.40875   0.00000  Uiso   1.00
C264   C     0.85828   0.48614   0.09125   0.00000  Uiso   1.00
C265   C     0.79648   0.49553   0.45214   0.00000  Uiso   1.00
C266   C     0.81828   0.39992   0.24869   0.00000  Uiso   1.00
C267   C     0.87019   0.50447   0.04786   0.00000  Uiso   1.00
C268   C     0.73487   0.46511   0.47145   0.00000  Uiso   1.00
C269   C     0.93180   0.53489   0.02855   0.00000  Uiso   1.00
C270   C     0.84282   0.50640   0.47719   0.00000  Uiso   1.00
C271   C     0.82385   0.49359   0.02281   0.00000  Uiso   1.00
C272   C     0.75859   0.47324   0.04235   0.00000  Uiso   1.00
C273   C     0.90808   0.52675   0.45765   0.00000  Uiso   1.00
C274   C     0.71579   0.45603   0.01668   0.00000  Uiso   1.00
C275   C     0.95088   0.54396   0.48332   0.00000  Uiso   1.00
C276   C     0.85685   0.65605   0.25198   0.00000  Uiso   1.00
C277   C     0.80982   0.34395   0.24802   0.00000  Uiso   1.00
C278   C     0.79406   0.49557   0.33337   0.00000  Uiso   1.00
Cu279  Cu    0.77404   0.49441   0.24516   0.00000  Uiso   1.00
Cu280  Cu    0.89263   0.50559   0.25484   0.00000  Uiso   1.00
H281   H     0.66695   0.43697   0.03254   0.00000  Uiso   1.00
H282   H     0.99890   0.46181   0.21538   0.00000  Uiso   1.00
H283   H     0.99971   0.56303   0.46746   0.00000  Uiso   1.00
H284   H     0.97880   0.42136   0.46038   0.00000  Uiso   1.00
H285   H     0.68787   0.57864   0.03962   0.00000  Uiso   1.00
H286   H     0.73957   0.47056   0.07762   0.00000  Uiso   1.00
H287   H     0.92710   0.52943   0.42238   0.00000  Uiso   1.00
H288   H     0.90214   0.34657   0.25573   0.00000  Uiso   1.00
H289   H     0.76452   0.65343   0.24427   0.00000  Uiso   1.00
H290   H     0.66777   0.53819   0.28462   0.00000  Uiso   1.00
N291   N     0.98173   0.51401   0.26212   0.00000  Uiso   1.00
N292   N     0.68494   0.48599   0.23788   0.00000  Uiso   1.00
O293   O     0.79482   0.57142   0.24686   0.00000  Uiso   1.00
O294   O     0.87185   0.42858   0.25314   0.00000  Uiso   1.00
O295   O     0.89496   0.58086   0.25503   0.00000  Uiso   1.00
O296   O     0.77171   0.41914   0.24497   0.00000  Uiso   1.00
O297   O     0.75518   0.49263   0.30854   0.00000  Uiso   1.00
O298   O     0.91149   0.50737   0.19146   0.00000  Uiso   1.00
O299   O     0.85532   0.50207   0.31671   0.00000  Uiso   1.00
O300   O     0.81134   0.49793   0.18329   0.00000  Uiso   1.00
Br301  Br    0.13801   0.75058   0.10914   0.00000  Uiso   1.00
Br302  Br    0.19532   0.91608   0.39086   0.00000  Uiso   1.00
Br303  Br    0.01517   0.91443   0.13277   0.00000  Uiso   1.00
Br304  Br    0.31816   0.75224   0.36723   0.00000  Uiso   1.00
C305   C     0.18172   0.93341   0.25131   0.00000  Uiso   1.00
C306   C     0.20594   0.83776   0.16663   0.00000  Uiso   1.00
C307   C     0.10238   0.82232   0.38150   0.00000  Uiso   1.00
C308   C     0.23095   0.84434   0.11850   0.00000  Uiso   1.00
C309   C     0.02546   0.77888   0.44565   0.00000  Uiso   1.00
C310   C     0.30787   0.88779   0.05435   0.00000  Uiso   1.00
C311   C     0.04341   0.78805   0.40045   0.00000  Uiso   1.00
C312   C     0.28993   0.87862   0.09955   0.00000  Uiso   1.00
C313   C     0.14172   0.84719   0.40875   0.00000  Uiso   1.00
C314   C     0.19161   0.81947   0.09125   0.00000  Uiso   1.00
C315   C     0.12981   0.82886   0.45214   0.00000  Uiso   1.00
C316   C     0.15161   0.73326   0.24869   0.00000  Uiso   1.00
C317   C     0.20352   0.83780   0.04786   0.00000  Uiso   1.00
C318   C     0.06820   0.79844   0.47145   0.00000  Uiso   1.00
C319   C     0.26514   0.86822   0.02855   0.00000  Uiso   1.00
C320   C     0.17615   0.83974   0.47719   0.00000  Uiso   1.00
C321   C     0.15718   0.82692   0.02281   0.00000  Uiso   1.00
C322   C     0.09192   0.80657   0.04235   0.00000  Uiso   1.00
C323   C     0.24142   0.86009   0.45765   0.00000  Uiso   1.00
C324   C     0.04912   0.78936   0.01668   0.00000  Uiso   1.00
C325   C     0.28421   0.87730   0.48332   0.00000  Uiso   1.00
C326   C     0.19018   0.98939   0.25198   0.00000  Uiso   1.00
C327   C     0.14315   0.67728   0.24802   0.00000  Uiso   1.00
C328   C     0.12739   0.82890   0.33337   0.00000  Uiso   1.00
Cu329  Cu    0.10737   0.82775   0.24516   0.00000  Uiso   1.00
Cu330  Cu    0.22596   0.83892   0.25484   0.00000  Uiso   1.00
H331   H     0.00029   0.77030   0.03254   0.00000  Uiso   1.00
H332   H     0.33223   0.79514   0.21538   0.00000  Uiso   1.00
H333   H     0.33305   0.89636   0.46746   0.00000  Uiso   1.00
H334   H     0.31213   0.75469   0.46038   0.00000  Uiso   1.00
H335   H     0.02120   0.91197   0.03962   0.00000  Uiso   1.00
H336   H     0.07291   0.80390   0.07762   0.00000  Uiso   1.00
H337   H     0.26043   0.86276   0.42238   0.00000  Uiso   1.00
H338   H     0.23548   0.67991   0.25573   0.00000  Uiso   1.00
H339   H     0.09786   0.98676   0.24427   0.00000  Uiso   1.00
H340   H     0.00110   0.87153   0.28462   0.00000  Uiso   1.00
N341   N     0.31506   0.84735   0.26212   0.00000  Uiso   1.00
N342   N     0.01827   0.81932   0.23788   0.00000  Uiso   1.00
O343   O     0.12815   0.90476   0.24686   0.00000  Uiso   1.00
O344   O     0.20518   0.76191   0.25314   0.00000  Uiso   1.00
O345   O     0.22829   0.91420   0.25503   0.00000  Uiso   1.00
O346   O     0.10504   0.75247   0.24497   0.00000  Uiso   1.00
O347   O     0.08851   0.82597   0.30854   0.00000  Uiso   1.00
O348   O     0.24482   0.84070   0.19146   0.00000  Uiso   1.00
O349   O     0.18866   0.83540   0.31671   0.00000  Uiso   1.00
O350   O     0.14468   0.83126   0.18329   0.00000  Uiso   1.00
Br351  Br    0.47134   0.75058   0.10914   0.00000  Uiso   1.00
Br352  Br    0.52866   0.91608   0.39086   0.00000  Uiso   1.00
Br353  Br    0.34851   0.91443   0.13277   0.00000  Uiso   1.00
Br354  Br    0.65149   0.75224   0.36723   0.00000  Uiso   1.00
C355   C     0.51506   0.93341   0.25131   0.00000  Uiso   1.00
C356   C     0.53928   0.83776   0.16663   0.00000  Uiso   1.00
C357   C     0.43571   0.82232   0.38150   0.00000  Uiso   1.00
C358   C     0.56429   0.84434   0.11850   0.00000  Uiso   1.00
C359   C     0.35879   0.77888   0.44565   0.00000  Uiso   1.00
C360   C     0.64121   0.88779   0.05435   0.00000  Uiso   1.00
C361   C     0.37674   0.78805   0.40045   0.00000  Uiso   1.00
C362   C     0.62326   0.87862   0.09955   0.00000  Uiso   1.00
C363   C     0.47505   0.84719   0.40875   0.00000  Uiso   1.00
C364   C     0.52495   0.81947   0.09125   0.00000  Uiso   1.00
C365   C     0.46315   0.82886   0.45214   0.00000  Uiso   1.00
C366   C     0.48494   0.73326   0.24869   0.00000  Uiso   1.00
C367   C     0.53685   0.83780   0.04786   0.00000  Uiso   1.00
C368   C     0.40153   0.79844   0.47145   0.00000  Uiso   1.00
C369   C     0.59847   0.86822   0.02855   0.00000  Uiso   1.00
C370   C     0.50949   0.83974   0.47719   0.00000  Uiso   1.00
C371   C     0.49051   0.82692   0.02281   0.00000  Uiso   1.00
C372   C     0.42525   0.80657   0.04235   0.00000  Uiso   1.00
C373   C     0.57475   0.86009   0.45765   0.00000  Uiso   1.00
C374   C     0.38246   0.78936   0.01668   0.00000  Uiso   1.00
C375   C     0.61755   0.87730   0.48332   0.00000  Uiso   1.00
C376   C     0.52352   0.98939   0.25198   0.00000  Uiso   1.00
C377   C     0.47648   0.67728   0.24802   0.00000  Uiso   1.00
C378   C     0.46072   0.82890   0.33337   0.00000  Uiso   1.00
Cu379  Cu    0.44071   0.82775   0.24516   0.00000  Uiso   1.00
Cu380  Cu    0.55929   0.83892   0.25484   0.00000  Uiso   1.00
H381   H     0.33362   0.77030   0.03254   0.00000  Uiso   1.00
H382   H     0.66556   0.79514   0.21538   0.00000  Uiso   1.00
H383   H     0.66638   0.89636   0.46746   0.00000  Uiso   1.00
H384   H     0.64547   0.75469   0.46038   0.00000  Uiso   1.00
H385   H     0.35453   0.91197   0.03962   0.00000  Uiso   1.00
H386   H     0.40624   0.80390   0.07762   0.00000  Uiso   1.00
H387   H     0.59376   0.86276   0.42238   0.00000  Uiso   1.00
H388   H     0.56881   0.67991   0.25573   0.00000  Uiso   1.00
H389   H     0.43119   0.98676   0.24427   0.00000  Uiso   1.00
H390   H     0.33444   0.87153   0.28462   0.00000  Uiso   1.00
N391   N     0.64839   0.84735   0.26212   0.00000  Uiso   1.00
N392   N     0.35161   0.81932   0.23788   0.00000  Uiso   1.00
O393   O     0.46148   0.90476   0.24686   0.00000  Uiso   1.00
O394   O     0.53852   0.76191   0.25314   0.00000  Uiso   1.00
O395   O     0.56163   0.91420   0.25503   0.00000  Uiso   1.00
O396   O     0.43837   0.75247   0.24497   0.00000  Uiso   1.00
O397   O     0.42185   0.82597   0.30854   0.00000  Uiso   1.00
O398   O     0.57815   0.84070   0.19146   0.00000  Uiso   1.00
O399   O     0.52199   0.83540   0.31671   0.00000  Uiso   1.00
O400   O     0.47801   0.83126   0.18329   0.00000  Uiso   1.00
Br401  Br    0.80468   0.75058   0.10914   0.00000  Uiso   1.00
Br402  Br    0.86199   0.91608   0.39086   0.00000  Uiso   1.00
Br403  Br    0.68184   0.91443   0.13277   0.00000  Uiso   1.00
Br404  Br    0.98482   0.75224   0.36723   0.00000  Uiso   1.00
C405   C     0.84839   0.93341   0.25131   0.00000  Uiso   1.00
C406   C     0.87261   0.83776   0.16663   0.00000  Uiso   1.00
C407   C     0.76905   0.82232   0.38150   0.00000  Uiso   1.00
C408   C     0.89762   0.84434   0.11850   0.00000  Uiso   1.00
C409   C     0.69213   0.77888   0.44565   0.00000  Uiso   1.00
C410   C     0.97454   0.88779   0.05435   0.00000  Uiso   1.00
C411   C     0.71007   0.78805   0.40045   0.00000  Uiso   1.00
C412   C     0.95659   0.87862   0.09955   0.00000  Uiso   1.00
C413   C     0.80839   0.84719   0.40875   0.00000  Uiso   1.00
C414   C     0.85828   0.81947   0.09125   0.00000  Uiso   1.00
C415   C     0.79648   0.82886   0.45214   0.00000  Uiso   1.00
C416   C     0.81828   0.73326   0.24869   0.00000  Uiso   1.00
C417   C     0.87019   0.83780   0.04786   0.00000  Uiso   1.00
C418   C     0.73487   0.79844   0.47145   0.00000  Uiso   1.00
C419   C     0.93180   0.86822   0.02855   0.00000  Uiso   1.00
C420   C     0.84282   0.83974   0.47719   0.00000  Uiso   1.00
C421   C     0.82385   0.82692   0.02281   0.00000  Uiso   1.00
C422   C     0.75859   0.80657   0.04235   0.00000  Uiso   1.00
C423   C     0.90808   0.86009   0.45765   0.00000  Uiso   1.00
C424   C     0.71579   0.78936   0.01668   0.00000  Uiso   1.00
C425   C     0.95088   0.87730   0.48332   0.00000  Uiso   1.00
C426   C     0.85685   0.98939   0.25198   0.00000  Uiso   1.00
C427   C     0.80982   0.67728   0.24802   0.00000  Uiso   1.00
C428   C     0.79406   0.82890   0.33337   0.00000  Uiso   1.00
Cu429  Cu    0.77404   0.82775   0.24516   0.00000  Uiso   1.00
Cu430  Cu    0.89263   0.83892   0.25484   0.00000  Uiso   1.00
H431   H     0.66695   0.77030   0.03254   0.00000  Uiso   1.00
H432   H     0.99890   0.79514   0.21538   0.00000  Uiso   1.00
H433   H     0.99971   0.89636   0.46746   0.00000  Uiso   1.00
H434   H     0.97880   0.75469   0.46038   0.00000  Uiso   1.00
H435   H     0.68787   0.91197   0.03962   0.00000  Uiso   1.00
H436   H     0.73957   0.80390   0.07762   0.00000  Uiso   1.00
H437   H     0.92710   0.86276   0.42238   0.00000  Uiso   1.00
H438   H     0.90214   0.67991   0.25573   0.00000  Uiso   1.00
H439   H     0.76452   0.98676   0.24427   0.00000  Uiso   1.00
H440   H     0.66777   0.87153   0.28462   0.00000  Uiso   1.00
N441   N     0.98173   0.84735   0.26212   0.00000  Uiso   1.00
N442   N     0.68494   0.81932   0.23788   0.00000  Uiso   1.00
O443   O     0.79482   0.90476   0.24686   0.00000  Uiso   1.00
O444   O     0.87185   0.76191   0.25314   0.00000  Uiso   1.00
O445   O     0.89496   0.91420   0.25503   0.00000  Uiso   1.00
O446   O     0.77171   0.75247   0.24497   0.00000  Uiso   1.00
O447   O     0.75518   0.82597   0.30854   0.00000  Uiso   1.00
O448   O     0.91149   0.84070   0.19146   0.00000  Uiso   1.00
O449   O     0.85532   0.83540   0.31671   0.00000  Uiso   1.00
O450   O     0.81134   0.83126   0.18329   0.00000  Uiso   1.00
Br451  Br    0.13801   0.08391   0.60914   0.00000  Uiso   1.00
Br452  Br    0.19532   0.24942   0.89086   0.00000  Uiso   1.00
Br453  Br    0.01517   0.24776   0.63277   0.00000  Uiso   1.00
Br454  Br    0.31816   0.08558   0.86723   0.00000  Uiso   1.00
C455   C     0.18172   0.26674   0.75131   0.00000  Uiso   1.00
C456   C     0.20594   0.17110   0.66663   0.00000  Uiso   1.00
C457   C     0.10238   0.15565   0.88150   0.00000  Uiso   1.00
C458   C     0.23095   0.17768   0.61850   0.00000  Uiso   1.00
C459   C     0.02546   0.11221   0.94565   0.00000  Uiso   1.00
C460   C     0.30787   0.22112   0.55435   0.00000  Uiso   1.00
C461   C     0.04341   0.12138   0.90045   0.00000  Uiso   1.00
C462   C     0.28993   0.21195   0.59955   0.00000  Uiso   1.00
C463   C     0.14172   0.18053   0.90875   0.00000  Uiso   1.00
C464   C     0.19161   0.15280   0.59125   0.00000  Uiso   1.00
C465   C     0.12981   0.16219   0.95214   0.00000  Uiso   1.00
C466   C     0.15161   0.06659   0.74869   0.00000  Uiso   1.00
C467   C     0.20352   0.17114   0.54786   0.00000  Uiso   1.00
C468   C     0.06820   0.13178   0.97145   0.00000  Uiso   1.00
C469   C     0.26514   0.20155   0.52855   0.00000  Uiso   1.00
C470   C     0.17615   0.17307   0.97719   0.00000  Uiso   1.00
C471   C     0.15718   0.16026   0.52281   0.00000  Uiso   1.00
C472   C     0.09192   0.13991   0.54235   0.00000  Uiso   1.00
C473   C     0.24142   0.19342   0.95765   0.00000  Uiso   1.00
C474   C     0.04912   0.12270   0.51668   0.00000  Uiso   1.00
C475   C     0.28421   0.21063   0.98332   0.00000  Uiso   1.00
C476   C     0.19018   0.32272   0.75198   0.00000  Uiso   1.00
C477   C     0.14315   0.01061   0.74802   0.00000  Uiso   1.00
C478   C     0.12739   0.16224   0.83337   0.00000  Uiso   1.00
Cu479  Cu    0.10737   0.16108   0.74516   0.00000  Uiso   1.00
Cu480  Cu    0.22596   0.17225   0.75484   0.00000  Uiso   1.00
H481   H     0.00029   0.10363   0.53254   0.00000  Uiso   1.00
H482   H     0.33223   0.12847   0.71538   0.00000  Uiso   1.00
H483   H     0.33305   0.22970   0.96746   0.00000  Uiso   1.00
H484   H     0.31213   0.08803   0.96038   0.00000  Uiso   1.00
H485   H     0.02120   0.24531   0.53962   0.00000  Uiso   1.00
H486   H     0.07291   0.13723   0.57762   0.00000  Uiso   1.00
H487   H     0.26043   0.19610   0.92238   0.00000  Uiso   1.00
H488   H     0.23548   0.01324   0.75573   0.00000  Uiso   1.00
H489   H     0.09786   0.32009   0.74427   0.00000  Uiso   1.00
H490   H     0.00110   0.20486   0.78462   0.00000  Uiso   1.00
N491   N     0.31506   0.18068   0.76212   0.00000  Uiso   1.00
N492   N     0.01827   0.15265   0.73788   0.00000  Uiso   1.00
O493   O     0.12815   0.23809   0.74686   0.00000  Uiso   1.00
O494   O     0.20518   0.09524   0.75314   0.00000  Uiso   1.00
O495   O     0.22829   0.24753   0.75503   0.00000  Uiso   1.00
O496   O     0.10504   0.08580   0.74497   0.00000  Uiso   1.00
O497   O     0.08851   0.15930   0.80854   0.00000  Uiso   1.00
O498   O     0.24482   0.17403   0.69146   0.00000  Uiso   1.00
O499   O     0.18866   0.16874   0.81671   0.00000  Uiso   1.00
O500   O     0.14468   0.16460   0.68329   0.00000  Uiso   1.00
Br501  Br    0.47134   0.08391   0.60914   0.00000  Uiso   1.00
Br502  Br    0.52866   0.24942   0.89086   0.00000  Uiso   1.00
Br503  Br    0.34851   0.24776   0.63277   0.00000  Uiso   1.00
Br504  Br    0.65149   0.08558   0.86723   0.00000  Uiso   1.00
C505   C     0.51506   0.26674   0.75131   0.00000  Uiso   1.00
C506   C     0.53928   0.17110   0.66663   0.00000  Uiso   1.00
C507   C     0.43571   0.15565   0.88150   0.00000  Uiso   1.00
C508   C     0.56429   0.17768   0.61850   0.00000  Uiso   1.00
C509   C     0.35879   0.11221   0.94565   0.00000  Uiso   1.00
C510   C     0.64121   0.22112   0.55435   0.00000  Uiso   1.00
C511   C     0.37674   0.12138   0.90045   0.00000  Uiso   1.00
C512   C     0.62326   0.21195   0.59955   0.00000  Uiso   1.00
C513   C     0.47505   0.18053   0.90875   0.00000  Uiso   1.00
C514   C     0.52495   0.15280   0.59125   0.00000  Uiso   1.00
C515   C     0.46315   0.16219   0.95214   0.00000  Uiso   1.00
C516   C     0.48494   0.06659   0.74869   0.00000  Uiso   1.00
C517   C     0.53685   0.17114   0.54786   0.00000  Uiso   1.00
C518   C     0.40153   0.13178   0.97145   0.00000  Uiso   1.00
C519   C     0.59847   0.20155   0.52855   0.00000  Uiso   1.00
C520   C     0.50949   0.17307   0.97719   0.00000  Uiso   1.00
C521   C     0.49051   0.16026   0.52281   0.00000  Uiso   1.00
C522   C     0.42525   0.13991   0.54235   0.00000  Uiso   1.00
C523   C     0.57475   0.19342   0.95765   0.00000  Uiso   1.00
C524   C     0.38246   0.12270   0.51668   0.00000  Uiso   1.00
C525   C     0.61755   0.21063   0.98332   0.00000  Uiso   1.00
C526   C     0.52352   0.32272   0.75198   0.00000  Uiso   1.00
C527   C     0.47648   0.01061   0.74802   0.00000  Uiso   1.00
C528   C     0.46072   0.16224   0.83337   0.00000  Uiso   1.00
Cu529  Cu    0.44071   0.16108   0.74516   0.00000  Uiso   1.00
Cu530  Cu    0.55929   0.17225   0.75484   0.00000  Uiso   1.00
H531   H     0.33362   0.10363   0.53254   0.00000  Uiso   1.00
H532   H     0.66556   0.12847   0.71538   0.00000  Uiso   1.00
H533   H     0.66638   0.22970   0.96746   0.00000  Uiso   1.00
H534   H     0.64547   0.08803   0.96038   0.00000  Uiso   1.00
H535   H     0.35453   0.24531   0.53962   0.00000  Uiso   1.00
H536   H     0.40624   0.13723   0.57762   0.00000  Uiso   1.00
H537   H     0.59376   0.19610   0.92238   0.00000  Uiso   1.00
H538   H     0.56881   0.01324   0.75573   0.00000  Uiso   1.00
H539   H     0.43119   0.32009   0.74427   0.00000  Uiso   1.00
H540   H     0.33444   0.20486   0.78462   0.00000  Uiso   1.00
N541   N     0.64839   0.18068   0.76212   0.00000  Uiso   1.00
N542   N     0.35161   0.15265   0.73788   0.00000  Uiso   1.00
O543   O     0.46148   0.23809   0.74686   0.00000  Uiso   1.00
O544   O     0.53852   0.09524   0.75314   0.00000  Uiso   1.00
O545   O     0.56163   0.24753   0.75503   0.00000  Uiso   1.00
O546   O     0.43837   0.08580   0.74497   0.00000  Uiso   1.00
O547   O     0.42185   0.15930   0.80854   0.00000  Uiso   1.00
O548   O     0.57815   0.17403   0.69146   0.00000  Uiso   1.00
O549   O     0.52199   0.16874   0.81671   0.00000  Uiso   1.00
O550   O     0.47801   0.16460   0.68329   0.00000  Uiso   1.00
Br551  Br    0.80468   0.08391   0.60914   0.00000  Uiso   1.00
Br552  Br    0.86199   0.24942   0.89086   0.00000  Uiso   1.00
Br553  Br    0.68184   0.24776   0.63277   0.00000  Uiso   1.00
Br554  Br    0.98482   0.08558   0.86723   0.00000  Uiso   1.00
C555   C     0.84839   0.26674   0.75131   0.00000  Uiso   1.00
C556   C     0.87261   0.17110   0.66663   0.00000  Uiso   1.00
C557   C     0.76905   0.15565   0.88150   0.00000  Uiso   1.00
C558   C     0.89762   0.17768   0.61850   0.00000  Uiso   1.00
C559   C     0.69213   0.11221   0.94565   0.00000  Uiso   1.00
C560   C     0.97454   0.22112   0.55435   0.00000  Uiso   1.00
C561   C     0.71007   0.12138   0.90045   0.00000  Uiso   1.00
C562   C     0.95659   0.21195   0.59955   0.00000  Uiso   1.00
C563   C     0.80839   0.18053   0.90875   0.00000  Uiso   1.00
C564   C     0.85828   0.15280   0.59125   0.00000  Uiso   1.00
C565   C     0.79648   0.16219   0.95214   0.00000  Uiso   1.00
C566   C     0.81828   0.06659   0.74869   0.00000  Uiso   1.00
C567   C     0.87019   0.17114   0.54786   0.00000  Uiso   1.00
C568   C     0.73487   0.13178   0.97145   0.00000  Uiso   1.00
C569   C     0.93180   0.20155   0.52855   0.00000  Uiso   1.00
C570   C     0.84282   0.17307   0.97719   0.00000  Uiso   1.00
C571   C     0.82385   0.16026   0.52281   0.00000  Uiso   1.00
C572   C     0.75859   0.13991   0.54235   0.00000  Uiso   1.00
C573   C     0.90808   0.19342   0.95765   0.00000  Uiso   1.00
C574   C     0.71579   0.12270   0.51668   0.00000  Uiso   1.00
C575   C     0.95088   0.21063   0.98332   0.00000  Uiso   1.00
C576   C     0.85685   0.32272   0.75198   0.00000  Uiso   1.00
C577   C     0.80982   0.01061   0.74802   0.00000  Uiso   1.00
C578   C     0.79406   0.16224   0.83337   0.00000  Uiso   1.00
Cu579  Cu    0.77404   0.16108   0.74516   0.00000  Uiso   1.00
Cu580  Cu    0.89263   0.17225   0.75484   0.00000  Uiso   1.00
H581   H     0.66695   0.10363   0.53254   0.00000  Uiso   1.00
H582   H     0.99890   0.12847   0.71538   0.00000  Uiso   1.00
H583   H     0.99971   0.22970   0.96746   0.00000  Uiso   1.00
H584   H     0.97880   0.08803   0.96038   0.00000  Uiso   1.00
H585   H     0.68787   0.24531   0.53962   0.00000  Uiso   1.00
H586   H     0.73957   0.13723   0.57762   0.00000  Uiso   1.00
H587   H     0.92710   0.19610   0.92238   0.00000  Uiso   1.00
H588   H     0.90214   0.01324   0.75573   0.00000  Uiso   1.00
H589   H     0.76452   0.32009   0.74427   0.00000  Uiso   1.00
H590   H     0.66777   0.20486   0.78462   0.00000  Uiso   1.00
N591   N     0.98173   0.18068   0.76212   0.00000  Uiso   1.00
N592   N     0.68494   0.15265   0.73788   0.00000  Uiso   1.00
O593   O     0.79482   0.23809   0.74686   0.00000  Uiso   1.00
O594   O     0.87185   0.09524   0.75314   0.00000  Uiso   1.00
O595   O     0.89496   0.24753   0.75503   0.00000  Uiso   1.00
O596   O     0.77171   0.08580   0.74497   0.00000  Uiso   1.00
O597   O     0.75518   0.15930   0.80854   0.00000  Uiso   1.00
O598   O     0.91149   0.17403   0.69146   0.00000  Uiso   1.00
O599   O     0.85532   0.16874   0.81671   0.00000  Uiso   1.00
O600   O     0.81134   0.16460   0.68329   0.00000  Uiso   1.00
Br601  Br    0.13801   0.41725   0.60914   0.00000  Uiso   1.00
Br602  Br    0.19532   0.58275   0.89086   0.00000  Uiso   1.00
Br603  Br    0.01517   0.58109   0.63277   0.00000  Uiso   1.00
Br604  Br    0.31816   0.41891   0.86723   0.00000  Uiso   1.00
C605   C     0.18172   0.60008   0.75131   0.00000  Uiso   1.00
C606   C     0.20594   0.50443   0.66663   0.00000  Uiso   1.00
C607   C     0.10238   0.48899   0.88150   0.00000  Uiso   1.00
C608   C     0.23095   0.51101   0.61850   0.00000  Uiso   1.00
C609   C     0.02546   0.44554   0.94565   0.00000  Uiso   1.00
C610   C     0.30787   0.55445   0.55435   0.00000  Uiso   1.00
C611   C     0.04341   0.45471   0.90045   0.00000  Uiso   1.00
C612   C     0.28993   0.54529   0.59955   0.00000  Uiso   1.00
C613   C     0.14172   0.51386   0.90875   0.00000  Uiso   1.00
C614   C     0.19161   0.48614   0.59125   0.00000  Uiso   1.00
C615   C     0.12981   0.49553   0.95214   0.00000  Uiso   1.00
C616   C     0.15161   0.39992   0.74869   0.00000  Uiso   1.00
C617   C     0.20352   0.50447   0.54786   0.00000  Uiso   1.00
C618   C     0.06820   0.46511   0.97145   0.00000  Uiso   1.00
C619   C     0.26514   0.53489   0.52855   0.00000  Uiso   1.00
C620   C     0.17615   0.50640   0.97719   0.00000  Uiso   1.00
C621   C     0.15718   0.49359   0.52281   0.00000  Uiso   1.00
C622   C     0.09192   0.47324   0.54235   0.00000  Uiso   1.00
C623   C     0.24142   0.52675   0.95765   0.00000  Uiso   1.00
C624   C     0.04912   0.45603   0.51668   0.00000  Uiso   1.00
C625   C     0.28421   0.54396   0.98332   0.00000  Uiso   1.00
C626   C     0.19018   0.65605   0.75198   0.00000  Uiso   1.00
C627   C     0.14315   0.34395   0.74802   0.00000  Uiso   1.00
C628   C     0.12739   0.49557   0.83337   0.00000  Uiso   1.00
Cu629  Cu    0.10737   0.49441   0.74516   0.00000  Uiso   1.00
Cu630  Cu    0.22596   0.50559   0.75484   0.00000  Uiso   1.00
H631   H     0.00029   0.43697   0.53254   0.00000  Uiso   1.00
H632   H     0.33223   0.46181   0.71538   0.00000  Uiso   1.00
H633   H     0.33305   0.56303   0.96746   0.00000  Uiso   1.00
H634   H     0.31213   0.42136   0.96038   0.00000  Uiso   1.00
H635   H     0.02120   0.57864   0.53962   0.00000  Uiso   1.00
H636   H     0.07291   0.47056   0.57762   0.00000  Uiso   1.00
H637   H     0.26043   0.52943   0.92238   0.00000  Uiso   1.00
H638   H     0.23548   0.34657   0.75573   0.00000  Uiso   1.00
H639   H     0.09786   0.65343   0.74427   0.00000  Uiso   1.00
H640   H     0.00110   0.53819   0.78462   0.00000  Uiso   1.00
N641   N     0.31506   0.51401   0.76212   0.00000  Uiso   1.00
N642   N     0.01827   0.48599   0.73788   0.00000  Uiso   1.00
O643   O     0.12815   0.57142   0.74686   0.00000  Uiso   1.00
O644   O     0.20518   0.42858   0.75314   0.00000  Uiso   1.00
O645   O     0.22829   0.58086   0.75503   0.00000  Uiso   1.00
O646   O     0.10504   0.41914   0.74497   0.00000  Uiso   1.00
O647   O     0.08851   0.49263   0.80854   0.00000  Uiso   1.00
O648   O     0.24482   0.50737   0.69146   0.00000  Uiso   1.00
O649   O     0.18866   0.50207   0.81671   0.00000  Uiso   1.00
O650   O     0.14468   0.49793   0.68329   0.00000  Uiso   1.00
Br651  Br    0.47134   0.41725   0.60914   0.00000  Uiso   1.00
Br652  Br    0.52866   0.58275   0.89086   0.00000  Uiso   1.00
Br653  Br    0.34851   0.58109   0.63277   0.00000  Uiso   1.00
Br654  Br    0.65149   0.41891   0.86723   0.00000  Uiso   1.00
C655   C     0.51506   0.60008   0.75131   0.00000  Uiso   1.00
C656   C     0.53928   0.50443   0.66663   0.00000  Uiso   1.00
C657   C     0.43571   0.48899   0.88150   0.00000  Uiso   1.00
C658   C     0.56429   0.51101   0.61850   0.00000  Uiso   1.00
C659   C     0.35879   0.44554   0.94565   0.00000  Uiso   1.00
C660   C     0.64121   0.55445   0.55435   0.00000  Uiso   1.00
C661   C     0.37674   0.45471   0.90045   0.00000  Uiso   1.00
C662   C     0.62326   0.54529   0.59955   0.00000  Uiso   1.00
C663   C     0.47505   0.51386   0.90875   0.00000  Uiso   1.00
C664   C     0.52495   0.48614   0.59125   0.00000  Uiso   1.00
C665   C     0.46315   0.49553   0.95214   0.00000  Uiso   1.00
C666   C     0.48494   0.39992   0.74869   0.00000  Uiso   1.00
C667   C     0.53685   0.50447   0.54786   0.00000  Uiso   1.00
C668   C     0.40153   0.46511   0.97145   0.00000  Uiso   1.00
C669   C     0.59847   0.53489   0.52855   0.00000  Uiso   1.00
C670   C     0.50949   0.50640   0.97719   0.00000  Uiso   1.00
C671   C     0.49051   0.49359   0.52281   0.00000  Uiso   1.00
C672   C     0.42525   0.47324   0.54235   0.00000  Uiso   1.00
C673   C     0.57475   0.52675   0.95765   0.00000  Uiso   1.00
C674   C     0.38246   0.45603   0.51668   0.00000  Uiso   1.00
C675   C     0.61755   0.54396   0.98332   0.00000  Uiso   1.00
C676   C     0.52352   0.65605   0.75198   0.00000  Uiso   1.00
C677   C     0.47648   0.34395   0.74802   0.00000  Uiso   1.00
C678   C     0.46072   0.49557   0.83337   0.00000  Uiso   1.00
Cu679  Cu    0.44071   0.49441   0.74516   0.00000  Uiso   1.00
Cu680  Cu    0.55929   0.50559   0.75484   0.00000  Uiso   1.00
H681   H     0.33362   0.43697   0.53254   0.00000  Uiso   1.00
H682   H     0.66556   0.46181   0.71538   0.00000  Uiso   1.00
H683   H     0.66638   0.56303   0.96746   0.00000  Uiso   1.00
H684   H     0.64547   0.42136   0.96038   0.00000  Uiso   1.00
H685   H     0.35453   0.57864   0.53962   0.00000  Uiso   1.00
H686   H     0.40624   0.47056   0.57762   0.00000  Uiso   1.00
H687   H     0.59376   0.52943   0.92238   0.00000  Uiso   1.00
H688   H     0.56881   0.34657   0.75573   0.00000  Uiso   1.00
H689   H     0.43119   0.65343   0.74427   0.00000  Uiso   1.00
H690   H     0.33444   0.53819   0.78462   0.00000  Uiso   1.00
N691   N     0.64839   0.51401   0.76212   0.00000  Uiso   1.00
N692   N     0.35161   0.48599   0.73788   0.00000  Uiso   1.00
O693   O     0.46148   0.57142   0.74686   0.00000  Uiso   1.00
O694   O     0.53852   0.42858   0.75314   0.00000  Uiso   1.00
O695   O     0.56163   0.58086   0.75503   0.00000  Uiso   1.00
O696   O     0.43837   0.41914   0.74497   0.00000  Uiso   1.00
O697   O     0.42185   0.49263   0.80854   0.00000  Uiso   1.00
O698   O     0.57815   0.50737   0.69146   0.00000  Uiso   1.00
O699   O     0.52199   0.50207   0.81671   0.00000  Uiso   1.00
O700   O     0.47801   0.49793   0.68329   0.00000  Uiso   1.00
Br701  Br    0.80468   0.41725   0.60914   0.00000  Uiso   1.00
Br702  Br    0.86199   0.58275   0.89086   0.00000  Uiso   1.00
Br703  Br    0.68184   0.58109   0.63277   0.00000  Uiso   1.00
Br704  Br    0.98482   0.41891   0.86723   0.00000  Uiso   1.00
C705   C     0.84839   0.60008   0.75131   0.00000  Uiso   1.00
C706   C     0.87261   0.50443   0.66663   0.00000  Uiso   1.00
C707   C     0.76905   0.48899   0.88150   0.00000  Uiso   1.00
C708   C     0.89762   0.51101   0.61850   0.00000  Uiso   1.00
C709   C     0.69213   0.44554   0.94565   0.00000  Uiso   1.00
C710   C     0.97454   0.55445   0.55435   0.00000  Uiso   1.00
C711   C     0.71007   0.45471   0.90045   0.00000  Uiso   1.00
C712   C     0.95659   0.54529   0.59955   0.00000  Uiso   1.00
C713   C     0.80839   0.51386   0.90875   0.00000  Uiso   1.00
C714   C     0.85828   0.48614   0.59125   0.00000  Uiso   1.00
C715   C     0.79648   0.49553   0.95214   0.00000  Uiso   1.00
C716   C     0.81828   0.39992   0.74869   0.00000  Uiso   1.00
C717   C     0.87019   0.50447   0.54786   0.00000  Uiso   1.00
C718   C     0.73487   0.46511   0.97145   0.00000  Uiso   1.00
C719   C     0.93180   0.53489   0.52855   0.00000  Uiso   1.00
C720   C     0.84282   0.50640   0.97719   0.00000  Uiso   1.00
C721   C     0.82385   0.49359   0.52281   0.00000  Uiso   1.00
C722   C     0.75859   0.47324   0.54235   0.00000  Uiso   1.00
C723   C     0.90808   0.52675   0.95765   0.00000  Uiso   1.00
C724   C     0.71579   0.45603   0.51668   0.00000  Uiso   1.00
C725   C     0.95088   0.54396   0.98332   0.00000  Uiso   1.00
C726   C     0.85685   0.65605   0.75198   0.00000  Uiso   1.00
C727   C     0.80982   0.34395   0.74802   0.00000  Uiso   1.00
C728   C     0.79406   0.49557   0.83337   0.00000  Uiso   1.00
Cu729  Cu    0.77404   0.49441   0.74516   0.00000  Uiso   1.00
Cu730  Cu    0.89263   0.50559   0.75484   0.00000  Uiso   1.00
H731   H     0.66695   0.43697   0.53254   0.00000  Uiso   1.00
H732   H     0.99890   0.46181   0.71538   0.00000  Uiso   1.00
H733   H     0.99971   0.56303   0.96746   0.00000  Uiso   1.00
H734   H     0.97880   0.42136   0.96038   0.00000  Uiso   1.00
H735   H     0.68787   0.57864   0.53962   0.00000  Uiso   1.00
H736   H     0.73957   0.47056   0.57762   0.00000  Uiso   1.00
H737   H     0.92710   0.52943   0.92238   0.00000  Uiso   1.00
H738   H     0.90214   0.34657   0.75573   0.00000  Uiso   1.00
H739   H     0.76452   0.65343   0.74427   0.00000  Uiso   1.00
H740   H     0.66777   0.53819   0.78462   0.00000  Uiso   1.00
N741   N     0.98173   0.51401   0.76212   0.00000  Uiso   1.00
N742   N     0.68494   0.48599   0.73788   0.00000  Uiso   1.00
O743   O     0.79482   0.57142   0.74686   0.00000  Uiso   1.00
O744   O     0.87185   0.42858   0.75314   0.00000  Uiso   1.00
O745   O     0.89496   0.58086   0.75503   0.00000  Uiso   1.00
O746   O     0.77171   0.41914   0.74497   0.00000  Uiso   1.00
O747   O     0.75518   0.49263   0.80854   0.00000  Uiso   1.00
O748   O     0.91149   0.50737   0.69146   0.00000  Uiso   1.00
O749   O     0.85532   0.50207   0.81671   0.00000  Uiso   1.00
O750   O     0.81134   0.49793   0.68329   0.00000  Uiso   1.00
Br751  Br    0.13801   0.75058   0.60914   0.00000  Uiso   1.00
Br752  Br    0.19532   0.91608   0.89086   0.00000  Uiso   1.00
Br753  Br    0.01517   0.91443   0.63277   0.00000  Uiso   1.00
Br754  Br    0.31816   0.75224   0.86723   0.00000  Uiso   1.00
C755   C     0.18172   0.93341   0.75131   0.00000  Uiso   1.00
C756   C     0.20594   0.83776   0.66663   0.00000  Uiso   1.00
C757   C     0.10238   0.82232   0.88150   0.00000  Uiso   1.00
C758   C     0.23095   0.84434   0.61850   0.00000  Uiso   1.00
C759   C     0.02546   0.77888   0.94565   0.00000  Uiso   1.00
C760   C     0.30787   0.88779   0.55435   0.00000  Uiso   1.00
C761   C     0.04341   0.78805   0.90045   0.00000  Uiso   1.00
C762   C     0.28993   0.87862   0.59955   0.00000  Uiso   1.00
C763   C     0.14172   0.84719   0.90875   0.00000  Uiso   1.00
C764   C     0.19161   0.81947   0.59125   0.00000  Uiso   1.00
C765   C     0.12981   0.82886   0.95214   0.00000  Uiso   1.00
C766   C     0.15161   0.73326   0.74869   0.00000  Uiso   1.00
C767   C     0.20352   0.83780   0.54786   0.00000  Uiso   1.00
C768   C     0.06820   0.79844   0.97145   0.00000  Uiso   1.00
C769   C     0.26514   0.86822   0.52855   0.00000  Uiso   1.00
C770   C     0.17615   0.83974   0.97719   0.00000  Uiso   1.00
C771   C     0.15718   0.82692   0.52281   0.00000  Uiso   1.00
C772   C     0.09192   0.80657   0.54235   0.00000  Uiso   1.00
C773   C     0.24142   0.86009   0.95765   0.00000  Uiso   1.00
C774   C     0.04912   0.78936   0.51668   0.00000  Uiso   1.00
C775   C     0.28421   0.87730   0.98332   0.00000  Uiso   1.00
C776   C     0.19018   0.98939   0.75198   0.00000  Uiso   1.00
C777   C     0.14315   0.67728   0.74802   0.00000  Uiso   1.00
C778   C     0.12739   0.82890   0.83337   0.00000  Uiso   1.00
Cu779  Cu    0.10737   0.82775   0.74516   0.00000  Uiso   1.00
Cu780  Cu    0.22596   0.83892   0.75484   0.00000  Uiso   1.00
H781   H     0.00029   0.77030   0.53254   0.00000  Uiso   1.00
H782   H     0.33223   0.79514   0.71538   0.00000  Uiso   1.00
H783   H     0.33305   0.89636   0.96746   0.00000  Uiso   1.00
H784   H     0.31213   0.75469   0.96038   0.00000  Uiso   1.00
H785   H     0.02120   0.91197   0.53962   0.00000  Uiso   1.00
H786   H     0.07291   0.80390   0.57762   0.00000  Uiso   1.00
H787   H     0.26043   0.86276   0.92238   0.00000  Uiso   1.00
H788   H     0.23548   0.67991   0.75573   0.00000  Uiso   1.00
H789   H     0.09786   0.98676   0.74427   0.00000  Uiso   1.00
H790   H     0.00110   0.87153   0.78462   0.00000  Uiso   1.00
N791   N     0.31506   0.84735   0.76212   0.00000  Uiso   1.00
N792   N     0.01827   0.81932   0.73788   0.00000  Uiso   1.00
O793   O     0.12815   0.90476   0.74686   0.00000  Uiso   1.00
O794   O     0.20518   0.76191   0.75314   0.00000  Uiso   1.00
O795   O     0.22829   0.91420   0.75503   0.00000  Uiso   1.00
O796   O     0.10504   0.75247   0.74497   0.00000  Uiso   1.00
O797   O     0.08851   0.82597   0.80854   0.00000  Uiso   1.00
O798   O     0.24482   0.84070   0.69146   0.00000  Uiso   1.00
O799   O     0.18866   0.83540   0.81671   0.00000  Uiso   1.00
O800   O     0.14468   0.83126   0.68329   0.00000  Uiso   1.00
Br801  Br    0.47134   0.75058   0.60914   0.00000  Uiso   1.00
Br802  Br    0.52866   0.91608   0.89086   0.00000  Uiso   1.00
Br803  Br    0.34851   0.91443   0.63277   0.00000  Uiso   1.00
Br804  Br    0.65149   0.75224   0.86723   0.00000  Uiso   1.00
C805   C     0.51506   0.93341   0.75131   0.00000  Uiso   1.00
C806   C     0.53928   0.83776   0.66663   0.00000  Uiso   1.00
C807   C     0.43571   0.82232   0.88150   0.00000  Uiso   1.00
C808   C     0.56429   0.84434   0.61850   0.00000  Uiso   1.00
C809   C     0.35879   0.77888   0.94565   0.00000  Uiso   1.00
C810   C     0.64121   0.88779   0.55435   0.00000  Uiso   1.00
C811   C     0.37674   0.78805   0.90045   0.00000  Uiso   1.00
C812   C     0.62326   0.87862   0.59955   0.00000  Uiso   1.00
C813   C     0.47505   0.84719   0.90875   0.00000  Uiso   1.00
C814   C     0.52495   0.81947   0.59125   0.00000  Uiso   1.00
C815   C     0.46315   0.82886   0.95214   0.00000  Uiso   1.00
C816   C     0.48494   0.73326   0.74869   0.00000  Uiso   1.00
C817   C     0.53685   0.83780   0.54786   0.00000  Uiso   1.00
C818   C     0.40153   0.79844   0.97145   0.00000  Uiso   1.00
C819   C     0.59847   0.86822   0.52855   0.00000  Uiso   1.00
C820   C     0.50949   0.83974   0.97719   0.00000  Uiso   1.00
C821   C     0.49051   0.82692   0.52281   0.00000  Uiso   1.00
C822   C     0.42525   0.80657   0.54235   0.00000  Uiso   1.00
C823   C     0.57475   0.86009   0.95765   0.00000  Uiso   1.00
C824   C     0.38246   0.78936   0.51668   0.00000  Uiso   1.00
C825   C     0.61755   0.87730   0.98332   0.00000  Uiso   1.00
C826   C     0.52352   0.98939   0.75198   0.00000  Uiso   1.00
C827   C     0.47648   0.67728   0.74802   0.00000  Uiso   1.00
C828   C     0.46072   0.82890   0.83337   0.00000  Uiso   1.00
Cu829  Cu    0.44071   0.82775   0.74516   0.00000  Uiso   1.00
Cu830  Cu    0.55929   0.83892   0.75484   0.00000  Uiso   1.00
H831   H     0.33362   0.77030   0.53254   0.00000  Uiso   1.00
H832   H     0.66556   0.79514   0.71538   0.00000  Uiso   1.00
H833   H     0.66638   0.89636   0.96746   0.00000  Uiso   1.00
H834   H     0.64547   0.75469   0.96038   0.00000  Uiso   1.00
H835   H     0.35453   0.91197   0.53962   0.00000  Uiso   1.00
H836   H     0.40624   0.80390   0.57762   0.00000  Uiso   1.00
H837   H     0.59376   0.86276   0.92238   0.00000  Uiso   1.00
H838   H     0.56881   0.67991   0.75573   0.00000  Uiso   1.00
H839   H     0.43119   0.98676   0.74427   0.00000  Uiso   1.00
H840   H     0.33444   0.87153   0.78462   0.00000  Uiso   1.00
N841   N     0.64839   0.84735   0.76212   0.00000  Uiso   1.00
N842   N     0.35161   0.81932   0.73788   0.00000  Uiso   1.00
O843   O     0.46148   0.90476   0.74686   0.00000  Uiso   1.00
O844   O     0.53852   0.76191   0.75314   0.00000  Uiso   1.00
O845   O     0.56163   0.91420   0.75503   0.00000  Uiso   1.00
O846   O     0.43837   0.75247   0.74497   0.00000  Uiso   1.00
O847   O     0.42185   0.82597   0.80854   0.00000  Uiso   1.00
O848   O     0.57815   0.84070   0.69146   0.00000  Uiso   1.00
O849   O     0.52199   0.83540   0.81671   0.00000  Uiso   1.00
O850   O     0.47801   0.83126   0.68329   0.00000  Uiso   1.00
Br851  Br    0.80468   0.75058   0.60914   0.00000  Uiso   1.00
Br852  Br    0.86199   0.91608   0.89086   0.00000  Uiso   1.00
Br853  Br    0.68184   0.91443   0.63277   0.00000  Uiso   1.00
Br854  Br    0.98482   0.75224   0.86723   0.00000  Uiso   1.00
C855   C     0.84839   0.93341   0.75131   0.00000  Uiso   1.00
C856   C     0.87261   0.83776   0.66663   0.00000  Uiso   1.00
C857   C     0.76905   0.82232   0.88150   0.00000  Uiso   1.00
C858   C     0.89762   0.84434   0.61850   0.00000  Uiso   1.00
C859   C     0.69213   0.77888   0.94565   0.00000  Uiso   1.00
C860   C     0.97454   0.88779   0.55435   0.00000  Uiso   1.00
C861   C     0.71007   0.78805   0.90045   0.00000  Uiso   1.00
C862   C     0.95659   0.87862   0.59955   0.00000  Uiso   1.00
C863   C     0.80839   0.84719   0.90875   0.00000  Uiso   1.00
C864   C     0.85828   0.81947   0.59125   0.00000  Uiso   1.00
C865   C     0.79648   0.82886   0.95214   0.00000  Uiso   1.00
C866   C     0.81828   0.73326   0.74869   0.00000  Uiso   1.00
C867   C     0.87019   0.83780   0.54786   0.00000  Uiso   1.00
C868   C     0.73487   0.79844   0.97145   0.00000  Uiso   1.00
C869   C     0.93180   0.86822   0.52855   0.00000  Uiso   1.00
C870   C     0.84282   0.83974   0.97719   0.00000  Uiso   1.00
C871   C     0.82385   0.82692   0.52281   0.00000  Uiso   1.00
C872   C     0.75859   0.80657   0.54235   0.00000  Uiso   1.00
C873   C     0.90808   0.86009   0.95765   0.00000  Uiso   1.00
C874   C     0.71579   0.78936   0.51668   0.00000  Uiso   1.00
C875   C     0.95088   0.87730   0.98332   0.00000  Uiso   1.00
C876   C     0.85685   0.98939   0.75198   0.00000  Uiso   1.00
C877   C     0.80982   0.67728   0.74802   0.00000  Uiso   1.00
C878   C     0.79406   0.82890   0.83337   0.00000  Uiso   1.00
Cu879  Cu    0.77404   0.82775   0.74516   0.00000  Uiso   1.00
Cu880  Cu    0.89263   0.83892   0.75484   0.00000  Uiso   1.00
H881   H     0.66695   0.77030   0.53254   0.00000  Uiso   1.00
H882   H     0.99890   0.79514   0.71538   0.00000  Uiso   1.00
H883   H     0.99971   0.89636   0.96746   0.00000  Uiso   1.00
H884   H     0.97880   0.75469   0.96038   0.00000  Uiso   1.00
H885   H     0.68787   0.91197   0.53962   0.00000  Uiso   1.00
H886   H     0.73957   0.80390   0.57762   0.00000  Uiso   1.00
H887   H     0.92710   0.86276   0.92238   0.00000  Uiso   1.00
H888   H     0.90214   0.67991   0.75573   0.00000  Uiso   1.00
H889   H     0.76452   0.98676   0.74427   0.00000  Uiso   1.00
H890   H     0.66777   0.87153   0.78462   0.00000  Uiso   1.00
N891   N     0.98173   0.84735   0.76212   0.00000  Uiso   1.00
N892   N     0.68494   0.81932   0.73788   0.00000  Uiso   1.00
O893   O     0.79482   0.90476   0.74686   0.00000  Uiso   1.00
O894   O     0.87185   0.76191   0.75314   0.00000  Uiso   1.00
O895   O     0.89496   0.91420   0.75503   0.00000  Uiso   1.00
O896   O     0.77171   0.75247   0.74497   0.00000  Uiso   1.00
O897   O     0.75518   0.82597   0.80854   0.00000  Uiso   1.00
O898   O     0.91149   0.84070   0.69146   0.00000  Uiso   1.00
O899   O     0.85532   0.83540   0.81671   0.00000  Uiso   1.00
O900   O     0.81134   0.83126   0.68329   0.00000  Uiso   1.00
loop_
_geom_bond_atom_site_label_1
_geom_bond_atom_site_label_2
_geom_bond_distance
_geom_bond_site_symmetry_2
_ccdc_geom_bond_type
Br1    C14     1.942   .     S
Br2    C13     1.942   .     S
Br3    C112    1.923   1_455 S
Br4    C61     1.923   .     S
C5     O43     1.291   .     A
C5     C26     1.427   .     S
C5     O45     1.285   .     A
C6     O48     1.300   .     A
C6     C8      1.475   .     S
C6     O50     1.299   .     A
C7     C11     1.413   .     A
C7     C13     1.409   .     A
C7     C28     1.475   .     S
C8     C14     1.409   .     A
C8     C12     1.413   .     A
C9     C11     1.394   .     A
C9     C18     1.399   .     A
C9     H134    1.084   1_455 S
C10    C12     1.393   .     A
C10    C19     1.399   .     A
C10    H85     1.084   .     S
C11    Br104   1.923   1_455 S
C12    Br53    1.923   .     S
C13    C15     1.416   .     A
C14    C17     1.416   .     A
C15    C18     1.416   .     A
C15    C20     1.427   .     A
C16    O44     1.291   .     A
C16    C27     1.427   .     S
C16    O46     1.285   .     A
C17    C19     1.416   .     A
C17    C21     1.427   .     A
C18    C474    1.393   .     S
C19    C475    1.393   1_554 S
C20    C23     1.409   .     A
C20    C471    1.425   .     S
C21    C22     1.409   .     A
C21    C470    1.425   1_554 S
C22    H36     1.078   .     S
C22    C24     1.388   .     A
C23    C25     1.388   .     A
C23    H37     1.078   .     S
C24    H31     1.084   .     S
C24    C468    1.393   1_554 S
C25    H33     1.084   .     S
C25    C469    1.393   .     S
C26    C177    1.329   .     S
C26    H188    1.088   .     S
C27    C326    1.329   1_545 S
C27    H339    1.088   1_545 S
C28    O47     1.300   .     A
C28    O49     1.299   .     A
Cu29   Cu30    2.686   .     S
Cu29   N42     2.018   .     S
Cu29   O46     1.951   .     S
Cu29   O43     1.954   .     S
Cu29   O47     1.927   .     S
Cu29   O50     1.901   .     S
Cu30   O45     1.951   .     S
Cu30   N41     2.018   .     S
Cu30   O44     1.954   .     S
Cu30   O48     1.927   .     S
Cu30   O49     1.901   .     S
H32    N92     1.029   .     S
H34    C59     1.084   .     S
H35    C110    1.084   1_455 S
H38    C326    1.088   1_545 S
H39    C177    1.088   .     S
H40    N141    1.029   1_455 S
N41    H90     1.029   .     S
N41    N92     1.280   .     S
N42    H132    1.029   1_455 S
N42    N141    1.280   1_455 S
Br51   C64     1.942   .     S
Br52   C63     1.942   .     S
Br54   C111    1.923   .     S
C55    O93     1.291   .     A
C55    C76     1.427   .     S
C55    O95     1.285   .     A
C56    O98     1.300   .     A
C56    C58     1.475   .     S
C56    O100    1.299   .     A
C57    C61     1.413   .     A
C57    C63     1.409   .     A
C57    C78     1.475   .     S
C58    C64     1.409   .     A
C58    C62     1.413   .     A
C59    C61     1.394   .     A
C59    C68     1.399   .     A
C60    C62     1.393   .     A
C60    C69     1.399   .     A
C60    H135    1.084   .     S
C62    Br103   1.923   .     S
C63    C65     1.416   .     A
C64    C67     1.416   .     A
C65    C68     1.416   .     A
C65    C70     1.427   .     A
C66    O94     1.291   .     A
C66    C77     1.427   .     S
C66    O96     1.285   .     A
C67    C69     1.416   .     A
C67    C71     1.427   .     A
C68    C524    1.393   .     S
C69    C525    1.393   1_554 S
C70    C73     1.409   .     A
C70    C521    1.425   .     S
C71    C72     1.409   .     A
C71    C520    1.425   1_554 S
C72    H86     1.078   .     S
C72    C74     1.388   .     A
C73    C75     1.388   .     A
C73    H87     1.078   .     S
C74    H81     1.084   .     S
C74    C518    1.393   1_554 S
C75    H83     1.084   .     S
C75    C519    1.393   .     S
C76    C227    1.329   .     S
C76    H238    1.088   .     S
C77    C376    1.329   1_545 S
C77    H389    1.088   1_545 S
C78    O97     1.300   .     A
C78    O99     1.299   .     A
Cu79   Cu80    2.686   .     S
Cu79   N92     2.018   .     S
Cu79   O96     1.951   .     S
Cu79   O93     1.954   .     S
Cu79   O97     1.927   .     S
Cu79   O100    1.901   .     S
Cu80   O95     1.951   .     S
Cu80   N91     2.018   .     S
Cu80   O94     1.954   .     S
Cu80   O98     1.927   .     S
Cu80   O99     1.901   .     S
H82    N142    1.029   .     S
H84    C109    1.084   .     S
H88    C376    1.088   1_545 S
H89    C227    1.088   .     S
N91    H140    1.029   .     S
N91    N142    1.280   .     S
Br101  C114    1.942   .     S
Br102  C113    1.942   .     S
Br104  C11     1.923   1_655 S
C105   O143    1.291   .     A
C105   C126    1.427   .     S
C105   O145    1.285   .     A
C106   O148    1.300   .     A
C106   C108    1.475   .     S
C106   O150    1.299   .     A
C107   C111    1.413   .     A
C107   C113    1.409   .     A
C107   C128    1.475   .     S
C108   C114    1.409   .     A
C108   C112    1.413   .     A
C109   C111    1.394   .     A
C109   C118    1.399   .     A
C110   C112    1.393   .     A
C110   C119    1.399   .     A
C110   H35     1.084   1_655 S
C112   Br3     1.923   1_655 S
C113   C115    1.416   .     A
C114   C117    1.416   .     A
C115   C118    1.416   .     A
C115   C120    1.427   .     A
C116   O144    1.291   .     A
C116   C127    1.427   .     S
C116   O146    1.285   .     A
C117   C119    1.416   .     A
C117   C121    1.427   .     A
C118   C574    1.393   .     S
C119   C575    1.393   1_554 S
C120   C123    1.409   .     A
C120   C571    1.425   .     S
C121   C122    1.409   .     A
C121   C570    1.425   1_554 S
C122   H136    1.078   .     S
C122   C124    1.388   .     A
C123   C125    1.388   .     A
C123   H137    1.078   .     S
C124   H131    1.084   .     S
C124   C568    1.393   1_554 S
C125   H133    1.084   .     S
C125   C569    1.393   .     S
C126   C277    1.329   .     S
C126   H288    1.088   .     S
C127   C426    1.329   1_545 S
C127   H439    1.088   1_545 S
C128   O147    1.300   .     A
C128   O149    1.299   .     A
Cu129  Cu130   2.686   .     S
Cu129  N142    2.018   .     S
Cu129  O146    1.951   .     S
Cu129  O143    1.954   .     S
Cu129  O147    1.927   .     S
Cu129  O150    1.901   .     S
Cu130  O145    1.951   .     S
Cu130  N141    2.018   .     S
Cu130  O144    1.954   .     S
Cu130  O148    1.927   .     S
Cu130  O149    1.901   .     S
H132   N42     1.029   1_655 S
H134   C9      1.084   1_655 S
H138   C426    1.088   1_545 S
H139   C277    1.088   .     S
N141   H40     1.029   1_655 S
N141   N42     1.280   1_655 S
Br151  C164    1.942   .     S
Br152  C163    1.942   .     S
Br153  C262    1.923   1_455 S
Br154  C211    1.923   .     S
C155   O193    1.291   .     A
C155   C176    1.427   .     S
C155   O195    1.285   .     A
C156   O198    1.300   .     A
C156   C158    1.475   .     S
C156   O200    1.299   .     A
C157   C161    1.413   .     A
C157   C163    1.409   .     A
C157   C178    1.475   .     S
C158   C164    1.409   .     A
C158   C162    1.413   .     A
C159   C161    1.394   .     A
C159   C168    1.399   .     A
C159   H284    1.084   1_455 S
C160   C162    1.393   .     A
C160   C169    1.399   .     A
C160   H235    1.084   .     S
C161   Br254   1.923   1_455 S
C162   Br203   1.923   .     S
C163   C165    1.416   .     A
C164   C167    1.416   .     A
C165   C168    1.416   .     A
C165   C170    1.427   .     A
C166   O194    1.291   .     A
C166   C177    1.427   .     S
C166   O196    1.285   .     A
C167   C169    1.416   .     A
C167   C171    1.427   .     A
C168   C624    1.393   .     S
C169   C625    1.393   1_554 S
C170   C173    1.409   .     A
C170   C621    1.425   .     S
C171   C172    1.409   .     A
C171   C620    1.425   1_554 S
C172   H186    1.078   .     S
C172   C174    1.388   .     A
C173   C175    1.388   .     A
C173   H187    1.078   .     S
C174   H181    1.084   .     S
C174   C618    1.393   1_554 S
C175   H183    1.084   .     S
C175   C619    1.393   .     S
C176   C327    1.329   .     S
C176   H338    1.088   .     S
C178   O197    1.300   .     A
C178   O199    1.299   .     A
Cu179  Cu180   2.686   .     S
Cu179  N192    2.018   .     S
Cu179  O196    1.951   .     S
Cu179  O193    1.954   .     S
Cu179  O197    1.927   .     S
Cu179  O200    1.901   .     S
Cu180  O195    1.951   .     S
Cu180  N191    2.018   .     S
Cu180  O194    1.954   .     S
Cu180  O198    1.927   .     S
Cu180  O199    1.901   .     S
H182   N242    1.029   .     S
H184   C209    1.084   .     S
H185   C260    1.084   1_455 S
H189   C327    1.088   .     S
H190   N291    1.029   1_455 S
N191   H240    1.029   .     S
N191   N242    1.280   .     S
N192   H282    1.029   1_455 S
N192   N291    1.280   1_455 S
Br201  C214    1.942   .     S
Br202  C213    1.942   .     S
Br204  C261    1.923   .     S
C205   O243    1.291   .     A
C205   C226    1.427   .     S
C205   O245    1.285   .     A
C206   O248    1.300   .     A
C206   C208    1.475   .     S
C206   O250    1.299   .     A
C207   C211    1.413   .     A
C207   C213    1.409   .     A
C207   C228    1.475   .     S
C208   C214    1.409   .     A
C208   C212    1.413   .     A
C209   C211    1.394   .     A
C209   C218    1.399   .     A
C210   C212    1.393   .     A
C210   C219    1.399   .     A
C210   H285    1.084   .     S
C212   Br253   1.923   .     S
C213   C215    1.416   .     A
C214   C217    1.416   .     A
C215   C218    1.416   .     A
C215   C220    1.427   .     A
C216   O244    1.291   .     A
C216   C227    1.427   .     S
C216   O246    1.285   .     A
C217   C219    1.416   .     A
C217   C221    1.427   .     A
C218   C674    1.393   .     S
C219   C675    1.393   1_554 S
C220   C223    1.409   .     A
C220   C671    1.425   .     S
C221   C222    1.409   .     A
C221   C670    1.425   1_554 S
C222   H236    1.078   .     S
C222   C224    1.388   .     A
C223   C225    1.388   .     A
C223   H237    1.078   .     S
C224   H231    1.084   .     S
C224   C668    1.393   1_554 S
C225   H233    1.084   .     S
C225   C669    1.393   .     S
C226   C377    1.329   .     S
C226   H388    1.088   .     S
C228   O247    1.300   .     A
C228   O249    1.299   .     A
Cu229  Cu230   2.686   .     S
Cu229  N242    2.018   .     S
Cu229  O246    1.951   .     S
Cu229  O243    1.954   .     S
Cu229  O247    1.927   .     S
Cu229  O250    1.901   .     S
Cu230  O245    1.951   .     S
Cu230  N241    2.018   .     S
Cu230  O244    1.954   .     S
Cu230  O248    1.927   .     S
Cu230  O249    1.901   .     S
H232   N292    1.029   .     S
H234   C259    1.084   .     S
H239   C377    1.088   .     S
N241   H290    1.029   .     S
N241   N292    1.280   .     S
Br251  C264    1.942   .     S
Br252  C263    1.942   .     S
Br254  C161    1.923   1_655 S
C255   O293    1.291   .     A
C255   C276    1.427   .     S
C255   O295    1.285   .     A
C256   O298    1.300   .     A
C256   C258    1.475   .     S
C256   O300    1.299   .     A
C257   C261    1.413   .     A
C257   C263    1.409   .     A
C257   C278    1.475   .     S
C258   C264    1.409   .     A
C258   C262    1.413   .     A
C259   C261    1.394   .     A
C259   C268    1.399   .     A
C260   C262    1.393   .     A
C260   C269    1.399   .     A
C260   H185    1.084   1_655 S
C262   Br153   1.923   1_655 S
C263   C265    1.416   .     A
C264   C267    1.416   .     A
C265   C268    1.416   .     A
C265   C270    1.427   .     A
C266   O294    1.291   .     A
C266   C277    1.427   .     S
C266   O296    1.285   .     A
C267   C269    1.416   .     A
C267   C271    1.427   .     A
C268   C724    1.393   .     S
C269   C725    1.393   1_554 S
C270   C273    1.409   .     A
C270   C721    1.425   .     S
C271   C272    1.409   .     A
C271   C720    1.425   1_554 S
C272   H286    1.078   .     S
C272   C274    1.388   .     A
C273   C275    1.388   .     A
C273   H287    1.078   .     S
C274   H281    1.084   .     S
C274   C718    1.393   1_554 S
C275   H283    1.084   .     S
C275   C719    1.393   .     S
C276   C427    1.329   .     S
C276   H438    1.088   .     S
C278   O297    1.300   .     A
C278   O299    1.299   .     A
Cu279  Cu280   2.686   .     S
Cu279  N292    2.018   .     S
Cu279  O296    1.951   .     S
Cu279  O293    1.954   .     S
Cu279  O297    1.927   .     S
Cu279  O300    1.901   .     S
Cu280  O295    1.951   .     S
Cu280  N291    2.018   .     S
Cu280  O294    1.954   .     S
Cu280  O298    1.927   .     S
Cu280  O299    1.901   .     S
H282   N192    1.029   1_655 S
H284   C159    1.084   1_655 S
H289   C427    1.088   .     S
N291   H190    1.029   1_655 S
N291   N192    1.280   1_655 S
Br301  C314    1.942   .     S
Br302  C313    1.942   .     S
Br303  C412    1.923   1_455 S
Br304  C361    1.923   .     S
C305   O343    1.291   .     A
C305   C326    1.427   .     S
C305   O345    1.285   .     A
C306   O348    1.300   .     A
C306   C308    1.475   .     S
C306   O350    1.299   .     A
C307   C311    1.413   .     A
C307   C313    1.409   .     A
C307   C328    1.475   .     S
C308   C314    1.409   .     A
C308   C312    1.413   .     A
C309   C311    1.394   .     A
C309   C318    1.399   .     A
C309   H434    1.084   1_455 S
C310   C312    1.393   .     A
C310   C319    1.399   .     A
C310   H385    1.084   .     S
C311   Br404   1.923   1_455 S
C312   Br353   1.923   .     S
C313   C315    1.416   .     A
C314   C317    1.416   .     A
C315   C318    1.416   .     A
C315   C320    1.427   .     A
C316   O344    1.291   .     A
C316   C327    1.427   .     S
C316   O346    1.285   .     A
C317   C319    1.416   .     A
C317   C321    1.427   .     A
C318   C774    1.393   .     S
C319   C775    1.393   1_554 S
C320   C323    1.409   .     A
C320   C771    1.425   .     S
C321   C322    1.409   .     A
C321   C770    1.425   1_554 S
C322   H336    1.078   .     S
C322   C324    1.388   .     A
C323   C325    1.388   .     A
C323   H337    1.078   .     S
C324   H331    1.084   .     S
C324   C768    1.393   1_554 S
C325   H333    1.084   .     S
C325   C769    1.393   .     S
C326   C27     1.329   1_565 S
C326   H38     1.088   1_565 S
C328   O347    1.300   .     A
C328   O349    1.299   .     A
Cu329  Cu330   2.686   .     S
Cu329  N342    2.018   .     S
Cu329  O346    1.951   .     S
Cu329  O343    1.954   .     S
Cu329  O347    1.927   .     S
Cu329  O350    1.901   .     S
Cu330  O345    1.951   .     S
Cu330  N341    2.018   .     S
Cu330  O344    1.954   .     S
Cu330  O348    1.927   .     S
Cu330  O349    1.901   .     S
H332   N392    1.029   .     S
H334   C359    1.084   .     S
H335   C410    1.084   1_455 S
H339   C27     1.088   1_565 S
H340   N441    1.029   1_455 S
N341   H390    1.029   .     S
N341   N392    1.280   .     S
N342   H432    1.029   1_455 S
N342   N441    1.280   1_455 S
Br351  C364    1.942   .     S
Br352  C363    1.942   .     S
Br354  C411    1.923   .     S
C355   O393    1.291   .     A
C355   C376    1.427   .     S
C355   O395    1.285   .     A
C356   O398    1.300   .     A
C356   C358    1.475   .     S
C356   O400    1.299   .     A
C357   C361    1.413   .     A
C357   C363    1.409   .     A
C357   C378    1.475   .     S
C358   C364    1.409   .     A
C358   C362    1.413   .     A
C359   C361    1.394   .     A
C359   C368    1.399   .     A
C360   C362    1.393   .     A
C360   C369    1.399   .     A
C360   H435    1.084   .     S
C362   Br403   1.923   .     S
C363   C365    1.416   .     A
C364   C367    1.416   .     A
C365   C368    1.416   .     A
C365   C370    1.427   .     A
C366   O394    1.291   .     A
C366   C377    1.427   .     S
C366   O396    1.285   .     A
C367   C369    1.416   .     A
C367   C371    1.427   .     A
C368   C824    1.393   .     S
C369   C825    1.393   1_554 S
C370   C373    1.409   .     A
C370   C821    1.425   .     S
C371   C372    1.409   .     A
C371   C820    1.425   1_554 S
C372   H386    1.078   .     S
C372   C374    1.388   .     A
C373   C375    1.388   .     A
C373   H387    1.078   .     S
C374   H381    1.084   .     S
C374   C818    1.393   1_554 S
C375   H383    1.084   .     S
C375   C819    1.393   .     S
C376   C77     1.329   1_565 S
C376   H88     1.088   1_565 S
C378   O397    1.300   .     A
C378   O399    1.299   .     A
Cu379  Cu380   2.686   .     S
Cu379  N392    2.018   .     S
Cu379  O396    1.951   .     S
Cu379  O393    1.954   .     S
Cu379  O397    1.927   .     S
Cu379  O400    1.901   .     S
Cu380  O395    1.951   .     S
Cu380  N391    2.018   .     S
Cu380  O394    1.954   .     S
Cu380  O398    1.927   .     S
Cu380  O399    1.901   .     S
H382   N442    1.029   .     S
H384   C409    1.084   .     S
H389   C77     1.088   1_565 S
N391   H440    1.029   .     S
N391   N442    1.280   .     S
Br401  C414    1.942   .     S
Br402  C413    1.942   .     S
Br404  C311    1.923   1_655 S
C405   O443    1.291   .     A
C405   C426    1.427   .     S
C405   O445    1.285   .     A
C406   O448    1.300   .     A
C406   C408    1.475   .     S
C406   O450    1.299   .     A
C407   C411    1.413   .     A
C407   C413    1.409   .     A
C407   C428    1.475   .     S
C408   C414    1.409   .     A
C408   C412    1.413   .     A
C409   C411    1.394   .     A
C409   C418    1.399   .     A
C410   C412    1.393   .     A
C410   C419    1.399   .     A
C410   H335    1.084   1_655 S
C412   Br303   1.923   1_655 S
C413   C415    1.416   .     A
C414   C417    1.416   .     A
C415   C418    1.416   .     A
C415   C420    1.427   .     A
C416   O444    1.291   .     A
C416   C427    1.427   .     S
C416   O446    1.285   .     A
C417   C419    1.416   .     A
C417   C421    1.427   .     A
C418   C874    1.393   .     S
C419   C875    1.393   1_554 S
C420   C423    1.409   .     A
C420   C871    1.425   .     S
C421   C422    1.409   .     A
C421   C870    1.425   1_554 S
C422   H436    1.078   .     S
C422   C424    1.388   .     A
C423   C425    1.388   .     A
C423   H437    1.078   .     S
C424   H431    1.084   .     S
C424   C868    1.393   1_554 S
C425   H433    1.084   .     S
C425   C869    1.393   .     S
C426   C127    1.329   1_565 S
C426   H138    1.088   1_565 S
C428   O447    1.300   .     A
C428   O449    1.299   .     A
Cu429  Cu430   2.686   .     S
Cu429  N442    2.018   .     S
Cu429  O446    1.951   .     S
Cu429  O443    1.954   .     S
Cu429  O447    1.927   .     S
Cu429  O450    1.901   .     S
Cu430  O445    1.951   .     S
Cu430  N441    2.018   .     S
Cu430  O444    1.954   .     S
Cu430  O448    1.927   .     S
Cu430  O449    1.901   .     S
H432   N342    1.029   1_655 S
H434   C309    1.084   1_655 S
H439   C127    1.088   1_565 S
N441   H340    1.029   1_655 S
N441   N342    1.280   1_655 S
Br451  C464    1.942   .     S
Br452  C463    1.942   .     S
Br453  C562    1.923   1_455 S
Br454  C511    1.923   .     S
C455   O493    1.291   .     A
C455   C476    1.427   .     S
C455   O495    1.285   .     A
C456   O498    1.300   .     A
C456   C458    1.475   .     S
C456   O500    1.299   .     A
C457   C461    1.413   .     A
C457   C463    1.409   .     A
C457   C478    1.475   .     S
C458   C464    1.409   .     A
C458   C462    1.413   .     A
C459   C461    1.394   .     A
C459   C468    1.399   .     A
C459   H584    1.084   1_455 S
C460   C462    1.393   .     A
C460   C469    1.399   .     A
C460   H535    1.084   .     S
C461   Br554   1.923   1_455 S
C462   Br503   1.923   .     S
C463   C465    1.416   .     A
C464   C467    1.416   .     A
C465   C468    1.416   .     A
C465   C470    1.427   .     A
C466   O494    1.291   .     A
C466   C477    1.427   .     S
C466   O496    1.285   .     A
C467   C469    1.416   .     A
C467   C471    1.427   .     A
C468   C24     1.393   1_556 S
C470   C473    1.409   .     A
C470   C21     1.425   1_556 S
C471   C472    1.409   .     A
C472   H486    1.078   .     S
C472   C474    1.388   .     A
C473   C475    1.388   .     A
C473   H487    1.078   .     S
C474   H481    1.084   .     S
C475   H483    1.084   .     S
C475   C19     1.393   1_556 S
C476   C627    1.329   .     S
C476   H638    1.088   .     S
C477   C776    1.329   1_545 S
C477   H789    1.088   1_545 S
C478   O497    1.300   .     A
C478   O499    1.299   .     A
Cu479  Cu480   2.686   .     S
Cu479  N492    2.018   .     S
Cu479  O496    1.951   .     S
Cu479  O493    1.954   .     S
Cu479  O497    1.927   .     S
Cu479  O500    1.901   .     S
Cu480  O495    1.951   .     S
Cu480  N491    2.018   .     S
Cu480  O494    1.954   .     S
Cu480  O498    1.927   .     S
Cu480  O499    1.901   .     S
H482   N542    1.029   .     S
H484   C509    1.084   .     S
H485   C560    1.084   1_455 S
H488   C776    1.088   1_545 S
H489   C627    1.088   .     S
H490   N591    1.029   1_455 S
N491   H540    1.029   .     S
N491   N542    1.280   .     S
N492   H582    1.029   1_455 S
N492   N591    1.280   1_455 S
Br501  C514    1.942   .     S
Br502  C513    1.942   .     S
Br504  C561    1.923   .     S
C505   O543    1.291   .     A
C505   C526    1.427   .     S
C505   O545    1.285   .     A
C506   O548    1.300   .     A
C506   C508    1.475   .     S
C506   O550    1.299   .     A
C507   C511    1.413   .     A
C507   C513    1.409   .     A
C507   C528    1.475   .     S
C508   C514    1.409   .     A
C508   C512    1.413   .     A
C509   C511    1.394   .     A
C509   C518    1.399   .     A
C510   C512    1.393   .     A
C510   C519    1.399   .     A
C510   H585    1.084   .     S
C512   Br553   1.923   .     S
C513   C515    1.416   .     A
C514   C517    1.416   .     A
C515   C518    1.416   .     A
C515   C520    1.427   .     A
C516   O544    1.291   .     A
C516   C527    1.427   .     S
C516   O546    1.285   .     A
C517   C519    1.416   .     A
C517   C521    1.427   .     A
C518   C74     1.393   1_556 S
C520   C523    1.409   .     A
C520   C71     1.425   1_556 S
C521   C522    1.409   .     A
C522   H536    1.078   .     S
C522   C524    1.388   .     A
C523   C525    1.388   .     A
C523   H537    1.078   .     S
C524   H531    1.084   .     S
C525   H533    1.084   .     S
C525   C69     1.393   1_556 S
C526   C677    1.329   .     S
C526   H688    1.088   .     S
C527   C826    1.329   1_545 S
C527   H839    1.088   1_545 S
C528   O547    1.300   .     A
C528   O549    1.299   .     A
Cu529  Cu530   2.686   .     S
Cu529  N542    2.018   .     S
Cu529  O546    1.951   .     S
Cu529  O543    1.954   .     S
Cu529  O547    1.927   .     S
Cu529  O550    1.901   .     S
Cu530  O545    1.951   .     S
Cu530  N541    2.018   .     S
Cu530  O544    1.954   .     S
Cu530  O548    1.927   .     S
Cu530  O549    1.901   .     S
H532   N592    1.029   .     S
H534   C559    1.084   .     S
H538   C826    1.088   1_545 S
H539   C677    1.088   .     S
N541   H590    1.029   .     S
N541   N592    1.280   .     S
Br551  C564    1.942   .     S
Br552  C563    1.942   .     S
Br554  C461    1.923   1_655 S
C555   O593    1.291   .     A
C555   C576    1.427   .     S
C555   O595    1.285   .     A
C556   O598    1.300   .     A
C556   C558    1.475   .     S
C556   O600    1.299   .     A
C557   C561    1.413   .     A
C557   C563    1.409   .     A
C557   C578    1.475   .     S
C558   C564    1.409   .     A
C558   C562    1.413   .     A
C559   C561    1.394   .     A
C559   C568    1.399   .     A
C560   C562    1.393   .     A
C560   C569    1.399   .     A
C560   H485    1.084   1_655 S
C562   Br453   1.923   1_655 S
C563   C565    1.416   .     A
C564   C567    1.416   .     A
C565   C568    1.416   .     A
C565   C570    1.427   .     A
C566   O594    1.291   .     A
C566   C577    1.427   .     S
C566   O596    1.285   .     A
C567   C569    1.416   .     A
C567   C571    1.427   .     A
C568   C124    1.393   1_556 S
C570   C573    1.409   .     A
C570   C121    1.425   1_556 S
C571   C572    1.409   .     A
C572   H586    1.078   .     S
C572   C574    1.388   .     A
C573   C575    1.388   .     A
C573   H587    1.078   .     S
C574   H581    1.084   .     S
C575   H583    1.084   .     S
C575   C119    1.393   1_556 S
C576   C727    1.329   .     S
C576   H738    1.088   .     S
C577   C876    1.329   1_545 S
C577   H889    1.088   1_545 S
C578   O597    1.300   .     A
C578   O599    1.299   .     A
Cu579  Cu580   2.686   .     S
Cu579  N592    2.018   .     S
Cu579  O596    1.951   .     S
Cu579  O593    1.954   .     S
Cu579  O597    1.927   .     S
Cu579  O600    1.901   .     S
Cu580  O595    1.951   .     S
Cu580  N591    2.018   .     S
Cu580  O594    1.954   .     S
Cu580  O598    1.927   .     S
Cu580  O599    1.901   .     S
H582   N492    1.029   1_655 S
H584   C459    1.084   1_655 S
H588   C876    1.088   1_545 S
H589   C727    1.088   .     S
N591   H490    1.029   1_655 S
N591   N492    1.280   1_655 S
Br601  C614    1.942   .     S
Br602  C613    1.942   .     S
Br603  C712    1.923   1_455 S
Br604  C661    1.923   .     S
C605   O643    1.291   .     A
C605   C626    1.427   .     S
C605   O645    1.285   .     A
C606   O648    1.300   .     A
C606   C608    1.475   .     S
C606   O650    1.299   .     A
C607   C611    1.413   .     A
C607   C613    1.409   .     A
C607   C628    1.475   .     S
C608   C614    1.409   .     A
C608   C612    1.413   .     A
C609   C611    1.394   .     A
C609   C618    1.399   .     A
C609   H734    1.084   1_455 S
C610   C612    1.393   .     A
C610   C619    1.399   .     A
C610   H685    1.084   .     S
C611   Br704   1.923   1_455 S
C612   Br653   1.923   .     S
C613   C615    1.416   .     A
C614   C617    1.416   .     A
C615   C618    1.416   .     A
C615   C620    1.427   .     A
C616   O644    1.291   .     A
C616   C627    1.427   .     S
C616   O646    1.285   .     A
C617   C619    1.416   .     A
C617   C621    1.427   .     A
C618   C174    1.393   1_556 S
C620   C623    1.409   .     A
C620   C171    1.425   1_556 S
C621   C622    1.409   .     A
C622   H636    1.078   .     S
C622   C624    1.388   .     A
C623   C625    1.388   .     A
C623   H637    1.078   .     S
C624   H631    1.084   .     S
C625   H633    1.084   .     S
C625   C169    1.393   1_556 S
C626   C777    1.329   .     S
C626   H788    1.088   .     S
C628   O647    1.300   .     A
C628   O649    1.299   .     A
Cu629  Cu630   2.686   .     S
Cu629  N642    2.018   .     S
Cu629  O646    1.951   .     S
Cu629  O643    1.954   .     S
Cu629  O647    1.927   .     S
Cu629  O650    1.901   .     S
Cu630  O645    1.951   .     S
Cu630  N641    2.018   .     S
Cu630  O644    1.954   .     S
Cu630  O648    1.927   .     S
Cu630  O649    1.901   .     S
H632   N692    1.029   .     S
H634   C659    1.084   .     S
H635   C710    1.084   1_455 S
H639   C777    1.088   .     S
H640   N741    1.029   1_455 S
N641   H690    1.029   .     S
N641   N692    1.280   .     S
N642   H732    1.029   1_455 S
N642   N741    1.280   1_455 S
Br651  C664    1.942   .     S
Br652  C663    1.942   .     S
Br654  C711    1.923   .     S
C655   O693    1.291   .     A
C655   C676    1.427   .     S
C655   O695    1.285   .     A
C656   O698    1.300   .     A
C656   C658    1.475   .     S
C656   O700    1.299   .     A
C657   C661    1.413   .     A
C657   C663    1.409   .     A
C657   C678    1.475   .     S
C658   C664    1.409   .     A
C658   C662    1.413   .     A
C659   C661    1.394   .     A
C659   C668    1.399   .     A
C660   C662    1.393   .     A
C660   C669    1.399   .     A
C660   H735    1.084   .     S
C662   Br703   1.923   .     S
C663   C665    1.416   .     A
C664   C667    1.416   .     A
C665   C668    1.416   .     A
C665   C670    1.427   .     A
C666   O694    1.291   .     A
C666   C677    1.427   .     S
C666   O696    1.285   .     A
C667   C669    1.416   .     A
C667   C671    1.427   .     A
C668   C224    1.393   1_556 S
C670   C673    1.409   .     A
C670   C221    1.425   1_556 S
C671   C672    1.409   .     A
C672   H686    1.078   .     S
C672   C674    1.388   .     A
C673   C675    1.388   .     A
C673   H687    1.078   .     S
C674   H681    1.084   .     S
C675   H683    1.084   .     S
C675   C219    1.393   1_556 S
C676   C827    1.329   .     S
C676   H838    1.088   .     S
C678   O697    1.300   .     A
C678   O699    1.299   .     A
Cu679  Cu680   2.686   .     S
Cu679  N692    2.018   .     S
Cu679  O696    1.951   .     S
Cu679  O693    1.954   .     S
Cu679  O697    1.927   .     S
Cu679  O700    1.901   .     S
Cu680  O695    1.951   .     S
Cu680  N691    2.018   .     S
Cu680  O694    1.954   .     S
Cu680  O698    1.927   .     S
Cu680  O699    1.901   .     S
H682   N742    1.029   .     S
H684   C709    1.084   .     S
H689   C827    1.088   .     S
N691   H740    1.029   .     S
N691   N742    1.280   .     S
Br701  C714    1.942   .     S
Br702  C713    1.942   .     S
Br704  C611    1.923   1_655 S
C705   O743    1.291   .     A
C705   C726    1.427   .     S
C705   O745    1.285   .     A
C706   O748    1.300   .     A
C706   C708    1.475   .     S
C706   O750    1.299   .     A
C707   C711    1.413   .     A
C707   C713    1.409   .     A
C707   C728    1.475   .     S
C708   C714    1.409   .     A
C708   C712    1.413   .     A
C709   C711    1.394   .     A
C709   C718    1.399   .     A
C710   C712    1.393   .     A
C710   C719    1.399   .     A
C710   H635    1.084   1_655 S
C712   Br603   1.923   1_655 S
C713   C715    1.416   .     A
C714   C717    1.416   .     A
C715   C718    1.416   .     A
C715   C720    1.427   .     A
C716   O744    1.291   .     A
C716   C727    1.427   .     S
C716   O746    1.285   .     A
C717   C719    1.416   .     A
C717   C721    1.427   .     A
C718   C274    1.393   1_556 S
C720   C723    1.409   .     A
C720   C271    1.425   1_556 S
C721   C722    1.409   .     A
C722   H736    1.078   .     S
C722   C724    1.388   .     A
C723   C725    1.388   .     A
C723   H737    1.078   .     S
C724   H731    1.084   .     S
C725   H733    1.084   .     S
C725   C269    1.393   1_556 S
C726   C877    1.329   .     S
C726   H888    1.088   .     S
C728   O747    1.300   .     A
C728   O749    1.299   .     A
Cu729  Cu730   2.686   .     S
Cu729  N742    2.018   .     S
Cu729  O746    1.951   .     S
Cu729  O743    1.954   .     S
Cu729  O747    1.927   .     S
Cu729  O750    1.901   .     S
Cu730  O745    1.951   .     S
Cu730  N741    2.018   .     S
Cu730  O744    1.954   .     S
Cu730  O748    1.927   .     S
Cu730  O749    1.901   .     S
H732   N642    1.029   1_655 S
H734   C609    1.084   1_655 S
H739   C877    1.088   .     S
N741   H640    1.029   1_655 S
N741   N642    1.280   1_655 S
Br751  C764    1.942   .     S
Br752  C763    1.942   .     S
Br753  C862    1.923   1_455 S
Br754  C811    1.923   .     S
C755   O793    1.291   .     A
C755   C776    1.427   .     S
C755   O795    1.285   .     A
C756   O798    1.300   .     A
C756   C758    1.475   .     S
C756   O800    1.299   .     A
C757   C761    1.413   .     A
C757   C763    1.409   .     A
C757   C778    1.475   .     S
C758   C764    1.409   .     A
C758   C762    1.413   .     A
C759   C761    1.394   .     A
C759   C768    1.399   .     A
C759   H884    1.084   1_455 S
C760   C762    1.393   .     A
C760   C769    1.399   .     A
C760   H835    1.084   .     S
C761   Br854   1.923   1_455 S
C762   Br803   1.923   .     S
C763   C765    1.416   .     A
C764   C767    1.416   .     A
C765   C768    1.416   .     A
C765   C770    1.427   .     A
C766   O794    1.291   .     A
C766   C777    1.427   .     S
C766   O796    1.285   .     A
C767   C769    1.416   .     A
C767   C771    1.427   .     A
C768   C324    1.393   1_556 S
C770   C773    1.409   .     A
C770   C321    1.425   1_556 S
C771   C772    1.409   .     A
C772   H786    1.078   .     S
C772   C774    1.388   .     A
C773   C775    1.388   .     A
C773   H787    1.078   .     S
C774   H781    1.084   .     S
C775   H783    1.084   .     S
C775   C319    1.393   1_556 S
C776   C477    1.329   1_565 S
C776   H488    1.088   1_565 S
C778   O797    1.300   .     A
C778   O799    1.299   .     A
Cu779  Cu780   2.686   .     S
Cu779  N792    2.018   .     S
Cu779  O796    1.951   .     S
Cu779  O793    1.954   .     S
Cu779  O797    1.927   .     S
Cu779  O800    1.901   .     S
Cu780  O795    1.951   .     S
Cu780  N791    2.018   .     S
Cu780  O794    1.954   .     S
Cu780  O798    1.927   .     S
Cu780  O799    1.901   .     S
H782   N842    1.029   .     S
H784   C809    1.084   .     S
H785   C860    1.084   1_455 S
H789   C477    1.088   1_565 S
H790   N891    1.029   1_455 S
N791   H840    1.029   .     S
N791   N842    1.280   .     S
N792   H882    1.029   1_455 S
N792   N891    1.280   1_455 S
Br801  C814    1.942   .     S
Br802  C813    1.942   .     S
Br804  C861    1.923   .     S
C805   O843    1.291   .     A
C805   C826    1.427   .     S
C805   O845    1.285   .     A
C806   O848    1.300   .     A
C806   C808    1.475   .     S
C806   O850    1.299   .     A
C807   C811    1.413   .     A
C807   C813    1.409   .     A
C807   C828    1.475   .     S
C808   C814    1.409   .     A
C808   C812    1.413   .     A
C809   C811    1.394   .     A
C809   C818    1.399   .     A
C810   C812    1.393   .     A
C810   C819    1.399   .     A
C810   H885    1.084   .     S
C812   Br853   1.923   .     S
C813   C815    1.416   .     A
C814   C817    1.416   .     A
C815   C818    1.416   .     A
C815   C820    1.427   .     A
C816   O844    1.291   .     A
C816   C827    1.427   .     S
C816   O846    1.285   .     A
C817   C819    1.416   .     A
C817   C821    1.427   .     A
C818   C374    1.393   1_556 S
C820   C823    1.409   .     A
C820   C371    1.425   1_556 S
C821   C822    1.409   .     A
C822   H836    1.078   .     S
C822   C824    1.388   .     A
C823   C825    1.388   .     A
C823   H837    1.078   .     S
C824   H831    1.084   .     S
C825   H833    1.084   .     S
C825   C369    1.393   1_556 S
C826   C527    1.329   1_565 S
C826   H538    1.088   1_565 S
C828   O847    1.300   .     A
C828   O849    1.299   .     A
Cu829  Cu830   2.686   .     S
Cu829  N842    2.018   .     S
Cu829  O846    1.951   .     S
Cu829  O843    1.954   .     S
Cu829  O847    1.927   .     S
Cu829  O850    1.901   .     S
Cu830  O845    1.951   .     S
Cu830  N841    2.018   .     S
Cu830  O844    1.954   .     S
Cu830  O848    1.927   .     S
Cu830  O849    1.901   .     S
H832   N892    1.029   .     S
H834   C859    1.084   .     S
H839   C527    1.088   1_565 S
N841   H890    1.029   .     S
N841   N892    1.280   .     S
Br851  C864    1.942   .     S
Br852  C863    1.942   .     S
Br854  C761    1.923   1_655 S
C855   O893    1.291   .     A
C855   C876    1.427   .     S
C855   O895    1.285   .     A
C856   O898    1.300   .     A
C856   C858    1.475   .     S
C856   O900    1.299   .     A
C857   C861    1.413   .     A
C857   C863    1.409   .     A
C857   C878    1.475   .     S
C858   C864    1.409   .     A
C858   C862    1.413   .     A
C859   C861    1.394   .     A
C859   C868    1.399   .     A
C860   C862    1.393   .     A
C860   C869    1.399   .     A
C860   H785    1.084   1_655 S
C862   Br753   1.923   1_655 S
C863   C865    1.416   .     A
C864   C867    1.416   .     A
C865   C868    1.416   .     A
C865   C870    1.427   .     A
C866   O894    1.291   .     A
C866   C877    1.427   .     S
C866   O896    1.285   .     A
C867   C869    1.416   .     A
C867   C871    1.427   .     A
C868   C424    1.393   1_556 S
C870   C873    1.409   .     A
C870   C421    1.425   1_556 S
C871   C872    1.409   .     A
C872   H886    1.078   .     S
C872   C874    1.388   .     A
C873   C875    1.388   .     A
C873   H887    1.078   .     S
C874   H881    1.084   .     S
C875   H883    1.084   .     S
C875   C419    1.393   1_556 S
C876   C577    1.329   1_565 S
C876   H588    1.088   1_565 S
C878   O897    1.300   .     A
C878   O899    1.299   .     A
Cu879  Cu880   2.686   .     S
Cu879  N892    2.018   .     S
Cu879  O896    1.951   .     S
Cu879  O893    1.954   .     S
Cu879  O897    1.927   .     S
Cu879  O900    1.901   .     S
Cu880  O895    1.951   .     S
Cu880  N891    2.018   .     S
Cu880  O894    1.954   .     S
Cu880  O898    1.927   .     S
Cu880  O899    1.901   .     S
H882   N792    1.029   1_655 S
H884   C759    1.084   1_655 S
H889   C577    1.088   1_565 S
N891   H790    1.029   1_655 S
N891   N792    1.280   1_655 S
