data_str_m2_o10_o16_pcu_sym.191
_audit_creation_date              2020-01-03
_audit_creation_method            'Materials Studio'
_symmetry_space_group_name_H-M    'P1'
_symmetry_Int_Tables_number       1
_symmetry_cell_setting            triclinic
loop_
_symmetry_equiv_pos_as_xyz
  x,y,z
_cell_length_a                    22.3992
_cell_length_b                    26.0578
_cell_length_c                    26.7502
_cell_angle_alpha                 94.4862
_cell_angle_beta                  77.7015
_cell_angle_gamma                 102.9466
loop_
_atom_site_label
_atom_site_type_symbol
_atom_site_fract_x
_atom_site_fract_y
_atom_site_fract_z
_atom_site_U_iso_or_equiv
_atom_site_adp_type
_atom_site_occupancy
C1     C     0.18180   0.26667   0.25128   0.00000  Uiso   1.00
C2     C     0.13916   0.16903   0.48747   0.00000  Uiso   1.00
C3     C     0.15371   0.18772   0.43684   0.00000  Uiso   1.00
C4     C     0.18616   0.18068   0.01756   0.00000  Uiso   1.00
C5     C     0.24528   0.21289   0.49785   0.00000  Uiso   1.00
C6     C     0.25570   0.23622   0.45082   0.00000  Uiso   1.00
C7     C     0.20911   0.22703   0.42181   0.00000  Uiso   1.00
C8     C     0.17610   0.16175   0.06702   0.00000  Uiso   1.00
C9     C     0.27970   0.20740   0.07703   0.00000  Uiso   1.00
C10    C     0.11225   0.16604   0.40323   0.00000  Uiso   1.00
C11    C     0.19027   0.32263   0.25199   0.00000  Uiso   1.00
C12    C     0.13330   0.16604   0.34716   0.00000  Uiso   1.00
C13    C     0.14322   0.01069   0.24757   0.00000  Uiso   1.00
C14    C     0.15164   0.06666   0.24843   0.00000  Uiso   1.00
C15    C     0.20034   0.16991   0.15295   0.00000  Uiso   1.00
C16    C     0.29217   0.22453   0.02707   0.00000  Uiso   1.00
C17    C     0.22058   0.17772   0.09776   0.00000  Uiso   1.00
C18    C     0.05199   0.13746   0.42320   0.00000  Uiso   1.00
C19    C     0.03447   0.12603   0.47463   0.00000  Uiso   1.00
C20    C     0.07775   0.14005   0.00621   0.00000  Uiso   1.00
Cu21   Cu    0.10710   0.16105   0.24436   0.00000  Uiso   1.00
Cu22   Cu    0.22623   0.17228   0.25564   0.00000  Uiso   1.00
H23    H     0.31492   0.21976   0.10019   0.00000  Uiso   1.00
H24    H     0.09789   0.32030   0.24331   0.00000  Uiso   1.00
H25    H     0.00571   0.21148   0.28397   0.00000  Uiso   1.00
H26    H     0.29899   0.26456   0.43829   0.00000  Uiso   1.00
H27    H     0.00421   0.24896   0.01209   0.00000  Uiso   1.00
H28    H     0.13311   0.13577   0.08356   0.00000  Uiso   1.00
H29    H     0.01899   0.12204   0.39860   0.00000  Uiso   1.00
H30    H     0.06104   0.12827   0.04526   0.00000  Uiso   1.00
H31    H     0.32109   0.10405   0.48969   0.00000  Uiso   1.00
H32    H     0.23557   0.01299   0.25634   0.00000  Uiso   1.00
N33    N     0.31574   0.18074   0.26416   0.00000  Uiso   1.00
N34    N     0.01759   0.15259   0.23584   0.00000  Uiso   1.00
O35    O     0.12797   0.23807   0.24633   0.00000  Uiso   1.00
O36    O     0.22858   0.24755   0.25587   0.00000  Uiso   1.00
O37    O     0.09181   0.15960   0.31840   0.00000  Uiso   1.00
O38    O     0.19242   0.16908   0.32793   0.00000  Uiso   1.00
O39    O     0.10476   0.08578   0.24413   0.00000  Uiso   1.00
O40    O     0.20536   0.09526   0.25367   0.00000  Uiso   1.00
O41    O     0.14092   0.16425   0.17207   0.00000  Uiso   1.00
O42    O     0.24152   0.17373   0.18160   0.00000  Uiso   1.00
O43    O     0.31930   0.10896   0.21516   0.00000  Uiso   1.00
C44    C     0.01831   0.10175   0.16503   0.00000  Uiso   1.00
H45    H     0.05852   0.08352   0.16495   0.00000  Uiso   1.00
H46    H     0.03290   0.13917   0.14395   0.00000  Uiso   1.00
H47    H     0.31955   0.07390   0.14412   0.00000  Uiso   1.00
C48    C     0.21635   0.26483   0.38080   0.00000  Uiso   1.00
O49    O     0.26787   0.28075   0.35421   0.00000  Uiso   1.00
O50    O     0.16578   0.28442   0.37323   0.00000  Uiso   1.00
H51    H     0.12641   0.27324   0.40005   0.00000  Uiso   1.00
C52    C     0.51513   0.26667   0.25128   0.00000  Uiso   1.00
C53    C     0.47250   0.16903   0.48747   0.00000  Uiso   1.00
C54    C     0.48705   0.18772   0.43684   0.00000  Uiso   1.00
C55    C     0.51949   0.18068   0.01756   0.00000  Uiso   1.00
C56    C     0.57861   0.21289   0.49785   0.00000  Uiso   1.00
C57    C     0.58903   0.23622   0.45082   0.00000  Uiso   1.00
C58    C     0.54244   0.22703   0.42181   0.00000  Uiso   1.00
C59    C     0.50943   0.16175   0.06702   0.00000  Uiso   1.00
C60    C     0.61303   0.20740   0.07703   0.00000  Uiso   1.00
C61    C     0.44558   0.16604   0.40323   0.00000  Uiso   1.00
C62    C     0.52360   0.32263   0.25199   0.00000  Uiso   1.00
C63    C     0.46663   0.16604   0.34716   0.00000  Uiso   1.00
C64    C     0.47656   0.01069   0.24757   0.00000  Uiso   1.00
C65    C     0.48497   0.06666   0.24843   0.00000  Uiso   1.00
C66    C     0.53367   0.16991   0.15295   0.00000  Uiso   1.00
C67    C     0.62550   0.22453   0.02707   0.00000  Uiso   1.00
C68    C     0.55391   0.17772   0.09776   0.00000  Uiso   1.00
C69    C     0.38533   0.13746   0.42320   0.00000  Uiso   1.00
C70    C     0.36780   0.12603   0.47463   0.00000  Uiso   1.00
C71    C     0.41109   0.14005   0.00621   0.00000  Uiso   1.00
Cu72   Cu    0.44043   0.16105   0.24436   0.00000  Uiso   1.00
Cu73   Cu    0.55957   0.17228   0.25564   0.00000  Uiso   1.00
H74    H     0.64825   0.21976   0.10019   0.00000  Uiso   1.00
H75    H     0.43123   0.32030   0.24331   0.00000  Uiso   1.00
H76    H     0.33904   0.21148   0.28397   0.00000  Uiso   1.00
H77    H     0.63233   0.26456   0.43829   0.00000  Uiso   1.00
H78    H     0.33754   0.24896   0.01209   0.00000  Uiso   1.00
H79    H     0.46644   0.13577   0.08356   0.00000  Uiso   1.00
H80    H     0.35232   0.12204   0.39860   0.00000  Uiso   1.00
H81    H     0.39437   0.12827   0.04526   0.00000  Uiso   1.00
H82    H     0.65442   0.10405   0.48969   0.00000  Uiso   1.00
H83    H     0.56890   0.01299   0.25634   0.00000  Uiso   1.00
N84    N     0.64908   0.18074   0.26416   0.00000  Uiso   1.00
N85    N     0.35092   0.15259   0.23584   0.00000  Uiso   1.00
O86    O     0.46131   0.23807   0.24633   0.00000  Uiso   1.00
O87    O     0.56191   0.24755   0.25587   0.00000  Uiso   1.00
O88    O     0.42515   0.15960   0.31840   0.00000  Uiso   1.00
O89    O     0.52575   0.16908   0.32793   0.00000  Uiso   1.00
O90    O     0.43809   0.08578   0.24413   0.00000  Uiso   1.00
O91    O     0.53869   0.09526   0.25367   0.00000  Uiso   1.00
O92    O     0.47425   0.16425   0.17207   0.00000  Uiso   1.00
O93    O     0.57485   0.17373   0.18160   0.00000  Uiso   1.00
O94    O     0.65263   0.10896   0.21516   0.00000  Uiso   1.00
C95    C     0.35165   0.10175   0.16503   0.00000  Uiso   1.00
H96    H     0.39185   0.08352   0.16495   0.00000  Uiso   1.00
H97    H     0.36623   0.13917   0.14395   0.00000  Uiso   1.00
H98    H     0.65289   0.07390   0.14412   0.00000  Uiso   1.00
C99    C     0.54968   0.26483   0.38080   0.00000  Uiso   1.00
O100   O     0.60120   0.28075   0.35421   0.00000  Uiso   1.00
O101   O     0.49911   0.28442   0.37323   0.00000  Uiso   1.00
H102   H     0.45974   0.27324   0.40005   0.00000  Uiso   1.00
C103   C     0.84847   0.26667   0.25128   0.00000  Uiso   1.00
C104   C     0.80583   0.16903   0.48747   0.00000  Uiso   1.00
C105   C     0.82038   0.18772   0.43684   0.00000  Uiso   1.00
C106   C     0.85282   0.18068   0.01756   0.00000  Uiso   1.00
C107   C     0.91195   0.21289   0.49785   0.00000  Uiso   1.00
C108   C     0.92236   0.23622   0.45082   0.00000  Uiso   1.00
C109   C     0.87578   0.22703   0.42181   0.00000  Uiso   1.00
C110   C     0.84276   0.16175   0.06702   0.00000  Uiso   1.00
C111   C     0.94637   0.20740   0.07703   0.00000  Uiso   1.00
C112   C     0.77892   0.16604   0.40323   0.00000  Uiso   1.00
C113   C     0.85693   0.32263   0.25199   0.00000  Uiso   1.00
C114   C     0.79996   0.16604   0.34716   0.00000  Uiso   1.00
C115   C     0.80989   0.01069   0.24757   0.00000  Uiso   1.00
C116   C     0.81830   0.06666   0.24843   0.00000  Uiso   1.00
C117   C     0.86700   0.16991   0.15295   0.00000  Uiso   1.00
C118   C     0.95883   0.22453   0.02707   0.00000  Uiso   1.00
C119   C     0.88724   0.17772   0.09776   0.00000  Uiso   1.00
C120   C     0.71866   0.13746   0.42320   0.00000  Uiso   1.00
C121   C     0.70113   0.12603   0.47463   0.00000  Uiso   1.00
C122   C     0.74442   0.14005   0.00621   0.00000  Uiso   1.00
Cu123  Cu    0.77377   0.16105   0.24436   0.00000  Uiso   1.00
Cu124  Cu    0.89290   0.17228   0.25564   0.00000  Uiso   1.00
H125   H     0.98159   0.21976   0.10019   0.00000  Uiso   1.00
H126   H     0.76456   0.32030   0.24331   0.00000  Uiso   1.00
H127   H     0.67237   0.21148   0.28397   0.00000  Uiso   1.00
H128   H     0.96566   0.26456   0.43829   0.00000  Uiso   1.00
H129   H     0.67087   0.24896   0.01209   0.00000  Uiso   1.00
H130   H     0.79978   0.13577   0.08356   0.00000  Uiso   1.00
H131   H     0.68565   0.12204   0.39860   0.00000  Uiso   1.00
H132   H     0.72770   0.12827   0.04526   0.00000  Uiso   1.00
H133   H     0.98776   0.10405   0.48969   0.00000  Uiso   1.00
H134   H     0.90223   0.01299   0.25634   0.00000  Uiso   1.00
N135   N     0.98241   0.18074   0.26416   0.00000  Uiso   1.00
N136   N     0.68426   0.15259   0.23584   0.00000  Uiso   1.00
O137   O     0.79464   0.23807   0.24633   0.00000  Uiso   1.00
O138   O     0.89524   0.24755   0.25587   0.00000  Uiso   1.00
O139   O     0.75848   0.15960   0.31840   0.00000  Uiso   1.00
O140   O     0.85908   0.16908   0.32793   0.00000  Uiso   1.00
O141   O     0.77142   0.08578   0.24413   0.00000  Uiso   1.00
O142   O     0.87203   0.09526   0.25367   0.00000  Uiso   1.00
O143   O     0.80758   0.16425   0.17207   0.00000  Uiso   1.00
O144   O     0.90819   0.17373   0.18160   0.00000  Uiso   1.00
O145   O     0.98597   0.10896   0.21516   0.00000  Uiso   1.00
C146   C     0.68498   0.10175   0.16503   0.00000  Uiso   1.00
H147   H     0.72519   0.08352   0.16495   0.00000  Uiso   1.00
H148   H     0.69957   0.13917   0.14395   0.00000  Uiso   1.00
H149   H     0.98622   0.07390   0.14412   0.00000  Uiso   1.00
C150   C     0.88301   0.26483   0.38080   0.00000  Uiso   1.00
O151   O     0.93454   0.28075   0.35421   0.00000  Uiso   1.00
O152   O     0.83244   0.28442   0.37323   0.00000  Uiso   1.00
H153   H     0.79308   0.27324   0.40005   0.00000  Uiso   1.00
C154   C     0.18180   0.60000   0.25128   0.00000  Uiso   1.00
C155   C     0.13916   0.50236   0.48747   0.00000  Uiso   1.00
C156   C     0.15371   0.52105   0.43684   0.00000  Uiso   1.00
C157   C     0.18616   0.51402   0.01756   0.00000  Uiso   1.00
C158   C     0.24528   0.54622   0.49785   0.00000  Uiso   1.00
C159   C     0.25570   0.56955   0.45082   0.00000  Uiso   1.00
C160   C     0.20911   0.56037   0.42181   0.00000  Uiso   1.00
C161   C     0.17610   0.49508   0.06702   0.00000  Uiso   1.00
C162   C     0.27970   0.54074   0.07703   0.00000  Uiso   1.00
C163   C     0.11225   0.49938   0.40323   0.00000  Uiso   1.00
C164   C     0.19027   0.65596   0.25199   0.00000  Uiso   1.00
C165   C     0.13330   0.49938   0.34716   0.00000  Uiso   1.00
C166   C     0.14322   0.34403   0.24757   0.00000  Uiso   1.00
C167   C     0.15164   0.40000   0.24843   0.00000  Uiso   1.00
C168   C     0.20034   0.50324   0.15295   0.00000  Uiso   1.00
C169   C     0.29217   0.55787   0.02707   0.00000  Uiso   1.00
C170   C     0.22058   0.51105   0.09776   0.00000  Uiso   1.00
C171   C     0.05199   0.47079   0.42320   0.00000  Uiso   1.00
C172   C     0.03447   0.45936   0.47463   0.00000  Uiso   1.00
C173   C     0.07775   0.47338   0.00621   0.00000  Uiso   1.00
Cu174  Cu    0.10710   0.49439   0.24436   0.00000  Uiso   1.00
Cu175  Cu    0.22623   0.50561   0.25564   0.00000  Uiso   1.00
H176   H     0.31492   0.55309   0.10019   0.00000  Uiso   1.00
H177   H     0.09789   0.65364   0.24331   0.00000  Uiso   1.00
H178   H     0.00571   0.54481   0.28397   0.00000  Uiso   1.00
H179   H     0.29899   0.59790   0.43829   0.00000  Uiso   1.00
H180   H     0.00421   0.58229   0.01209   0.00000  Uiso   1.00
H181   H     0.13311   0.46910   0.08356   0.00000  Uiso   1.00
H182   H     0.01899   0.45537   0.39860   0.00000  Uiso   1.00
H183   H     0.06104   0.46161   0.04526   0.00000  Uiso   1.00
H184   H     0.32109   0.43739   0.48969   0.00000  Uiso   1.00
H185   H     0.23557   0.34632   0.25634   0.00000  Uiso   1.00
N186   N     0.31574   0.51407   0.26416   0.00000  Uiso   1.00
N187   N     0.01759   0.48593   0.23584   0.00000  Uiso   1.00
O188   O     0.12797   0.57141   0.24633   0.00000  Uiso   1.00
O189   O     0.22858   0.58089   0.25587   0.00000  Uiso   1.00
O190   O     0.09181   0.49293   0.31840   0.00000  Uiso   1.00
O191   O     0.19242   0.50241   0.32793   0.00000  Uiso   1.00
O192   O     0.10476   0.41911   0.24413   0.00000  Uiso   1.00
O193   O     0.20536   0.42859   0.25367   0.00000  Uiso   1.00
O194   O     0.14092   0.49759   0.17207   0.00000  Uiso   1.00
O195   O     0.24152   0.50707   0.18160   0.00000  Uiso   1.00
O196   O     0.31930   0.44229   0.21516   0.00000  Uiso   1.00
C197   C     0.01831   0.43509   0.16503   0.00000  Uiso   1.00
H198   H     0.05852   0.41685   0.16495   0.00000  Uiso   1.00
H199   H     0.03290   0.47251   0.14395   0.00000  Uiso   1.00
H200   H     0.31955   0.40723   0.14412   0.00000  Uiso   1.00
C201   C     0.21635   0.59816   0.38080   0.00000  Uiso   1.00
O202   O     0.26787   0.61408   0.35421   0.00000  Uiso   1.00
O203   O     0.16578   0.61776   0.37323   0.00000  Uiso   1.00
H204   H     0.12641   0.60657   0.40005   0.00000  Uiso   1.00
C205   C     0.51513   0.60000   0.25128   0.00000  Uiso   1.00
C206   C     0.47250   0.50236   0.48747   0.00000  Uiso   1.00
C207   C     0.48705   0.52105   0.43684   0.00000  Uiso   1.00
C208   C     0.51949   0.51402   0.01756   0.00000  Uiso   1.00
C209   C     0.57861   0.54622   0.49785   0.00000  Uiso   1.00
C210   C     0.58903   0.56955   0.45082   0.00000  Uiso   1.00
C211   C     0.54244   0.56037   0.42181   0.00000  Uiso   1.00
C212   C     0.50943   0.49508   0.06702   0.00000  Uiso   1.00
C213   C     0.61303   0.54074   0.07703   0.00000  Uiso   1.00
C214   C     0.44558   0.49938   0.40323   0.00000  Uiso   1.00
C215   C     0.52360   0.65596   0.25199   0.00000  Uiso   1.00
C216   C     0.46663   0.49938   0.34716   0.00000  Uiso   1.00
C217   C     0.47656   0.34403   0.24757   0.00000  Uiso   1.00
C218   C     0.48497   0.40000   0.24843   0.00000  Uiso   1.00
C219   C     0.53367   0.50324   0.15295   0.00000  Uiso   1.00
C220   C     0.62550   0.55787   0.02707   0.00000  Uiso   1.00
C221   C     0.55391   0.51105   0.09776   0.00000  Uiso   1.00
C222   C     0.38533   0.47079   0.42320   0.00000  Uiso   1.00
C223   C     0.36780   0.45936   0.47463   0.00000  Uiso   1.00
C224   C     0.41109   0.47338   0.00621   0.00000  Uiso   1.00
Cu225  Cu    0.44043   0.49439   0.24436   0.00000  Uiso   1.00
Cu226  Cu    0.55957   0.50561   0.25564   0.00000  Uiso   1.00
H227   H     0.64825   0.55309   0.10019   0.00000  Uiso   1.00
H228   H     0.43123   0.65364   0.24331   0.00000  Uiso   1.00
H229   H     0.33904   0.54481   0.28397   0.00000  Uiso   1.00
H230   H     0.63233   0.59790   0.43829   0.00000  Uiso   1.00
H231   H     0.33754   0.58229   0.01209   0.00000  Uiso   1.00
H232   H     0.46644   0.46910   0.08356   0.00000  Uiso   1.00
H233   H     0.35232   0.45537   0.39860   0.00000  Uiso   1.00
H234   H     0.39437   0.46161   0.04526   0.00000  Uiso   1.00
H235   H     0.65442   0.43739   0.48969   0.00000  Uiso   1.00
H236   H     0.56890   0.34632   0.25634   0.00000  Uiso   1.00
N237   N     0.64908   0.51407   0.26416   0.00000  Uiso   1.00
N238   N     0.35092   0.48593   0.23584   0.00000  Uiso   1.00
O239   O     0.46131   0.57141   0.24633   0.00000  Uiso   1.00
O240   O     0.56191   0.58089   0.25587   0.00000  Uiso   1.00
O241   O     0.42515   0.49293   0.31840   0.00000  Uiso   1.00
O242   O     0.52575   0.50241   0.32793   0.00000  Uiso   1.00
O243   O     0.43809   0.41911   0.24413   0.00000  Uiso   1.00
O244   O     0.53869   0.42859   0.25367   0.00000  Uiso   1.00
O245   O     0.47425   0.49759   0.17207   0.00000  Uiso   1.00
O246   O     0.57485   0.50707   0.18160   0.00000  Uiso   1.00
O247   O     0.65263   0.44229   0.21516   0.00000  Uiso   1.00
C248   C     0.35165   0.43509   0.16503   0.00000  Uiso   1.00
H249   H     0.39185   0.41685   0.16495   0.00000  Uiso   1.00
H250   H     0.36623   0.47251   0.14395   0.00000  Uiso   1.00
H251   H     0.65289   0.40723   0.14412   0.00000  Uiso   1.00
C252   C     0.54968   0.59816   0.38080   0.00000  Uiso   1.00
O253   O     0.60120   0.61408   0.35421   0.00000  Uiso   1.00
O254   O     0.49911   0.61776   0.37323   0.00000  Uiso   1.00
H255   H     0.45974   0.60657   0.40005   0.00000  Uiso   1.00
C256   C     0.84847   0.60000   0.25128   0.00000  Uiso   1.00
C257   C     0.80583   0.50236   0.48747   0.00000  Uiso   1.00
C258   C     0.82038   0.52105   0.43684   0.00000  Uiso   1.00
C259   C     0.85282   0.51402   0.01756   0.00000  Uiso   1.00
C260   C     0.91195   0.54622   0.49785   0.00000  Uiso   1.00
C261   C     0.92236   0.56955   0.45082   0.00000  Uiso   1.00
C262   C     0.87578   0.56037   0.42181   0.00000  Uiso   1.00
C263   C     0.84276   0.49508   0.06702   0.00000  Uiso   1.00
C264   C     0.94637   0.54074   0.07703   0.00000  Uiso   1.00
C265   C     0.77892   0.49938   0.40323   0.00000  Uiso   1.00
C266   C     0.85693   0.65596   0.25199   0.00000  Uiso   1.00
C267   C     0.79996   0.49938   0.34716   0.00000  Uiso   1.00
C268   C     0.80989   0.34403   0.24757   0.00000  Uiso   1.00
C269   C     0.81830   0.40000   0.24843   0.00000  Uiso   1.00
C270   C     0.86700   0.50324   0.15295   0.00000  Uiso   1.00
C271   C     0.95883   0.55787   0.02707   0.00000  Uiso   1.00
C272   C     0.88724   0.51105   0.09776   0.00000  Uiso   1.00
C273   C     0.71866   0.47079   0.42320   0.00000  Uiso   1.00
C274   C     0.70113   0.45936   0.47463   0.00000  Uiso   1.00
C275   C     0.74442   0.47338   0.00621   0.00000  Uiso   1.00
Cu276  Cu    0.77377   0.49439   0.24436   0.00000  Uiso   1.00
Cu277  Cu    0.89290   0.50561   0.25564   0.00000  Uiso   1.00
H278   H     0.98159   0.55309   0.10019   0.00000  Uiso   1.00
H279   H     0.76456   0.65364   0.24331   0.00000  Uiso   1.00
H280   H     0.67237   0.54481   0.28397   0.00000  Uiso   1.00
H281   H     0.96566   0.59790   0.43829   0.00000  Uiso   1.00
H282   H     0.67087   0.58229   0.01209   0.00000  Uiso   1.00
H283   H     0.79978   0.46910   0.08356   0.00000  Uiso   1.00
H284   H     0.68565   0.45537   0.39860   0.00000  Uiso   1.00
H285   H     0.72770   0.46161   0.04526   0.00000  Uiso   1.00
H286   H     0.98776   0.43739   0.48969   0.00000  Uiso   1.00
H287   H     0.90223   0.34632   0.25634   0.00000  Uiso   1.00
N288   N     0.98241   0.51407   0.26416   0.00000  Uiso   1.00
N289   N     0.68426   0.48593   0.23584   0.00000  Uiso   1.00
O290   O     0.79464   0.57141   0.24633   0.00000  Uiso   1.00
O291   O     0.89524   0.58089   0.25587   0.00000  Uiso   1.00
O292   O     0.75848   0.49293   0.31840   0.00000  Uiso   1.00
O293   O     0.85908   0.50241   0.32793   0.00000  Uiso   1.00
O294   O     0.77142   0.41911   0.24413   0.00000  Uiso   1.00
O295   O     0.87203   0.42859   0.25367   0.00000  Uiso   1.00
O296   O     0.80758   0.49759   0.17207   0.00000  Uiso   1.00
O297   O     0.90819   0.50707   0.18160   0.00000  Uiso   1.00
O298   O     0.98597   0.44229   0.21516   0.00000  Uiso   1.00
C299   C     0.68498   0.43509   0.16503   0.00000  Uiso   1.00
H300   H     0.72519   0.41685   0.16495   0.00000  Uiso   1.00
H301   H     0.69957   0.47251   0.14395   0.00000  Uiso   1.00
H302   H     0.98622   0.40723   0.14412   0.00000  Uiso   1.00
C303   C     0.88301   0.59816   0.38080   0.00000  Uiso   1.00
O304   O     0.93454   0.61408   0.35421   0.00000  Uiso   1.00
O305   O     0.83244   0.61776   0.37323   0.00000  Uiso   1.00
H306   H     0.79308   0.60657   0.40005   0.00000  Uiso   1.00
C307   C     0.18180   0.93333   0.25128   0.00000  Uiso   1.00
C308   C     0.13916   0.83569   0.48747   0.00000  Uiso   1.00
C309   C     0.15371   0.85439   0.43684   0.00000  Uiso   1.00
C310   C     0.18616   0.84735   0.01756   0.00000  Uiso   1.00
C311   C     0.24528   0.87955   0.49785   0.00000  Uiso   1.00
C312   C     0.25570   0.90289   0.45082   0.00000  Uiso   1.00
C313   C     0.20911   0.89370   0.42181   0.00000  Uiso   1.00
C314   C     0.17610   0.82841   0.06702   0.00000  Uiso   1.00
C315   C     0.27970   0.87407   0.07703   0.00000  Uiso   1.00
C316   C     0.11225   0.83271   0.40323   0.00000  Uiso   1.00
C317   C     0.19027   0.98930   0.25199   0.00000  Uiso   1.00
C318   C     0.13330   0.83271   0.34716   0.00000  Uiso   1.00
C319   C     0.14322   0.67736   0.24757   0.00000  Uiso   1.00
C320   C     0.15164   0.73333   0.24843   0.00000  Uiso   1.00
C321   C     0.20034   0.83658   0.15295   0.00000  Uiso   1.00
C322   C     0.29217   0.89120   0.02707   0.00000  Uiso   1.00
C323   C     0.22058   0.84438   0.09776   0.00000  Uiso   1.00
C324   C     0.05199   0.80413   0.42320   0.00000  Uiso   1.00
C325   C     0.03447   0.79270   0.47463   0.00000  Uiso   1.00
C326   C     0.07775   0.80672   0.00621   0.00000  Uiso   1.00
Cu327  Cu    0.10710   0.82772   0.24436   0.00000  Uiso   1.00
Cu328  Cu    0.22623   0.83895   0.25564   0.00000  Uiso   1.00
H329   H     0.31492   0.88643   0.10019   0.00000  Uiso   1.00
H330   H     0.09789   0.98697   0.24331   0.00000  Uiso   1.00
H331   H     0.00571   0.87815   0.28397   0.00000  Uiso   1.00
H332   H     0.29899   0.93123   0.43829   0.00000  Uiso   1.00
H333   H     0.00421   0.91563   0.01209   0.00000  Uiso   1.00
H334   H     0.13311   0.80244   0.08356   0.00000  Uiso   1.00
H335   H     0.01899   0.78871   0.39860   0.00000  Uiso   1.00
H336   H     0.06104   0.79494   0.04526   0.00000  Uiso   1.00
H337   H     0.32109   0.77072   0.48969   0.00000  Uiso   1.00
H338   H     0.23557   0.67966   0.25634   0.00000  Uiso   1.00
N339   N     0.31574   0.84741   0.26416   0.00000  Uiso   1.00
N340   N     0.01759   0.81926   0.23584   0.00000  Uiso   1.00
O341   O     0.12797   0.90474   0.24633   0.00000  Uiso   1.00
O342   O     0.22858   0.91422   0.25587   0.00000  Uiso   1.00
O343   O     0.09181   0.82627   0.31840   0.00000  Uiso   1.00
O344   O     0.19242   0.83575   0.32793   0.00000  Uiso   1.00
O345   O     0.10476   0.75245   0.24413   0.00000  Uiso   1.00
O346   O     0.20536   0.76193   0.25367   0.00000  Uiso   1.00
O347   O     0.14092   0.83092   0.17207   0.00000  Uiso   1.00
O348   O     0.24152   0.84040   0.18160   0.00000  Uiso   1.00
O349   O     0.31930   0.77563   0.21516   0.00000  Uiso   1.00
C350   C     0.01831   0.76842   0.16503   0.00000  Uiso   1.00
H351   H     0.05852   0.75018   0.16495   0.00000  Uiso   1.00
H352   H     0.03290   0.80584   0.14395   0.00000  Uiso   1.00
H353   H     0.31955   0.74057   0.14412   0.00000  Uiso   1.00
C354   C     0.21635   0.93150   0.38080   0.00000  Uiso   1.00
O355   O     0.26787   0.94741   0.35421   0.00000  Uiso   1.00
O356   O     0.16578   0.95109   0.37323   0.00000  Uiso   1.00
H357   H     0.12641   0.93990   0.40005   0.00000  Uiso   1.00
C358   C     0.51513   0.93333   0.25128   0.00000  Uiso   1.00
C359   C     0.47250   0.83569   0.48747   0.00000  Uiso   1.00
C360   C     0.48705   0.85439   0.43684   0.00000  Uiso   1.00
C361   C     0.51949   0.84735   0.01756   0.00000  Uiso   1.00
C362   C     0.57861   0.87955   0.49785   0.00000  Uiso   1.00
C363   C     0.58903   0.90289   0.45082   0.00000  Uiso   1.00
C364   C     0.54244   0.89370   0.42181   0.00000  Uiso   1.00
C365   C     0.50943   0.82841   0.06702   0.00000  Uiso   1.00
C366   C     0.61303   0.87407   0.07703   0.00000  Uiso   1.00
C367   C     0.44558   0.83271   0.40323   0.00000  Uiso   1.00
C368   C     0.52360   0.98930   0.25199   0.00000  Uiso   1.00
C369   C     0.46663   0.83271   0.34716   0.00000  Uiso   1.00
C370   C     0.47656   0.67736   0.24757   0.00000  Uiso   1.00
C371   C     0.48497   0.73333   0.24843   0.00000  Uiso   1.00
C372   C     0.53367   0.83658   0.15295   0.00000  Uiso   1.00
C373   C     0.62550   0.89120   0.02707   0.00000  Uiso   1.00
C374   C     0.55391   0.84438   0.09776   0.00000  Uiso   1.00
C375   C     0.38533   0.80413   0.42320   0.00000  Uiso   1.00
C376   C     0.36780   0.79270   0.47463   0.00000  Uiso   1.00
C377   C     0.41109   0.80672   0.00621   0.00000  Uiso   1.00
Cu378  Cu    0.44043   0.82772   0.24436   0.00000  Uiso   1.00
Cu379  Cu    0.55957   0.83895   0.25564   0.00000  Uiso   1.00
H380   H     0.64825   0.88643   0.10019   0.00000  Uiso   1.00
H381   H     0.43123   0.98697   0.24331   0.00000  Uiso   1.00
H382   H     0.33904   0.87815   0.28397   0.00000  Uiso   1.00
H383   H     0.63233   0.93123   0.43829   0.00000  Uiso   1.00
H384   H     0.33754   0.91563   0.01209   0.00000  Uiso   1.00
H385   H     0.46644   0.80244   0.08356   0.00000  Uiso   1.00
H386   H     0.35232   0.78871   0.39860   0.00000  Uiso   1.00
H387   H     0.39437   0.79494   0.04526   0.00000  Uiso   1.00
H388   H     0.65442   0.77072   0.48969   0.00000  Uiso   1.00
H389   H     0.56890   0.67966   0.25634   0.00000  Uiso   1.00
N390   N     0.64908   0.84741   0.26416   0.00000  Uiso   1.00
N391   N     0.35092   0.81926   0.23584   0.00000  Uiso   1.00
O392   O     0.46131   0.90474   0.24633   0.00000  Uiso   1.00
O393   O     0.56191   0.91422   0.25587   0.00000  Uiso   1.00
O394   O     0.42515   0.82627   0.31840   0.00000  Uiso   1.00
O395   O     0.52575   0.83575   0.32793   0.00000  Uiso   1.00
O396   O     0.43809   0.75245   0.24413   0.00000  Uiso   1.00
O397   O     0.53869   0.76193   0.25367   0.00000  Uiso   1.00
O398   O     0.47425   0.83092   0.17207   0.00000  Uiso   1.00
O399   O     0.57485   0.84040   0.18160   0.00000  Uiso   1.00
O400   O     0.65263   0.77563   0.21516   0.00000  Uiso   1.00
C401   C     0.35165   0.76842   0.16503   0.00000  Uiso   1.00
H402   H     0.39185   0.75018   0.16495   0.00000  Uiso   1.00
H403   H     0.36623   0.80584   0.14395   0.00000  Uiso   1.00
H404   H     0.65289   0.74057   0.14412   0.00000  Uiso   1.00
C405   C     0.54968   0.93150   0.38080   0.00000  Uiso   1.00
O406   O     0.60120   0.94741   0.35421   0.00000  Uiso   1.00
O407   O     0.49911   0.95109   0.37323   0.00000  Uiso   1.00
H408   H     0.45974   0.93990   0.40005   0.00000  Uiso   1.00
C409   C     0.84847   0.93333   0.25128   0.00000  Uiso   1.00
C410   C     0.80583   0.83569   0.48747   0.00000  Uiso   1.00
C411   C     0.82038   0.85439   0.43684   0.00000  Uiso   1.00
C412   C     0.85282   0.84735   0.01756   0.00000  Uiso   1.00
C413   C     0.91195   0.87955   0.49785   0.00000  Uiso   1.00
C414   C     0.92236   0.90289   0.45082   0.00000  Uiso   1.00
C415   C     0.87578   0.89370   0.42181   0.00000  Uiso   1.00
C416   C     0.84276   0.82841   0.06702   0.00000  Uiso   1.00
C417   C     0.94637   0.87407   0.07703   0.00000  Uiso   1.00
C418   C     0.77892   0.83271   0.40323   0.00000  Uiso   1.00
C419   C     0.85693   0.98930   0.25199   0.00000  Uiso   1.00
C420   C     0.79996   0.83271   0.34716   0.00000  Uiso   1.00
C421   C     0.80989   0.67736   0.24757   0.00000  Uiso   1.00
C422   C     0.81830   0.73333   0.24843   0.00000  Uiso   1.00
C423   C     0.86700   0.83658   0.15295   0.00000  Uiso   1.00
C424   C     0.95883   0.89120   0.02707   0.00000  Uiso   1.00
C425   C     0.88724   0.84438   0.09776   0.00000  Uiso   1.00
C426   C     0.71866   0.80413   0.42320   0.00000  Uiso   1.00
C427   C     0.70113   0.79270   0.47463   0.00000  Uiso   1.00
C428   C     0.74442   0.80672   0.00621   0.00000  Uiso   1.00
Cu429  Cu    0.77377   0.82772   0.24436   0.00000  Uiso   1.00
Cu430  Cu    0.89290   0.83895   0.25564   0.00000  Uiso   1.00
H431   H     0.98159   0.88643   0.10019   0.00000  Uiso   1.00
H432   H     0.76456   0.98697   0.24331   0.00000  Uiso   1.00
H433   H     0.67237   0.87815   0.28397   0.00000  Uiso   1.00
H434   H     0.96566   0.93123   0.43829   0.00000  Uiso   1.00
H435   H     0.67087   0.91563   0.01209   0.00000  Uiso   1.00
H436   H     0.79978   0.80244   0.08356   0.00000  Uiso   1.00
H437   H     0.68565   0.78871   0.39860   0.00000  Uiso   1.00
H438   H     0.72770   0.79494   0.04526   0.00000  Uiso   1.00
H439   H     0.98776   0.77072   0.48969   0.00000  Uiso   1.00
H440   H     0.90223   0.67966   0.25634   0.00000  Uiso   1.00
N441   N     0.98241   0.84741   0.26416   0.00000  Uiso   1.00
N442   N     0.68426   0.81926   0.23584   0.00000  Uiso   1.00
O443   O     0.79464   0.90474   0.24633   0.00000  Uiso   1.00
O444   O     0.89524   0.91422   0.25587   0.00000  Uiso   1.00
O445   O     0.75848   0.82627   0.31840   0.00000  Uiso   1.00
O446   O     0.85908   0.83575   0.32793   0.00000  Uiso   1.00
O447   O     0.77142   0.75245   0.24413   0.00000  Uiso   1.00
O448   O     0.87203   0.76193   0.25367   0.00000  Uiso   1.00
O449   O     0.80758   0.83092   0.17207   0.00000  Uiso   1.00
O450   O     0.90819   0.84040   0.18160   0.00000  Uiso   1.00
O451   O     0.98597   0.77563   0.21516   0.00000  Uiso   1.00
C452   C     0.68498   0.76842   0.16503   0.00000  Uiso   1.00
H453   H     0.72519   0.75018   0.16495   0.00000  Uiso   1.00
H454   H     0.69957   0.80584   0.14395   0.00000  Uiso   1.00
H455   H     0.98622   0.74057   0.14412   0.00000  Uiso   1.00
C456   C     0.88301   0.93150   0.38080   0.00000  Uiso   1.00
O457   O     0.93454   0.94741   0.35421   0.00000  Uiso   1.00
O458   O     0.83244   0.95109   0.37323   0.00000  Uiso   1.00
H459   H     0.79308   0.93990   0.40005   0.00000  Uiso   1.00
C460   C     0.18180   0.26667   0.75128   0.00000  Uiso   1.00
C461   C     0.13916   0.16903   0.98747   0.00000  Uiso   1.00
C462   C     0.15371   0.18772   0.93684   0.00000  Uiso   1.00
C463   C     0.18616   0.18068   0.51756   0.00000  Uiso   1.00
C464   C     0.24528   0.21289   0.99785   0.00000  Uiso   1.00
C465   C     0.25570   0.23622   0.95082   0.00000  Uiso   1.00
C466   C     0.20911   0.22703   0.92181   0.00000  Uiso   1.00
C467   C     0.17610   0.16175   0.56702   0.00000  Uiso   1.00
C468   C     0.27970   0.20740   0.57703   0.00000  Uiso   1.00
C469   C     0.11225   0.16604   0.90323   0.00000  Uiso   1.00
C470   C     0.19027   0.32263   0.75199   0.00000  Uiso   1.00
C471   C     0.13330   0.16604   0.84716   0.00000  Uiso   1.00
C472   C     0.14322   0.01069   0.74757   0.00000  Uiso   1.00
C473   C     0.15164   0.06666   0.74843   0.00000  Uiso   1.00
C474   C     0.20034   0.16991   0.65295   0.00000  Uiso   1.00
C475   C     0.29217   0.22453   0.52707   0.00000  Uiso   1.00
C476   C     0.22058   0.17772   0.59776   0.00000  Uiso   1.00
C477   C     0.05199   0.13746   0.92320   0.00000  Uiso   1.00
C478   C     0.03447   0.12603   0.97463   0.00000  Uiso   1.00
C479   C     0.07775   0.14005   0.50621   0.00000  Uiso   1.00
Cu480  Cu    0.10710   0.16105   0.74436   0.00000  Uiso   1.00
Cu481  Cu    0.22623   0.17228   0.75564   0.00000  Uiso   1.00
H482   H     0.31492   0.21976   0.60019   0.00000  Uiso   1.00
H483   H     0.09789   0.32030   0.74331   0.00000  Uiso   1.00
H484   H     0.00571   0.21148   0.78397   0.00000  Uiso   1.00
H485   H     0.29899   0.26456   0.93829   0.00000  Uiso   1.00
H486   H     0.00421   0.24896   0.51209   0.00000  Uiso   1.00
H487   H     0.13311   0.13577   0.58356   0.00000  Uiso   1.00
H488   H     0.01899   0.12204   0.89860   0.00000  Uiso   1.00
H489   H     0.06104   0.12827   0.54526   0.00000  Uiso   1.00
H490   H     0.32109   0.10405   0.98969   0.00000  Uiso   1.00
H491   H     0.23557   0.01299   0.75634   0.00000  Uiso   1.00
N492   N     0.31574   0.18074   0.76416   0.00000  Uiso   1.00
N493   N     0.01759   0.15259   0.73584   0.00000  Uiso   1.00
O494   O     0.12797   0.23807   0.74633   0.00000  Uiso   1.00
O495   O     0.22858   0.24755   0.75587   0.00000  Uiso   1.00
O496   O     0.09181   0.15960   0.81840   0.00000  Uiso   1.00
O497   O     0.19242   0.16908   0.82793   0.00000  Uiso   1.00
O498   O     0.10476   0.08578   0.74413   0.00000  Uiso   1.00
O499   O     0.20536   0.09526   0.75367   0.00000  Uiso   1.00
O500   O     0.14092   0.16425   0.67207   0.00000  Uiso   1.00
O501   O     0.24152   0.17373   0.68160   0.00000  Uiso   1.00
O502   O     0.31930   0.10896   0.71516   0.00000  Uiso   1.00
C503   C     0.01831   0.10175   0.66503   0.00000  Uiso   1.00
H504   H     0.05852   0.08352   0.66495   0.00000  Uiso   1.00
H505   H     0.03290   0.13917   0.64395   0.00000  Uiso   1.00
H506   H     0.31955   0.07390   0.64412   0.00000  Uiso   1.00
C507   C     0.21635   0.26483   0.88080   0.00000  Uiso   1.00
O508   O     0.26787   0.28075   0.85421   0.00000  Uiso   1.00
O509   O     0.16578   0.28442   0.87323   0.00000  Uiso   1.00
H510   H     0.12641   0.27324   0.90005   0.00000  Uiso   1.00
C511   C     0.51513   0.26667   0.75128   0.00000  Uiso   1.00
C512   C     0.47250   0.16903   0.98747   0.00000  Uiso   1.00
C513   C     0.48705   0.18772   0.93684   0.00000  Uiso   1.00
C514   C     0.51949   0.18068   0.51756   0.00000  Uiso   1.00
C515   C     0.57861   0.21289   0.99785   0.00000  Uiso   1.00
C516   C     0.58903   0.23622   0.95082   0.00000  Uiso   1.00
C517   C     0.54244   0.22703   0.92181   0.00000  Uiso   1.00
C518   C     0.50943   0.16175   0.56702   0.00000  Uiso   1.00
C519   C     0.61303   0.20740   0.57703   0.00000  Uiso   1.00
C520   C     0.44558   0.16604   0.90323   0.00000  Uiso   1.00
C521   C     0.52360   0.32263   0.75199   0.00000  Uiso   1.00
C522   C     0.46663   0.16604   0.84716   0.00000  Uiso   1.00
C523   C     0.47656   0.01069   0.74757   0.00000  Uiso   1.00
C524   C     0.48497   0.06666   0.74843   0.00000  Uiso   1.00
C525   C     0.53367   0.16991   0.65295   0.00000  Uiso   1.00
C526   C     0.62550   0.22453   0.52707   0.00000  Uiso   1.00
C527   C     0.55391   0.17772   0.59776   0.00000  Uiso   1.00
C528   C     0.38533   0.13746   0.92320   0.00000  Uiso   1.00
C529   C     0.36780   0.12603   0.97463   0.00000  Uiso   1.00
C530   C     0.41109   0.14005   0.50621   0.00000  Uiso   1.00
Cu531  Cu    0.44043   0.16105   0.74436   0.00000  Uiso   1.00
Cu532  Cu    0.55957   0.17228   0.75564   0.00000  Uiso   1.00
H533   H     0.64825   0.21976   0.60019   0.00000  Uiso   1.00
H534   H     0.43123   0.32030   0.74331   0.00000  Uiso   1.00
H535   H     0.33904   0.21148   0.78397   0.00000  Uiso   1.00
H536   H     0.63233   0.26456   0.93829   0.00000  Uiso   1.00
H537   H     0.33754   0.24896   0.51209   0.00000  Uiso   1.00
H538   H     0.46644   0.13577   0.58356   0.00000  Uiso   1.00
H539   H     0.35232   0.12204   0.89860   0.00000  Uiso   1.00
H540   H     0.39437   0.12827   0.54526   0.00000  Uiso   1.00
H541   H     0.65442   0.10405   0.98969   0.00000  Uiso   1.00
H542   H     0.56890   0.01299   0.75634   0.00000  Uiso   1.00
N543   N     0.64908   0.18074   0.76416   0.00000  Uiso   1.00
N544   N     0.35092   0.15259   0.73584   0.00000  Uiso   1.00
O545   O     0.46131   0.23807   0.74633   0.00000  Uiso   1.00
O546   O     0.56191   0.24755   0.75587   0.00000  Uiso   1.00
O547   O     0.42515   0.15960   0.81840   0.00000  Uiso   1.00
O548   O     0.52575   0.16908   0.82793   0.00000  Uiso   1.00
O549   O     0.43809   0.08578   0.74413   0.00000  Uiso   1.00
O550   O     0.53869   0.09526   0.75367   0.00000  Uiso   1.00
O551   O     0.47425   0.16425   0.67207   0.00000  Uiso   1.00
O552   O     0.57485   0.17373   0.68160   0.00000  Uiso   1.00
O553   O     0.65263   0.10896   0.71516   0.00000  Uiso   1.00
C554   C     0.35165   0.10175   0.66503   0.00000  Uiso   1.00
H555   H     0.39185   0.08352   0.66495   0.00000  Uiso   1.00
H556   H     0.36623   0.13917   0.64395   0.00000  Uiso   1.00
H557   H     0.65289   0.07390   0.64412   0.00000  Uiso   1.00
C558   C     0.54968   0.26483   0.88080   0.00000  Uiso   1.00
O559   O     0.60120   0.28075   0.85421   0.00000  Uiso   1.00
O560   O     0.49911   0.28442   0.87323   0.00000  Uiso   1.00
H561   H     0.45974   0.27324   0.90005   0.00000  Uiso   1.00
C562   C     0.84847   0.26667   0.75128   0.00000  Uiso   1.00
C563   C     0.80583   0.16903   0.98747   0.00000  Uiso   1.00
C564   C     0.82038   0.18772   0.93684   0.00000  Uiso   1.00
C565   C     0.85282   0.18068   0.51756   0.00000  Uiso   1.00
C566   C     0.91195   0.21289   0.99785   0.00000  Uiso   1.00
C567   C     0.92236   0.23622   0.95082   0.00000  Uiso   1.00
C568   C     0.87578   0.22703   0.92181   0.00000  Uiso   1.00
C569   C     0.84276   0.16175   0.56702   0.00000  Uiso   1.00
C570   C     0.94637   0.20740   0.57703   0.00000  Uiso   1.00
C571   C     0.77892   0.16604   0.90323   0.00000  Uiso   1.00
C572   C     0.85693   0.32263   0.75199   0.00000  Uiso   1.00
C573   C     0.79996   0.16604   0.84716   0.00000  Uiso   1.00
C574   C     0.80989   0.01069   0.74757   0.00000  Uiso   1.00
C575   C     0.81830   0.06666   0.74843   0.00000  Uiso   1.00
C576   C     0.86700   0.16991   0.65295   0.00000  Uiso   1.00
C577   C     0.95883   0.22453   0.52707   0.00000  Uiso   1.00
C578   C     0.88724   0.17772   0.59776   0.00000  Uiso   1.00
C579   C     0.71866   0.13746   0.92320   0.00000  Uiso   1.00
C580   C     0.70113   0.12603   0.97463   0.00000  Uiso   1.00
C581   C     0.74442   0.14005   0.50621   0.00000  Uiso   1.00
Cu582  Cu    0.77377   0.16105   0.74436   0.00000  Uiso   1.00
Cu583  Cu    0.89290   0.17228   0.75564   0.00000  Uiso   1.00
H584   H     0.98159   0.21976   0.60019   0.00000  Uiso   1.00
H585   H     0.76456   0.32030   0.74331   0.00000  Uiso   1.00
H586   H     0.67237   0.21148   0.78397   0.00000  Uiso   1.00
H587   H     0.96566   0.26456   0.93829   0.00000  Uiso   1.00
H588   H     0.67087   0.24896   0.51209   0.00000  Uiso   1.00
H589   H     0.79978   0.13577   0.58356   0.00000  Uiso   1.00
H590   H     0.68565   0.12204   0.89860   0.00000  Uiso   1.00
H591   H     0.72770   0.12827   0.54526   0.00000  Uiso   1.00
H592   H     0.98776   0.10405   0.98969   0.00000  Uiso   1.00
H593   H     0.90223   0.01299   0.75634   0.00000  Uiso   1.00
N594   N     0.98241   0.18074   0.76416   0.00000  Uiso   1.00
N595   N     0.68426   0.15259   0.73584   0.00000  Uiso   1.00
O596   O     0.79464   0.23807   0.74633   0.00000  Uiso   1.00
O597   O     0.89524   0.24755   0.75587   0.00000  Uiso   1.00
O598   O     0.75848   0.15960   0.81840   0.00000  Uiso   1.00
O599   O     0.85908   0.16908   0.82793   0.00000  Uiso   1.00
O600   O     0.77142   0.08578   0.74413   0.00000  Uiso   1.00
O601   O     0.87203   0.09526   0.75367   0.00000  Uiso   1.00
O602   O     0.80758   0.16425   0.67207   0.00000  Uiso   1.00
O603   O     0.90819   0.17373   0.68160   0.00000  Uiso   1.00
O604   O     0.98597   0.10896   0.71516   0.00000  Uiso   1.00
C605   C     0.68498   0.10175   0.66503   0.00000  Uiso   1.00
H606   H     0.72519   0.08352   0.66495   0.00000  Uiso   1.00
H607   H     0.69957   0.13917   0.64395   0.00000  Uiso   1.00
H608   H     0.98622   0.07390   0.64412   0.00000  Uiso   1.00
C609   C     0.88301   0.26483   0.88080   0.00000  Uiso   1.00
O610   O     0.93454   0.28075   0.85421   0.00000  Uiso   1.00
O611   O     0.83244   0.28442   0.87323   0.00000  Uiso   1.00
H612   H     0.79308   0.27324   0.90005   0.00000  Uiso   1.00
C613   C     0.18180   0.60000   0.75128   0.00000  Uiso   1.00
C614   C     0.13916   0.50236   0.98747   0.00000  Uiso   1.00
C615   C     0.15371   0.52105   0.93684   0.00000  Uiso   1.00
C616   C     0.18616   0.51402   0.51756   0.00000  Uiso   1.00
C617   C     0.24528   0.54622   0.99785   0.00000  Uiso   1.00
C618   C     0.25570   0.56955   0.95082   0.00000  Uiso   1.00
C619   C     0.20911   0.56037   0.92181   0.00000  Uiso   1.00
C620   C     0.17610   0.49508   0.56702   0.00000  Uiso   1.00
C621   C     0.27970   0.54074   0.57703   0.00000  Uiso   1.00
C622   C     0.11225   0.49938   0.90323   0.00000  Uiso   1.00
C623   C     0.19027   0.65596   0.75199   0.00000  Uiso   1.00
C624   C     0.13330   0.49938   0.84716   0.00000  Uiso   1.00
C625   C     0.14322   0.34403   0.74757   0.00000  Uiso   1.00
C626   C     0.15164   0.40000   0.74843   0.00000  Uiso   1.00
C627   C     0.20034   0.50324   0.65295   0.00000  Uiso   1.00
C628   C     0.29217   0.55787   0.52707   0.00000  Uiso   1.00
C629   C     0.22058   0.51105   0.59776   0.00000  Uiso   1.00
C630   C     0.05199   0.47079   0.92320   0.00000  Uiso   1.00
C631   C     0.03447   0.45936   0.97463   0.00000  Uiso   1.00
C632   C     0.07775   0.47338   0.50621   0.00000  Uiso   1.00
Cu633  Cu    0.10710   0.49439   0.74436   0.00000  Uiso   1.00
Cu634  Cu    0.22623   0.50561   0.75564   0.00000  Uiso   1.00
H635   H     0.31492   0.55309   0.60019   0.00000  Uiso   1.00
H636   H     0.09789   0.65364   0.74331   0.00000  Uiso   1.00
H637   H     0.00571   0.54481   0.78397   0.00000  Uiso   1.00
H638   H     0.29899   0.59790   0.93829   0.00000  Uiso   1.00
H639   H     0.00421   0.58229   0.51209   0.00000  Uiso   1.00
H640   H     0.13311   0.46910   0.58356   0.00000  Uiso   1.00
H641   H     0.01899   0.45537   0.89860   0.00000  Uiso   1.00
H642   H     0.06104   0.46161   0.54526   0.00000  Uiso   1.00
H643   H     0.32109   0.43739   0.98969   0.00000  Uiso   1.00
H644   H     0.23557   0.34632   0.75634   0.00000  Uiso   1.00
N645   N     0.31574   0.51407   0.76416   0.00000  Uiso   1.00
N646   N     0.01759   0.48593   0.73584   0.00000  Uiso   1.00
O647   O     0.12797   0.57141   0.74633   0.00000  Uiso   1.00
O648   O     0.22858   0.58089   0.75587   0.00000  Uiso   1.00
O649   O     0.09181   0.49293   0.81840   0.00000  Uiso   1.00
O650   O     0.19242   0.50241   0.82793   0.00000  Uiso   1.00
O651   O     0.10476   0.41911   0.74413   0.00000  Uiso   1.00
O652   O     0.20536   0.42859   0.75367   0.00000  Uiso   1.00
O653   O     0.14092   0.49759   0.67207   0.00000  Uiso   1.00
O654   O     0.24152   0.50707   0.68160   0.00000  Uiso   1.00
O655   O     0.31930   0.44229   0.71516   0.00000  Uiso   1.00
C656   C     0.01831   0.43509   0.66503   0.00000  Uiso   1.00
H657   H     0.05852   0.41685   0.66495   0.00000  Uiso   1.00
H658   H     0.03290   0.47251   0.64395   0.00000  Uiso   1.00
H659   H     0.31955   0.40723   0.64412   0.00000  Uiso   1.00
C660   C     0.21635   0.59816   0.88080   0.00000  Uiso   1.00
O661   O     0.26787   0.61408   0.85421   0.00000  Uiso   1.00
O662   O     0.16578   0.61776   0.87323   0.00000  Uiso   1.00
H663   H     0.12641   0.60657   0.90005   0.00000  Uiso   1.00
C664   C     0.51513   0.60000   0.75128   0.00000  Uiso   1.00
C665   C     0.47250   0.50236   0.98747   0.00000  Uiso   1.00
C666   C     0.48705   0.52105   0.93684   0.00000  Uiso   1.00
C667   C     0.51949   0.51402   0.51756   0.00000  Uiso   1.00
C668   C     0.57861   0.54622   0.99785   0.00000  Uiso   1.00
C669   C     0.58903   0.56955   0.95082   0.00000  Uiso   1.00
C670   C     0.54244   0.56037   0.92181   0.00000  Uiso   1.00
C671   C     0.50943   0.49508   0.56702   0.00000  Uiso   1.00
C672   C     0.61303   0.54074   0.57703   0.00000  Uiso   1.00
C673   C     0.44558   0.49938   0.90323   0.00000  Uiso   1.00
C674   C     0.52360   0.65596   0.75199   0.00000  Uiso   1.00
C675   C     0.46663   0.49938   0.84716   0.00000  Uiso   1.00
C676   C     0.47656   0.34403   0.74757   0.00000  Uiso   1.00
C677   C     0.48497   0.40000   0.74843   0.00000  Uiso   1.00
C678   C     0.53367   0.50324   0.65295   0.00000  Uiso   1.00
C679   C     0.62550   0.55787   0.52707   0.00000  Uiso   1.00
C680   C     0.55391   0.51105   0.59776   0.00000  Uiso   1.00
C681   C     0.38533   0.47079   0.92320   0.00000  Uiso   1.00
C682   C     0.36780   0.45936   0.97463   0.00000  Uiso   1.00
C683   C     0.41109   0.47338   0.50621   0.00000  Uiso   1.00
Cu684  Cu    0.44043   0.49439   0.74436   0.00000  Uiso   1.00
Cu685  Cu    0.55957   0.50561   0.75564   0.00000  Uiso   1.00
H686   H     0.64825   0.55309   0.60019   0.00000  Uiso   1.00
H687   H     0.43123   0.65364   0.74331   0.00000  Uiso   1.00
H688   H     0.33904   0.54481   0.78397   0.00000  Uiso   1.00
H689   H     0.63233   0.59790   0.93829   0.00000  Uiso   1.00
H690   H     0.33754   0.58229   0.51209   0.00000  Uiso   1.00
H691   H     0.46644   0.46910   0.58356   0.00000  Uiso   1.00
H692   H     0.35232   0.45537   0.89860   0.00000  Uiso   1.00
H693   H     0.39437   0.46161   0.54526   0.00000  Uiso   1.00
H694   H     0.65442   0.43739   0.98969   0.00000  Uiso   1.00
H695   H     0.56890   0.34632   0.75634   0.00000  Uiso   1.00
N696   N     0.64908   0.51407   0.76416   0.00000  Uiso   1.00
N697   N     0.35092   0.48593   0.73584   0.00000  Uiso   1.00
O698   O     0.46131   0.57141   0.74633   0.00000  Uiso   1.00
O699   O     0.56191   0.58089   0.75587   0.00000  Uiso   1.00
O700   O     0.42515   0.49293   0.81840   0.00000  Uiso   1.00
O701   O     0.52575   0.50241   0.82793   0.00000  Uiso   1.00
O702   O     0.43809   0.41911   0.74413   0.00000  Uiso   1.00
O703   O     0.53869   0.42859   0.75367   0.00000  Uiso   1.00
O704   O     0.47425   0.49759   0.67207   0.00000  Uiso   1.00
O705   O     0.57485   0.50707   0.68160   0.00000  Uiso   1.00
O706   O     0.65263   0.44229   0.71516   0.00000  Uiso   1.00
C707   C     0.35165   0.43509   0.66503   0.00000  Uiso   1.00
H708   H     0.39185   0.41685   0.66495   0.00000  Uiso   1.00
H709   H     0.36623   0.47251   0.64395   0.00000  Uiso   1.00
H710   H     0.65289   0.40723   0.64412   0.00000  Uiso   1.00
C711   C     0.54968   0.59816   0.88080   0.00000  Uiso   1.00
O712   O     0.60120   0.61408   0.85421   0.00000  Uiso   1.00
O713   O     0.49911   0.61776   0.87323   0.00000  Uiso   1.00
H714   H     0.45974   0.60657   0.90005   0.00000  Uiso   1.00
C715   C     0.84847   0.60000   0.75128   0.00000  Uiso   1.00
C716   C     0.80583   0.50236   0.98747   0.00000  Uiso   1.00
C717   C     0.82038   0.52105   0.93684   0.00000  Uiso   1.00
C718   C     0.85282   0.51402   0.51756   0.00000  Uiso   1.00
C719   C     0.91195   0.54622   0.99785   0.00000  Uiso   1.00
C720   C     0.92236   0.56955   0.95082   0.00000  Uiso   1.00
C721   C     0.87578   0.56037   0.92181   0.00000  Uiso   1.00
C722   C     0.84276   0.49508   0.56702   0.00000  Uiso   1.00
C723   C     0.94637   0.54074   0.57703   0.00000  Uiso   1.00
C724   C     0.77892   0.49938   0.90323   0.00000  Uiso   1.00
C725   C     0.85693   0.65596   0.75199   0.00000  Uiso   1.00
C726   C     0.79996   0.49938   0.84716   0.00000  Uiso   1.00
C727   C     0.80989   0.34403   0.74757   0.00000  Uiso   1.00
C728   C     0.81830   0.40000   0.74843   0.00000  Uiso   1.00
C729   C     0.86700   0.50324   0.65295   0.00000  Uiso   1.00
C730   C     0.95883   0.55787   0.52707   0.00000  Uiso   1.00
C731   C     0.88724   0.51105   0.59776   0.00000  Uiso   1.00
C732   C     0.71866   0.47079   0.92320   0.00000  Uiso   1.00
C733   C     0.70113   0.45936   0.97463   0.00000  Uiso   1.00
C734   C     0.74442   0.47338   0.50621   0.00000  Uiso   1.00
Cu735  Cu    0.77377   0.49439   0.74436   0.00000  Uiso   1.00
Cu736  Cu    0.89290   0.50561   0.75564   0.00000  Uiso   1.00
H737   H     0.98159   0.55309   0.60019   0.00000  Uiso   1.00
H738   H     0.76456   0.65364   0.74331   0.00000  Uiso   1.00
H739   H     0.67237   0.54481   0.78397   0.00000  Uiso   1.00
H740   H     0.96566   0.59790   0.93829   0.00000  Uiso   1.00
H741   H     0.67087   0.58229   0.51209   0.00000  Uiso   1.00
H742   H     0.79978   0.46910   0.58356   0.00000  Uiso   1.00
H743   H     0.68565   0.45537   0.89860   0.00000  Uiso   1.00
H744   H     0.72770   0.46161   0.54526   0.00000  Uiso   1.00
H745   H     0.98776   0.43739   0.98969   0.00000  Uiso   1.00
H746   H     0.90223   0.34632   0.75634   0.00000  Uiso   1.00
N747   N     0.98241   0.51407   0.76416   0.00000  Uiso   1.00
N748   N     0.68426   0.48593   0.73584   0.00000  Uiso   1.00
O749   O     0.79464   0.57141   0.74633   0.00000  Uiso   1.00
O750   O     0.89524   0.58089   0.75587   0.00000  Uiso   1.00
O751   O     0.75848   0.49293   0.81840   0.00000  Uiso   1.00
O752   O     0.85908   0.50241   0.82793   0.00000  Uiso   1.00
O753   O     0.77142   0.41911   0.74413   0.00000  Uiso   1.00
O754   O     0.87203   0.42859   0.75367   0.00000  Uiso   1.00
O755   O     0.80758   0.49759   0.67207   0.00000  Uiso   1.00
O756   O     0.90819   0.50707   0.68160   0.00000  Uiso   1.00
O757   O     0.98597   0.44229   0.71516   0.00000  Uiso   1.00
C758   C     0.68498   0.43509   0.66503   0.00000  Uiso   1.00
H759   H     0.72519   0.41685   0.66495   0.00000  Uiso   1.00
H760   H     0.69957   0.47251   0.64395   0.00000  Uiso   1.00
H761   H     0.98622   0.40723   0.64412   0.00000  Uiso   1.00
C762   C     0.88301   0.59816   0.88080   0.00000  Uiso   1.00
O763   O     0.93454   0.61408   0.85421   0.00000  Uiso   1.00
O764   O     0.83244   0.61776   0.87323   0.00000  Uiso   1.00
H765   H     0.79308   0.60657   0.90005   0.00000  Uiso   1.00
C766   C     0.18180   0.93333   0.75128   0.00000  Uiso   1.00
C767   C     0.13916   0.83569   0.98747   0.00000  Uiso   1.00
C768   C     0.15371   0.85439   0.93684   0.00000  Uiso   1.00
C769   C     0.18616   0.84735   0.51756   0.00000  Uiso   1.00
C770   C     0.24528   0.87955   0.99785   0.00000  Uiso   1.00
C771   C     0.25570   0.90289   0.95082   0.00000  Uiso   1.00
C772   C     0.20911   0.89370   0.92181   0.00000  Uiso   1.00
C773   C     0.17610   0.82841   0.56702   0.00000  Uiso   1.00
C774   C     0.27970   0.87407   0.57703   0.00000  Uiso   1.00
C775   C     0.11225   0.83271   0.90323   0.00000  Uiso   1.00
C776   C     0.19027   0.98930   0.75199   0.00000  Uiso   1.00
C777   C     0.13330   0.83271   0.84716   0.00000  Uiso   1.00
C778   C     0.14322   0.67736   0.74757   0.00000  Uiso   1.00
C779   C     0.15164   0.73333   0.74843   0.00000  Uiso   1.00
C780   C     0.20034   0.83658   0.65295   0.00000  Uiso   1.00
C781   C     0.29217   0.89120   0.52707   0.00000  Uiso   1.00
C782   C     0.22058   0.84438   0.59776   0.00000  Uiso   1.00
C783   C     0.05199   0.80413   0.92320   0.00000  Uiso   1.00
C784   C     0.03447   0.79270   0.97463   0.00000  Uiso   1.00
C785   C     0.07775   0.80672   0.50621   0.00000  Uiso   1.00
Cu786  Cu    0.10710   0.82772   0.74436   0.00000  Uiso   1.00
Cu787  Cu    0.22623   0.83895   0.75564   0.00000  Uiso   1.00
H788   H     0.31492   0.88643   0.60019   0.00000  Uiso   1.00
H789   H     0.09789   0.98697   0.74331   0.00000  Uiso   1.00
H790   H     0.00571   0.87815   0.78397   0.00000  Uiso   1.00
H791   H     0.29899   0.93123   0.93829   0.00000  Uiso   1.00
H792   H     0.00421   0.91563   0.51209   0.00000  Uiso   1.00
H793   H     0.13311   0.80244   0.58356   0.00000  Uiso   1.00
H794   H     0.01899   0.78871   0.89860   0.00000  Uiso   1.00
H795   H     0.06104   0.79494   0.54526   0.00000  Uiso   1.00
H796   H     0.32109   0.77072   0.98969   0.00000  Uiso   1.00
H797   H     0.23557   0.67966   0.75634   0.00000  Uiso   1.00
N798   N     0.31574   0.84741   0.76416   0.00000  Uiso   1.00
N799   N     0.01759   0.81926   0.73584   0.00000  Uiso   1.00
O800   O     0.12797   0.90474   0.74633   0.00000  Uiso   1.00
O801   O     0.22858   0.91422   0.75587   0.00000  Uiso   1.00
O802   O     0.09181   0.82627   0.81840   0.00000  Uiso   1.00
O803   O     0.19242   0.83575   0.82793   0.00000  Uiso   1.00
O804   O     0.10476   0.75245   0.74413   0.00000  Uiso   1.00
O805   O     0.20536   0.76193   0.75367   0.00000  Uiso   1.00
O806   O     0.14092   0.83092   0.67207   0.00000  Uiso   1.00
O807   O     0.24152   0.84040   0.68160   0.00000  Uiso   1.00
O808   O     0.31930   0.77563   0.71516   0.00000  Uiso   1.00
C809   C     0.01831   0.76842   0.66503   0.00000  Uiso   1.00
H810   H     0.05852   0.75018   0.66495   0.00000  Uiso   1.00
H811   H     0.03290   0.80584   0.64395   0.00000  Uiso   1.00
H812   H     0.31955   0.74057   0.64412   0.00000  Uiso   1.00
C813   C     0.21635   0.93150   0.88080   0.00000  Uiso   1.00
O814   O     0.26787   0.94741   0.85421   0.00000  Uiso   1.00
O815   O     0.16578   0.95109   0.87323   0.00000  Uiso   1.00
H816   H     0.12641   0.93990   0.90005   0.00000  Uiso   1.00
C817   C     0.51513   0.93333   0.75128   0.00000  Uiso   1.00
C818   C     0.47250   0.83569   0.98747   0.00000  Uiso   1.00
C819   C     0.48705   0.85439   0.93684   0.00000  Uiso   1.00
C820   C     0.51949   0.84735   0.51756   0.00000  Uiso   1.00
C821   C     0.57861   0.87955   0.99785   0.00000  Uiso   1.00
C822   C     0.58903   0.90289   0.95082   0.00000  Uiso   1.00
C823   C     0.54244   0.89370   0.92181   0.00000  Uiso   1.00
C824   C     0.50943   0.82841   0.56702   0.00000  Uiso   1.00
C825   C     0.61303   0.87407   0.57703   0.00000  Uiso   1.00
C826   C     0.44558   0.83271   0.90323   0.00000  Uiso   1.00
C827   C     0.52360   0.98930   0.75199   0.00000  Uiso   1.00
C828   C     0.46663   0.83271   0.84716   0.00000  Uiso   1.00
C829   C     0.47656   0.67736   0.74757   0.00000  Uiso   1.00
C830   C     0.48497   0.73333   0.74843   0.00000  Uiso   1.00
C831   C     0.53367   0.83658   0.65295   0.00000  Uiso   1.00
C832   C     0.62550   0.89120   0.52707   0.00000  Uiso   1.00
C833   C     0.55391   0.84438   0.59776   0.00000  Uiso   1.00
C834   C     0.38533   0.80413   0.92320   0.00000  Uiso   1.00
C835   C     0.36780   0.79270   0.97463   0.00000  Uiso   1.00
C836   C     0.41109   0.80672   0.50621   0.00000  Uiso   1.00
Cu837  Cu    0.44043   0.82772   0.74436   0.00000  Uiso   1.00
Cu838  Cu    0.55957   0.83895   0.75564   0.00000  Uiso   1.00
H839   H     0.64825   0.88643   0.60019   0.00000  Uiso   1.00
H840   H     0.43123   0.98697   0.74331   0.00000  Uiso   1.00
H841   H     0.33904   0.87815   0.78397   0.00000  Uiso   1.00
H842   H     0.63233   0.93123   0.93829   0.00000  Uiso   1.00
H843   H     0.33754   0.91563   0.51209   0.00000  Uiso   1.00
H844   H     0.46644   0.80244   0.58356   0.00000  Uiso   1.00
H845   H     0.35232   0.78871   0.89860   0.00000  Uiso   1.00
H846   H     0.39437   0.79494   0.54526   0.00000  Uiso   1.00
H847   H     0.65442   0.77072   0.98969   0.00000  Uiso   1.00
H848   H     0.56890   0.67966   0.75634   0.00000  Uiso   1.00
N849   N     0.64908   0.84741   0.76416   0.00000  Uiso   1.00
N850   N     0.35092   0.81926   0.73584   0.00000  Uiso   1.00
O851   O     0.46131   0.90474   0.74633   0.00000  Uiso   1.00
O852   O     0.56191   0.91422   0.75587   0.00000  Uiso   1.00
O853   O     0.42515   0.82627   0.81840   0.00000  Uiso   1.00
O854   O     0.52575   0.83575   0.82793   0.00000  Uiso   1.00
O855   O     0.43809   0.75245   0.74413   0.00000  Uiso   1.00
O856   O     0.53869   0.76193   0.75367   0.00000  Uiso   1.00
O857   O     0.47425   0.83092   0.67207   0.00000  Uiso   1.00
O858   O     0.57485   0.84040   0.68160   0.00000  Uiso   1.00
O859   O     0.65263   0.77563   0.71516   0.00000  Uiso   1.00
C860   C     0.35165   0.76842   0.66503   0.00000  Uiso   1.00
H861   H     0.39185   0.75018   0.66495   0.00000  Uiso   1.00
H862   H     0.36623   0.80584   0.64395   0.00000  Uiso   1.00
H863   H     0.65289   0.74057   0.64412   0.00000  Uiso   1.00
C864   C     0.54968   0.93150   0.88080   0.00000  Uiso   1.00
O865   O     0.60120   0.94741   0.85421   0.00000  Uiso   1.00
O866   O     0.49911   0.95109   0.87323   0.00000  Uiso   1.00
H867   H     0.45974   0.93990   0.90005   0.00000  Uiso   1.00
C868   C     0.84847   0.93333   0.75128   0.00000  Uiso   1.00
C869   C     0.80583   0.83569   0.98747   0.00000  Uiso   1.00
C870   C     0.82038   0.85439   0.93684   0.00000  Uiso   1.00
C871   C     0.85282   0.84735   0.51756   0.00000  Uiso   1.00
C872   C     0.91195   0.87955   0.99785   0.00000  Uiso   1.00
C873   C     0.92236   0.90289   0.95082   0.00000  Uiso   1.00
C874   C     0.87578   0.89370   0.92181   0.00000  Uiso   1.00
C875   C     0.84276   0.82841   0.56702   0.00000  Uiso   1.00
C876   C     0.94637   0.87407   0.57703   0.00000  Uiso   1.00
C877   C     0.77892   0.83271   0.90323   0.00000  Uiso   1.00
C878   C     0.85693   0.98930   0.75199   0.00000  Uiso   1.00
C879   C     0.79996   0.83271   0.84716   0.00000  Uiso   1.00
C880   C     0.80989   0.67736   0.74757   0.00000  Uiso   1.00
C881   C     0.81830   0.73333   0.74843   0.00000  Uiso   1.00
C882   C     0.86700   0.83658   0.65295   0.00000  Uiso   1.00
C883   C     0.95883   0.89120   0.52707   0.00000  Uiso   1.00
C884   C     0.88724   0.84438   0.59776   0.00000  Uiso   1.00
C885   C     0.71866   0.80413   0.92320   0.00000  Uiso   1.00
C886   C     0.70113   0.79270   0.97463   0.00000  Uiso   1.00
C887   C     0.74442   0.80672   0.50621   0.00000  Uiso   1.00
Cu888  Cu    0.77377   0.82772   0.74436   0.00000  Uiso   1.00
Cu889  Cu    0.89290   0.83895   0.75564   0.00000  Uiso   1.00
H890   H     0.98159   0.88643   0.60019   0.00000  Uiso   1.00
H891   H     0.76456   0.98697   0.74331   0.00000  Uiso   1.00
H892   H     0.67237   0.87815   0.78397   0.00000  Uiso   1.00
H893   H     0.96566   0.93123   0.93829   0.00000  Uiso   1.00
H894   H     0.67087   0.91563   0.51209   0.00000  Uiso   1.00
H895   H     0.79978   0.80244   0.58356   0.00000  Uiso   1.00
H896   H     0.68565   0.78871   0.89860   0.00000  Uiso   1.00
H897   H     0.72770   0.79494   0.54526   0.00000  Uiso   1.00
H898   H     0.98776   0.77072   0.98969   0.00000  Uiso   1.00
H899   H     0.90223   0.67966   0.75634   0.00000  Uiso   1.00
N900   N     0.98241   0.84741   0.76416   0.00000  Uiso   1.00
N901   N     0.68426   0.81926   0.73584   0.00000  Uiso   1.00
O902   O     0.79464   0.90474   0.74633   0.00000  Uiso   1.00
O903   O     0.89524   0.91422   0.75587   0.00000  Uiso   1.00
O904   O     0.75848   0.82627   0.81840   0.00000  Uiso   1.00
O905   O     0.85908   0.83575   0.82793   0.00000  Uiso   1.00
O906   O     0.77142   0.75245   0.74413   0.00000  Uiso   1.00
O907   O     0.87203   0.76193   0.75367   0.00000  Uiso   1.00
O908   O     0.80758   0.83092   0.67207   0.00000  Uiso   1.00
O909   O     0.90819   0.84040   0.68160   0.00000  Uiso   1.00
O910   O     0.98597   0.77563   0.71516   0.00000  Uiso   1.00
C911   C     0.68498   0.76842   0.66503   0.00000  Uiso   1.00
H912   H     0.72519   0.75018   0.66495   0.00000  Uiso   1.00
H913   H     0.69957   0.80584   0.64395   0.00000  Uiso   1.00
H914   H     0.98622   0.74057   0.64412   0.00000  Uiso   1.00
C915   C     0.88301   0.93150   0.88080   0.00000  Uiso   1.00
O916   O     0.93454   0.94741   0.85421   0.00000  Uiso   1.00
O917   O     0.83244   0.95109   0.87323   0.00000  Uiso   1.00
H918   H     0.79308   0.93990   0.90005   0.00000  Uiso   1.00
loop_
_geom_bond_atom_site_label_1
_geom_bond_atom_site_label_2
_geom_bond_distance
_geom_bond_site_symmetry_2
_ccdc_geom_bond_type
C1     O35     1.295   .     A
C1     O36     1.288   .     A
C1     C11     1.427   .     S
C2     C3      1.422   .     A
C2     C463    1.424   .     S
C2     C479    1.419   .     S
C3     C7      1.426   .     A
C3     C10     1.425   .     A
C4     C8      1.404   .     A
C4     C461    1.424   1_554 S
C4     C464    1.418   1_554 S
C5     C6      1.392   .     A
C5     C463    1.418   .     S
C5     C475    1.406   .     S
C6     C7      1.397   .     A
C6     H26     1.085   .     S
C7     C48     1.490   .     S
C8     H28     1.074   .     S
C8     C17     1.397   .     A
C9     C17     1.398   .     A
C9     C16     1.393   .     A
C9     H23     1.083   .     S
C10    C12     1.473   .     S
C10    C18     1.402   .     A
C11    C166    1.327   .     S
C11    H185    1.087   .     S
C12    O38     1.301   .     A
C12    O37     1.303   .     A
C13    C14     1.427   .     S
C13    C317    1.327   1_545 S
C13    H330    1.088   1_545 S
C14    O40     1.295   .     A
C14    O39     1.288   .     A
C15    O42     1.303   .     A
C15    O41     1.299   .     A
C15    C17     1.465   .     S
C16    C464    1.406   1_554 S
C16    H78     1.084   .     S
C18    H29     1.083   .     S
C18    C19     1.385   .     A
C19    C479    1.389   .     S
C19    H133    1.083   1_455 S
C20    H30     1.076   .     S
C20    C478    1.389   1_554 S
C20    C461    1.419   1_554 S
Cu21   O35     1.955   .     S
Cu21   O39     1.950   .     S
Cu21   O41     1.922   .     S
Cu21   Cu22    2.698   .     S
Cu21   O37     1.939   .     S
Cu21   N34     2.027   .     S
Cu22   O42     1.939   .     S
Cu22   O36     1.950   .     S
Cu22   O40     1.955   .     S
Cu22   O38     1.922   .     S
Cu22   N33     2.027   .     S
H24    C166    1.088   .     S
H25    N135    1.029   1_455 S
H27    C118    1.084   1_455 S
H31    C70     1.083   .     S
H32    C317    1.087   1_545 S
N33    H76     1.029   .     S
N33    N85     1.285   .     S
N34    N135    1.285   1_455 S
N34    O145    1.345   1_455 S
O43    N85     1.345   .     S
O43    C95     1.402   .     S
C44    H46     1.114   .     S
C44    H45     1.108   .     S
C44    O145    1.402   1_455 S
C44    H149    1.109   1_455 S
H47    C95     1.109   .     S
C48    O50     1.399   .     S
C48    O49     1.221   .     D
O50    H51     1.013   .     S
C52    O86     1.295   .     A
C52    O87     1.288   .     A
C52    C62     1.427   .     S
C53    C54     1.422   .     A
C53    C514    1.424   .     S
C53    C530    1.419   .     S
C54    C58     1.426   .     A
C54    C61     1.425   .     A
C55    C59     1.404   .     A
C55    C512    1.424   1_554 S
C55    C515    1.418   1_554 S
C56    C57     1.392   .     A
C56    C514    1.418   .     S
C56    C526    1.406   .     S
C57    C58     1.397   .     A
C57    H77     1.085   .     S
C58    C99     1.490   .     S
C59    H79     1.074   .     S
C59    C68     1.397   .     A
C60    C68     1.398   .     A
C60    C67     1.393   .     A
C60    H74     1.083   .     S
C61    C63     1.473   .     S
C61    C69     1.402   .     A
C62    C217    1.327   .     S
C62    H236    1.087   .     S
C63    O89     1.301   .     A
C63    O88     1.303   .     A
C64    C65     1.427   .     S
C64    C368    1.327   1_545 S
C64    H381    1.088   1_545 S
C65    O91     1.295   .     A
C65    O90     1.288   .     A
C66    O93     1.303   .     A
C66    O92     1.299   .     A
C66    C68     1.465   .     S
C67    C515    1.406   1_554 S
C67    H129    1.084   .     S
C69    H80     1.083   .     S
C69    C70     1.385   .     A
C70    C530    1.389   .     S
C71    H81     1.076   .     S
C71    C529    1.389   1_554 S
C71    C512    1.419   1_554 S
Cu72   O86     1.955   .     S
Cu72   O90     1.950   .     S
Cu72   O92     1.922   .     S
Cu72   Cu73    2.698   .     S
Cu72   O88     1.939   .     S
Cu72   N85     2.027   .     S
Cu73   O93     1.939   .     S
Cu73   O87     1.950   .     S
Cu73   O91     1.955   .     S
Cu73   O89     1.922   .     S
Cu73   N84     2.027   .     S
H75    C217    1.088   .     S
H82    C121    1.083   .     S
H83    C368    1.087   1_545 S
N84    H127    1.029   .     S
N84    N136    1.285   .     S
O94    N136    1.345   .     S
O94    C146    1.402   .     S
C95    H97     1.114   .     S
C95    H96     1.108   .     S
H98    C146    1.109   .     S
C99    O101    1.399   .     S
C99    O100    1.221   .     D
O101   H102    1.013   .     S
C103   O137    1.295   .     A
C103   O138    1.288   .     A
C103   C113    1.427   .     S
C104   C105    1.422   .     A
C104   C565    1.424   .     S
C104   C581    1.419   .     S
C105   C109    1.426   .     A
C105   C112    1.425   .     A
C106   C110    1.404   .     A
C106   C563    1.424   1_554 S
C106   C566    1.418   1_554 S
C107   C108    1.392   .     A
C107   C565    1.418   .     S
C107   C577    1.406   .     S
C108   C109    1.397   .     A
C108   H128    1.085   .     S
C109   C150    1.490   .     S
C110   H130    1.074   .     S
C110   C119    1.397   .     A
C111   C119    1.398   .     A
C111   C118    1.393   .     A
C111   H125    1.083   .     S
C112   C114    1.473   .     S
C112   C120    1.402   .     A
C113   C268    1.327   .     S
C113   H287    1.087   .     S
C114   O140    1.301   .     A
C114   O139    1.303   .     A
C115   C116    1.427   .     S
C115   C419    1.327   1_545 S
C115   H432    1.088   1_545 S
C116   O142    1.295   .     A
C116   O141    1.288   .     A
C117   O144    1.303   .     A
C117   O143    1.299   .     A
C117   C119    1.465   .     S
C118   C566    1.406   1_554 S
C118   H27     1.084   1_655 S
C120   H131    1.083   .     S
C120   C121    1.385   .     A
C121   C581    1.389   .     S
C122   H132    1.076   .     S
C122   C580    1.389   1_554 S
C122   C563    1.419   1_554 S
Cu123  O137    1.955   .     S
Cu123  O141    1.950   .     S
Cu123  O143    1.922   .     S
Cu123  Cu124   2.698   .     S
Cu123  O139    1.939   .     S
Cu123  N136    2.027   .     S
Cu124  O144    1.939   .     S
Cu124  O138    1.950   .     S
Cu124  O142    1.955   .     S
Cu124  O140    1.922   .     S
Cu124  N135    2.027   .     S
H126   C268    1.088   .     S
H133   C19     1.083   1_655 S
H134   C419    1.087   1_545 S
N135   H25     1.029   1_655 S
N135   N34     1.285   1_655 S
O145   N34     1.345   1_655 S
O145   C44     1.402   1_655 S
C146   H148    1.114   .     S
C146   H147    1.108   .     S
H149   C44     1.109   1_655 S
C150   O152    1.399   .     S
C150   O151    1.221   .     D
O152   H153    1.013   .     S
C154   O188    1.295   .     A
C154   O189    1.288   .     A
C154   C164    1.427   .     S
C155   C156    1.422   .     A
C155   C616    1.424   .     S
C155   C632    1.419   .     S
C156   C160    1.426   .     A
C156   C163    1.425   .     A
C157   C161    1.404   .     A
C157   C614    1.424   1_554 S
C157   C617    1.418   1_554 S
C158   C159    1.392   .     A
C158   C616    1.418   .     S
C158   C628    1.406   .     S
C159   C160    1.397   .     A
C159   H179    1.085   .     S
C160   C201    1.490   .     S
C161   H181    1.074   .     S
C161   C170    1.397   .     A
C162   C170    1.398   .     A
C162   C169    1.393   .     A
C162   H176    1.083   .     S
C163   C165    1.473   .     S
C163   C171    1.402   .     A
C164   C319    1.327   .     S
C164   H338    1.087   .     S
C165   O191    1.301   .     A
C165   O190    1.303   .     A
C166   C167    1.427   .     S
C167   O193    1.295   .     A
C167   O192    1.288   .     A
C168   O195    1.303   .     A
C168   O194    1.299   .     A
C168   C170    1.465   .     S
C169   C617    1.406   1_554 S
C169   H231    1.084   .     S
C171   H182    1.083   .     S
C171   C172    1.385   .     A
C172   C632    1.389   .     S
C172   H286    1.083   1_455 S
C173   H183    1.076   .     S
C173   C631    1.389   1_554 S
C173   C614    1.419   1_554 S
Cu174  O188    1.955   .     S
Cu174  O192    1.950   .     S
Cu174  O194    1.922   .     S
Cu174  Cu175   2.698   .     S
Cu174  O190    1.939   .     S
Cu174  N187    2.027   .     S
Cu175  O195    1.939   .     S
Cu175  O189    1.950   .     S
Cu175  O193    1.955   .     S
Cu175  O191    1.922   .     S
Cu175  N186    2.027   .     S
H177   C319    1.088   .     S
H178   N288    1.029   1_455 S
H180   C271    1.084   1_455 S
H184   C223    1.083   .     S
N186   H229    1.029   .     S
N186   N238    1.285   .     S
N187   N288    1.285   1_455 S
N187   O298    1.345   1_455 S
O196   N238    1.345   .     S
O196   C248    1.402   .     S
C197   H199    1.114   .     S
C197   H198    1.108   .     S
C197   O298    1.402   1_455 S
C197   H302    1.109   1_455 S
H200   C248    1.109   .     S
C201   O203    1.399   .     S
C201   O202    1.221   .     D
O203   H204    1.013   .     S
C205   O239    1.295   .     A
C205   O240    1.288   .     A
C205   C215    1.427   .     S
C206   C207    1.422   .     A
C206   C667    1.424   .     S
C206   C683    1.419   .     S
C207   C211    1.426   .     A
C207   C214    1.425   .     A
C208   C212    1.404   .     A
C208   C665    1.424   1_554 S
C208   C668    1.418   1_554 S
C209   C210    1.392   .     A
C209   C667    1.418   .     S
C209   C679    1.406   .     S
C210   C211    1.397   .     A
C210   H230    1.085   .     S
C211   C252    1.490   .     S
C212   H232    1.074   .     S
C212   C221    1.397   .     A
C213   C221    1.398   .     A
C213   C220    1.393   .     A
C213   H227    1.083   .     S
C214   C216    1.473   .     S
C214   C222    1.402   .     A
C215   C370    1.327   .     S
C215   H389    1.087   .     S
C216   O242    1.301   .     A
C216   O241    1.303   .     A
C217   C218    1.427   .     S
C218   O244    1.295   .     A
C218   O243    1.288   .     A
C219   O246    1.303   .     A
C219   O245    1.299   .     A
C219   C221    1.465   .     S
C220   C668    1.406   1_554 S
C220   H282    1.084   .     S
C222   H233    1.083   .     S
C222   C223    1.385   .     A
C223   C683    1.389   .     S
C224   H234    1.076   .     S
C224   C682    1.389   1_554 S
C224   C665    1.419   1_554 S
Cu225  O239    1.955   .     S
Cu225  O243    1.950   .     S
Cu225  O245    1.922   .     S
Cu225  Cu226   2.698   .     S
Cu225  O241    1.939   .     S
Cu225  N238    2.027   .     S
Cu226  O246    1.939   .     S
Cu226  O240    1.950   .     S
Cu226  O244    1.955   .     S
Cu226  O242    1.922   .     S
Cu226  N237    2.027   .     S
H228   C370    1.088   .     S
H235   C274    1.083   .     S
N237   H280    1.029   .     S
N237   N289    1.285   .     S
O247   N289    1.345   .     S
O247   C299    1.402   .     S
C248   H250    1.114   .     S
C248   H249    1.108   .     S
H251   C299    1.109   .     S
C252   O254    1.399   .     S
C252   O253    1.221   .     D
O254   H255    1.013   .     S
C256   O290    1.295   .     A
C256   O291    1.288   .     A
C256   C266    1.427   .     S
C257   C258    1.422   .     A
C257   C718    1.424   .     S
C257   C734    1.419   .     S
C258   C262    1.426   .     A
C258   C265    1.425   .     A
C259   C263    1.404   .     A
C259   C716    1.424   1_554 S
C259   C719    1.418   1_554 S
C260   C261    1.392   .     A
C260   C718    1.418   .     S
C260   C730    1.406   .     S
C261   C262    1.397   .     A
C261   H281    1.085   .     S
C262   C303    1.490   .     S
C263   H283    1.074   .     S
C263   C272    1.397   .     A
C264   C272    1.398   .     A
C264   C271    1.393   .     A
C264   H278    1.083   .     S
C265   C267    1.473   .     S
C265   C273    1.402   .     A
C266   C421    1.327   .     S
C266   H440    1.087   .     S
C267   O293    1.301   .     A
C267   O292    1.303   .     A
C268   C269    1.427   .     S
C269   O295    1.295   .     A
C269   O294    1.288   .     A
C270   O297    1.303   .     A
C270   O296    1.299   .     A
C270   C272    1.465   .     S
C271   C719    1.406   1_554 S
C271   H180    1.084   1_655 S
C273   H284    1.083   .     S
C273   C274    1.385   .     A
C274   C734    1.389   .     S
C275   H285    1.076   .     S
C275   C733    1.389   1_554 S
C275   C716    1.419   1_554 S
Cu276  O290    1.955   .     S
Cu276  O294    1.950   .     S
Cu276  O296    1.922   .     S
Cu276  Cu277   2.698   .     S
Cu276  O292    1.939   .     S
Cu276  N289    2.027   .     S
Cu277  O297    1.939   .     S
Cu277  O291    1.950   .     S
Cu277  O295    1.955   .     S
Cu277  O293    1.922   .     S
Cu277  N288    2.027   .     S
H279   C421    1.088   .     S
H286   C172    1.083   1_655 S
N288   H178    1.029   1_655 S
N288   N187    1.285   1_655 S
O298   N187    1.345   1_655 S
O298   C197    1.402   1_655 S
C299   H301    1.114   .     S
C299   H300    1.108   .     S
H302   C197    1.109   1_655 S
C303   O305    1.399   .     S
C303   O304    1.221   .     D
O305   H306    1.013   .     S
C307   O341    1.295   .     A
C307   O342    1.288   .     A
C307   C317    1.427   .     S
C308   C309    1.422   .     A
C308   C769    1.424   .     S
C308   C785    1.419   .     S
C309   C313    1.426   .     A
C309   C316    1.425   .     A
C310   C314    1.404   .     A
C310   C767    1.424   1_554 S
C310   C770    1.418   1_554 S
C311   C312    1.392   .     A
C311   C769    1.418   .     S
C311   C781    1.406   .     S
C312   C313    1.397   .     A
C312   H332    1.085   .     S
C313   C354    1.490   .     S
C314   H334    1.074   .     S
C314   C323    1.397   .     A
C315   C323    1.398   .     A
C315   C322    1.393   .     A
C315   H329    1.083   .     S
C316   C318    1.473   .     S
C316   C324    1.402   .     A
C317   C13     1.327   1_565 S
C317   H32     1.087   1_565 S
C318   O344    1.301   .     A
C318   O343    1.303   .     A
C319   C320    1.427   .     S
C320   O346    1.295   .     A
C320   O345    1.288   .     A
C321   O348    1.303   .     A
C321   O347    1.299   .     A
C321   C323    1.465   .     S
C322   C770    1.406   1_554 S
C322   H384    1.084   .     S
C324   H335    1.083   .     S
C324   C325    1.385   .     A
C325   C785    1.389   .     S
C325   H439    1.083   1_455 S
C326   H336    1.076   .     S
C326   C784    1.389   1_554 S
C326   C767    1.419   1_554 S
Cu327  O341    1.955   .     S
Cu327  O345    1.950   .     S
Cu327  O347    1.922   .     S
Cu327  Cu328   2.698   .     S
Cu327  O343    1.939   .     S
Cu327  N340    2.027   .     S
Cu328  O348    1.939   .     S
Cu328  O342    1.950   .     S
Cu328  O346    1.955   .     S
Cu328  O344    1.922   .     S
Cu328  N339    2.027   .     S
H330   C13     1.088   1_565 S
H331   N441    1.029   1_455 S
H333   C424    1.084   1_455 S
H337   C376    1.083   .     S
N339   H382    1.029   .     S
N339   N391    1.285   .     S
N340   N441    1.285   1_455 S
N340   O451    1.345   1_455 S
O349   N391    1.345   .     S
O349   C401    1.402   .     S
C350   H352    1.114   .     S
C350   H351    1.108   .     S
C350   O451    1.402   1_455 S
C350   H455    1.109   1_455 S
H353   C401    1.109   .     S
C354   O356    1.399   .     S
C354   O355    1.221   .     D
O356   H357    1.013   .     S
C358   O392    1.295   .     A
C358   O393    1.288   .     A
C358   C368    1.427   .     S
C359   C360    1.422   .     A
C359   C820    1.424   .     S
C359   C836    1.419   .     S
C360   C364    1.426   .     A
C360   C367    1.425   .     A
C361   C365    1.404   .     A
C361   C818    1.424   1_554 S
C361   C821    1.418   1_554 S
C362   C363    1.392   .     A
C362   C820    1.418   .     S
C362   C832    1.406   .     S
C363   C364    1.397   .     A
C363   H383    1.085   .     S
C364   C405    1.490   .     S
C365   H385    1.074   .     S
C365   C374    1.397   .     A
C366   C374    1.398   .     A
C366   C373    1.393   .     A
C366   H380    1.083   .     S
C367   C369    1.473   .     S
C367   C375    1.402   .     A
C368   C64     1.327   1_565 S
C368   H83     1.087   1_565 S
C369   O395    1.301   .     A
C369   O394    1.303   .     A
C370   C371    1.427   .     S
C371   O397    1.295   .     A
C371   O396    1.288   .     A
C372   O399    1.303   .     A
C372   O398    1.299   .     A
C372   C374    1.465   .     S
C373   C821    1.406   1_554 S
C373   H435    1.084   .     S
C375   H386    1.083   .     S
C375   C376    1.385   .     A
C376   C836    1.389   .     S
C377   H387    1.076   .     S
C377   C835    1.389   1_554 S
C377   C818    1.419   1_554 S
Cu378  O392    1.955   .     S
Cu378  O396    1.950   .     S
Cu378  O398    1.922   .     S
Cu378  Cu379   2.698   .     S
Cu378  O394    1.939   .     S
Cu378  N391    2.027   .     S
Cu379  O399    1.939   .     S
Cu379  O393    1.950   .     S
Cu379  O397    1.955   .     S
Cu379  O395    1.922   .     S
Cu379  N390    2.027   .     S
H381   C64     1.088   1_565 S
H388   C427    1.083   .     S
N390   H433    1.029   .     S
N390   N442    1.285   .     S
O400   N442    1.345   .     S
O400   C452    1.402   .     S
C401   H403    1.114   .     S
C401   H402    1.108   .     S
H404   C452    1.109   .     S
C405   O407    1.399   .     S
C405   O406    1.221   .     D
O407   H408    1.013   .     S
C409   O443    1.295   .     A
C409   O444    1.288   .     A
C409   C419    1.427   .     S
C410   C411    1.422   .     A
C410   C871    1.424   .     S
C410   C887    1.419   .     S
C411   C415    1.426   .     A
C411   C418    1.425   .     A
C412   C416    1.404   .     A
C412   C869    1.424   1_554 S
C412   C872    1.418   1_554 S
C413   C414    1.392   .     A
C413   C871    1.418   .     S
C413   C883    1.406   .     S
C414   C415    1.397   .     A
C414   H434    1.085   .     S
C415   C456    1.490   .     S
C416   H436    1.074   .     S
C416   C425    1.397   .     A
C417   C425    1.398   .     A
C417   C424    1.393   .     A
C417   H431    1.083   .     S
C418   C420    1.473   .     S
C418   C426    1.402   .     A
C419   C115    1.327   1_565 S
C419   H134    1.087   1_565 S
C420   O446    1.301   .     A
C420   O445    1.303   .     A
C421   C422    1.427   .     S
C422   O448    1.295   .     A
C422   O447    1.288   .     A
C423   O450    1.303   .     A
C423   O449    1.299   .     A
C423   C425    1.465   .     S
C424   C872    1.406   1_554 S
C424   H333    1.084   1_655 S
C426   H437    1.083   .     S
C426   C427    1.385   .     A
C427   C887    1.389   .     S
C428   H438    1.076   .     S
C428   C886    1.389   1_554 S
C428   C869    1.419   1_554 S
Cu429  O443    1.955   .     S
Cu429  O447    1.950   .     S
Cu429  O449    1.922   .     S
Cu429  Cu430   2.698   .     S
Cu429  O445    1.939   .     S
Cu429  N442    2.027   .     S
Cu430  O450    1.939   .     S
Cu430  O444    1.950   .     S
Cu430  O448    1.955   .     S
Cu430  O446    1.922   .     S
Cu430  N441    2.027   .     S
H432   C115    1.088   1_565 S
H439   C325    1.083   1_655 S
N441   H331    1.029   1_655 S
N441   N340    1.285   1_655 S
O451   N340    1.345   1_655 S
O451   C350    1.402   1_655 S
C452   H454    1.114   .     S
C452   H453    1.108   .     S
H455   C350    1.109   1_655 S
C456   O458    1.399   .     S
C456   O457    1.221   .     D
O458   H459    1.013   .     S
C460   O494    1.295   .     A
C460   O495    1.288   .     A
C460   C470    1.427   .     S
C461   C462    1.422   .     A
C461   C4      1.424   1_556 S
C461   C20     1.419   1_556 S
C462   C466    1.426   .     A
C462   C469    1.425   .     A
C463   C467    1.404   .     A
C464   C465    1.392   .     A
C464   C4      1.418   1_556 S
C464   C16     1.406   1_556 S
C465   C466    1.397   .     A
C465   H485    1.085   .     S
C466   C507    1.490   .     S
C467   H487    1.074   .     S
C467   C476    1.397   .     A
C468   C476    1.398   .     A
C468   C475    1.393   .     A
C468   H482    1.083   .     S
C469   C471    1.473   .     S
C469   C477    1.402   .     A
C470   C625    1.327   .     S
C470   H644    1.087   .     S
C471   O497    1.301   .     A
C471   O496    1.303   .     A
C472   C473    1.427   .     S
C472   C776    1.327   1_545 S
C472   H789    1.088   1_545 S
C473   O499    1.295   .     A
C473   O498    1.288   .     A
C474   O501    1.303   .     A
C474   O500    1.299   .     A
C474   C476    1.465   .     S
C475   H537    1.084   .     S
C477   H488    1.083   .     S
C477   C478    1.385   .     A
C478   C20     1.389   1_556 S
C478   H592    1.083   1_455 S
C479   H489    1.076   .     S
Cu480  O494    1.955   .     S
Cu480  O498    1.950   .     S
Cu480  O500    1.922   .     S
Cu480  Cu481   2.698   .     S
Cu480  O496    1.939   .     S
Cu480  N493    2.027   .     S
Cu481  O501    1.939   .     S
Cu481  O495    1.950   .     S
Cu481  O499    1.955   .     S
Cu481  O497    1.922   .     S
Cu481  N492    2.027   .     S
H483   C625    1.088   .     S
H484   N594    1.029   1_455 S
H486   C577    1.084   1_455 S
H490   C529    1.083   .     S
H491   C776    1.087   1_545 S
N492   H535    1.029   .     S
N492   N544    1.285   .     S
N493   N594    1.285   1_455 S
N493   O604    1.345   1_455 S
O502   N544    1.345   .     S
O502   C554    1.402   .     S
C503   H505    1.114   .     S
C503   H504    1.108   .     S
C503   O604    1.402   1_455 S
C503   H608    1.109   1_455 S
H506   C554    1.109   .     S
C507   O509    1.399   .     S
C507   O508    1.221   .     D
O509   H510    1.013   .     S
C511   O545    1.295   .     A
C511   O546    1.288   .     A
C511   C521    1.427   .     S
C512   C513    1.422   .     A
C512   C55     1.424   1_556 S
C512   C71     1.419   1_556 S
C513   C517    1.426   .     A
C513   C520    1.425   .     A
C514   C518    1.404   .     A
C515   C516    1.392   .     A
C515   C55     1.418   1_556 S
C515   C67     1.406   1_556 S
C516   C517    1.397   .     A
C516   H536    1.085   .     S
C517   C558    1.490   .     S
C518   H538    1.074   .     S
C518   C527    1.397   .     A
C519   C527    1.398   .     A
C519   C526    1.393   .     A
C519   H533    1.083   .     S
C520   C522    1.473   .     S
C520   C528    1.402   .     A
C521   C676    1.327   .     S
C521   H695    1.087   .     S
C522   O548    1.301   .     A
C522   O547    1.303   .     A
C523   C524    1.427   .     S
C523   C827    1.327   1_545 S
C523   H840    1.088   1_545 S
C524   O550    1.295   .     A
C524   O549    1.288   .     A
C525   O552    1.303   .     A
C525   O551    1.299   .     A
C525   C527    1.465   .     S
C526   H588    1.084   .     S
C528   H539    1.083   .     S
C528   C529    1.385   .     A
C529   C71     1.389   1_556 S
C530   H540    1.076   .     S
Cu531  O545    1.955   .     S
Cu531  O549    1.950   .     S
Cu531  O551    1.922   .     S
Cu531  Cu532   2.698   .     S
Cu531  O547    1.939   .     S
Cu531  N544    2.027   .     S
Cu532  O552    1.939   .     S
Cu532  O546    1.950   .     S
Cu532  O550    1.955   .     S
Cu532  O548    1.922   .     S
Cu532  N543    2.027   .     S
H534   C676    1.088   .     S
H541   C580    1.083   .     S
H542   C827    1.087   1_545 S
N543   H586    1.029   .     S
N543   N595    1.285   .     S
O553   N595    1.345   .     S
O553   C605    1.402   .     S
C554   H556    1.114   .     S
C554   H555    1.108   .     S
H557   C605    1.109   .     S
C558   O560    1.399   .     S
C558   O559    1.221   .     D
O560   H561    1.013   .     S
C562   O596    1.295   .     A
C562   O597    1.288   .     A
C562   C572    1.427   .     S
C563   C564    1.422   .     A
C563   C106    1.424   1_556 S
C563   C122    1.419   1_556 S
C564   C568    1.426   .     A
C564   C571    1.425   .     A
C565   C569    1.404   .     A
C566   C567    1.392   .     A
C566   C106    1.418   1_556 S
C566   C118    1.406   1_556 S
C567   C568    1.397   .     A
C567   H587    1.085   .     S
C568   C609    1.490   .     S
C569   H589    1.074   .     S
C569   C578    1.397   .     A
C570   C578    1.398   .     A
C570   C577    1.393   .     A
C570   H584    1.083   .     S
C571   C573    1.473   .     S
C571   C579    1.402   .     A
C572   C727    1.327   .     S
C572   H746    1.087   .     S
C573   O599    1.301   .     A
C573   O598    1.303   .     A
C574   C575    1.427   .     S
C574   C878    1.327   1_545 S
C574   H891    1.088   1_545 S
C575   O601    1.295   .     A
C575   O600    1.288   .     A
C576   O603    1.303   .     A
C576   O602    1.299   .     A
C576   C578    1.465   .     S
C577   H486    1.084   1_655 S
C579   H590    1.083   .     S
C579   C580    1.385   .     A
C580   C122    1.389   1_556 S
C581   H591    1.076   .     S
Cu582  O596    1.955   .     S
Cu582  O600    1.950   .     S
Cu582  O602    1.922   .     S
Cu582  Cu583   2.698   .     S
Cu582  O598    1.939   .     S
Cu582  N595    2.027   .     S
Cu583  O603    1.939   .     S
Cu583  O597    1.950   .     S
Cu583  O601    1.955   .     S
Cu583  O599    1.922   .     S
Cu583  N594    2.027   .     S
H585   C727    1.088   .     S
H592   C478    1.083   1_655 S
H593   C878    1.087   1_545 S
N594   H484    1.029   1_655 S
N594   N493    1.285   1_655 S
O604   N493    1.345   1_655 S
O604   C503    1.402   1_655 S
C605   H607    1.114   .     S
C605   H606    1.108   .     S
H608   C503    1.109   1_655 S
C609   O611    1.399   .     S
C609   O610    1.221   .     D
O611   H612    1.013   .     S
C613   O647    1.295   .     A
C613   O648    1.288   .     A
C613   C623    1.427   .     S
C614   C615    1.422   .     A
C614   C157    1.424   1_556 S
C614   C173    1.419   1_556 S
C615   C619    1.426   .     A
C615   C622    1.425   .     A
C616   C620    1.404   .     A
C617   C618    1.392   .     A
C617   C157    1.418   1_556 S
C617   C169    1.406   1_556 S
C618   C619    1.397   .     A
C618   H638    1.085   .     S
C619   C660    1.490   .     S
C620   H640    1.074   .     S
C620   C629    1.397   .     A
C621   C629    1.398   .     A
C621   C628    1.393   .     A
C621   H635    1.083   .     S
C622   C624    1.473   .     S
C622   C630    1.402   .     A
C623   C778    1.327   .     S
C623   H797    1.087   .     S
C624   O650    1.301   .     A
C624   O649    1.303   .     A
C625   C626    1.427   .     S
C626   O652    1.295   .     A
C626   O651    1.288   .     A
C627   O654    1.303   .     A
C627   O653    1.299   .     A
C627   C629    1.465   .     S
C628   H690    1.084   .     S
C630   H641    1.083   .     S
C630   C631    1.385   .     A
C631   C173    1.389   1_556 S
C631   H745    1.083   1_455 S
C632   H642    1.076   .     S
Cu633  O647    1.955   .     S
Cu633  O651    1.950   .     S
Cu633  O653    1.922   .     S
Cu633  Cu634   2.698   .     S
Cu633  O649    1.939   .     S
Cu633  N646    2.027   .     S
Cu634  O654    1.939   .     S
Cu634  O648    1.950   .     S
Cu634  O652    1.955   .     S
Cu634  O650    1.922   .     S
Cu634  N645    2.027   .     S
H636   C778    1.088   .     S
H637   N747    1.029   1_455 S
H639   C730    1.084   1_455 S
H643   C682    1.083   .     S
N645   H688    1.029   .     S
N645   N697    1.285   .     S
N646   N747    1.285   1_455 S
N646   O757    1.345   1_455 S
O655   N697    1.345   .     S
O655   C707    1.402   .     S
C656   H658    1.114   .     S
C656   H657    1.108   .     S
C656   O757    1.402   1_455 S
C656   H761    1.109   1_455 S
H659   C707    1.109   .     S
C660   O662    1.399   .     S
C660   O661    1.221   .     D
O662   H663    1.013   .     S
C664   O698    1.295   .     A
C664   O699    1.288   .     A
C664   C674    1.427   .     S
C665   C666    1.422   .     A
C665   C208    1.424   1_556 S
C665   C224    1.419   1_556 S
C666   C670    1.426   .     A
C666   C673    1.425   .     A
C667   C671    1.404   .     A
C668   C669    1.392   .     A
C668   C208    1.418   1_556 S
C668   C220    1.406   1_556 S
C669   C670    1.397   .     A
C669   H689    1.085   .     S
C670   C711    1.490   .     S
C671   H691    1.074   .     S
C671   C680    1.397   .     A
C672   C680    1.398   .     A
C672   C679    1.393   .     A
C672   H686    1.083   .     S
C673   C675    1.473   .     S
C673   C681    1.402   .     A
C674   C829    1.327   .     S
C674   H848    1.087   .     S
C675   O701    1.301   .     A
C675   O700    1.303   .     A
C676   C677    1.427   .     S
C677   O703    1.295   .     A
C677   O702    1.288   .     A
C678   O705    1.303   .     A
C678   O704    1.299   .     A
C678   C680    1.465   .     S
C679   H741    1.084   .     S
C681   H692    1.083   .     S
C681   C682    1.385   .     A
C682   C224    1.389   1_556 S
C683   H693    1.076   .     S
Cu684  O698    1.955   .     S
Cu684  O702    1.950   .     S
Cu684  O704    1.922   .     S
Cu684  Cu685   2.698   .     S
Cu684  O700    1.939   .     S
Cu684  N697    2.027   .     S
Cu685  O705    1.939   .     S
Cu685  O699    1.950   .     S
Cu685  O703    1.955   .     S
Cu685  O701    1.922   .     S
Cu685  N696    2.027   .     S
H687   C829    1.088   .     S
H694   C733    1.083   .     S
N696   H739    1.029   .     S
N696   N748    1.285   .     S
O706   N748    1.345   .     S
O706   C758    1.402   .     S
C707   H709    1.114   .     S
C707   H708    1.108   .     S
H710   C758    1.109   .     S
C711   O713    1.399   .     S
C711   O712    1.221   .     D
O713   H714    1.013   .     S
C715   O749    1.295   .     A
C715   O750    1.288   .     A
C715   C725    1.427   .     S
C716   C717    1.422   .     A
C716   C259    1.424   1_556 S
C716   C275    1.419   1_556 S
C717   C721    1.426   .     A
C717   C724    1.425   .     A
C718   C722    1.404   .     A
C719   C720    1.392   .     A
C719   C259    1.418   1_556 S
C719   C271    1.406   1_556 S
C720   C721    1.397   .     A
C720   H740    1.085   .     S
C721   C762    1.490   .     S
C722   H742    1.074   .     S
C722   C731    1.397   .     A
C723   C731    1.398   .     A
C723   C730    1.393   .     A
C723   H737    1.083   .     S
C724   C726    1.473   .     S
C724   C732    1.402   .     A
C725   C880    1.327   .     S
C725   H899    1.087   .     S
C726   O752    1.301   .     A
C726   O751    1.303   .     A
C727   C728    1.427   .     S
C728   O754    1.295   .     A
C728   O753    1.288   .     A
C729   O756    1.303   .     A
C729   O755    1.299   .     A
C729   C731    1.465   .     S
C730   H639    1.084   1_655 S
C732   H743    1.083   .     S
C732   C733    1.385   .     A
C733   C275    1.389   1_556 S
C734   H744    1.076   .     S
Cu735  O749    1.955   .     S
Cu735  O753    1.950   .     S
Cu735  O755    1.922   .     S
Cu735  Cu736   2.698   .     S
Cu735  O751    1.939   .     S
Cu735  N748    2.027   .     S
Cu736  O756    1.939   .     S
Cu736  O750    1.950   .     S
Cu736  O754    1.955   .     S
Cu736  O752    1.922   .     S
Cu736  N747    2.027   .     S
H738   C880    1.088   .     S
H745   C631    1.083   1_655 S
N747   H637    1.029   1_655 S
N747   N646    1.285   1_655 S
O757   N646    1.345   1_655 S
O757   C656    1.402   1_655 S
C758   H760    1.114   .     S
C758   H759    1.108   .     S
H761   C656    1.109   1_655 S
C762   O764    1.399   .     S
C762   O763    1.221   .     D
O764   H765    1.013   .     S
C766   O800    1.295   .     A
C766   O801    1.288   .     A
C766   C776    1.427   .     S
C767   C768    1.422   .     A
C767   C310    1.424   1_556 S
C767   C326    1.419   1_556 S
C768   C772    1.426   .     A
C768   C775    1.425   .     A
C769   C773    1.404   .     A
C770   C771    1.392   .     A
C770   C310    1.418   1_556 S
C770   C322    1.406   1_556 S
C771   C772    1.397   .     A
C771   H791    1.085   .     S
C772   C813    1.490   .     S
C773   H793    1.074   .     S
C773   C782    1.397   .     A
C774   C782    1.398   .     A
C774   C781    1.393   .     A
C774   H788    1.083   .     S
C775   C777    1.473   .     S
C775   C783    1.402   .     A
C776   C472    1.327   1_565 S
C776   H491    1.087   1_565 S
C777   O803    1.301   .     A
C777   O802    1.303   .     A
C778   C779    1.427   .     S
C779   O805    1.295   .     A
C779   O804    1.288   .     A
C780   O807    1.303   .     A
C780   O806    1.299   .     A
C780   C782    1.465   .     S
C781   H843    1.084   .     S
C783   H794    1.083   .     S
C783   C784    1.385   .     A
C784   C326    1.389   1_556 S
C784   H898    1.083   1_455 S
C785   H795    1.076   .     S
Cu786  O800    1.955   .     S
Cu786  O804    1.950   .     S
Cu786  O806    1.922   .     S
Cu786  Cu787   2.698   .     S
Cu786  O802    1.939   .     S
Cu786  N799    2.027   .     S
Cu787  O807    1.939   .     S
Cu787  O801    1.950   .     S
Cu787  O805    1.955   .     S
Cu787  O803    1.922   .     S
Cu787  N798    2.027   .     S
H789   C472    1.088   1_565 S
H790   N900    1.029   1_455 S
H792   C883    1.084   1_455 S
H796   C835    1.083   .     S
N798   H841    1.029   .     S
N798   N850    1.285   .     S
N799   N900    1.285   1_455 S
N799   O910    1.345   1_455 S
O808   N850    1.345   .     S
O808   C860    1.402   .     S
C809   H811    1.114   .     S
C809   H810    1.108   .     S
C809   O910    1.402   1_455 S
C809   H914    1.109   1_455 S
H812   C860    1.109   .     S
C813   O815    1.399   .     S
C813   O814    1.221   .     D
O815   H816    1.013   .     S
C817   O851    1.295   .     A
C817   O852    1.288   .     A
C817   C827    1.427   .     S
C818   C819    1.422   .     A
C818   C361    1.424   1_556 S
C818   C377    1.419   1_556 S
C819   C823    1.426   .     A
C819   C826    1.425   .     A
C820   C824    1.404   .     A
C821   C822    1.392   .     A
C821   C361    1.418   1_556 S
C821   C373    1.406   1_556 S
C822   C823    1.397   .     A
C822   H842    1.085   .     S
C823   C864    1.490   .     S
C824   H844    1.074   .     S
C824   C833    1.397   .     A
C825   C833    1.398   .     A
C825   C832    1.393   .     A
C825   H839    1.083   .     S
C826   C828    1.473   .     S
C826   C834    1.402   .     A
C827   C523    1.327   1_565 S
C827   H542    1.087   1_565 S
C828   O854    1.301   .     A
C828   O853    1.303   .     A
C829   C830    1.427   .     S
C830   O856    1.295   .     A
C830   O855    1.288   .     A
C831   O858    1.303   .     A
C831   O857    1.299   .     A
C831   C833    1.465   .     S
C832   H894    1.084   .     S
C834   H845    1.083   .     S
C834   C835    1.385   .     A
C835   C377    1.389   1_556 S
C836   H846    1.076   .     S
Cu837  O851    1.955   .     S
Cu837  O855    1.950   .     S
Cu837  O857    1.922   .     S
Cu837  Cu838   2.698   .     S
Cu837  O853    1.939   .     S
Cu837  N850    2.027   .     S
Cu838  O858    1.939   .     S
Cu838  O852    1.950   .     S
Cu838  O856    1.955   .     S
Cu838  O854    1.922   .     S
Cu838  N849    2.027   .     S
H840   C523    1.088   1_565 S
H847   C886    1.083   .     S
N849   H892    1.029   .     S
N849   N901    1.285   .     S
O859   N901    1.345   .     S
O859   C911    1.402   .     S
C860   H862    1.114   .     S
C860   H861    1.108   .     S
H863   C911    1.109   .     S
C864   O866    1.399   .     S
C864   O865    1.221   .     D
O866   H867    1.013   .     S
C868   O902    1.295   .     A
C868   O903    1.288   .     A
C868   C878    1.427   .     S
C869   C870    1.422   .     A
C869   C412    1.424   1_556 S
C869   C428    1.419   1_556 S
C870   C874    1.426   .     A
C870   C877    1.425   .     A
C871   C875    1.404   .     A
C872   C873    1.392   .     A
C872   C412    1.418   1_556 S
C872   C424    1.406   1_556 S
C873   C874    1.397   .     A
C873   H893    1.085   .     S
C874   C915    1.490   .     S
C875   H895    1.074   .     S
C875   C884    1.397   .     A
C876   C884    1.398   .     A
C876   C883    1.393   .     A
C876   H890    1.083   .     S
C877   C879    1.473   .     S
C877   C885    1.402   .     A
C878   C574    1.327   1_565 S
C878   H593    1.087   1_565 S
C879   O905    1.301   .     A
C879   O904    1.303   .     A
C880   C881    1.427   .     S
C881   O907    1.295   .     A
C881   O906    1.288   .     A
C882   O909    1.303   .     A
C882   O908    1.299   .     A
C882   C884    1.465   .     S
C883   H792    1.084   1_655 S
C885   H896    1.083   .     S
C885   C886    1.385   .     A
C886   C428    1.389   1_556 S
C887   H897    1.076   .     S
Cu888  O902    1.955   .     S
Cu888  O906    1.950   .     S
Cu888  O908    1.922   .     S
Cu888  Cu889   2.698   .     S
Cu888  O904    1.939   .     S
Cu888  N901    2.027   .     S
Cu889  O909    1.939   .     S
Cu889  O903    1.950   .     S
Cu889  O907    1.955   .     S
Cu889  O905    1.922   .     S
Cu889  N900    2.027   .     S
H891   C574    1.088   1_565 S
H898   C784    1.083   1_655 S
N900   H790    1.029   1_655 S
N900   N799    1.285   1_655 S
O910   N799    1.345   1_655 S
O910   C809    1.402   1_655 S
C911   H913    1.114   .     S
C911   H912    1.108   .     S
H914   C809    1.109   1_655 S
C915   O917    1.399   .     S
C915   O916    1.221   .     D
O917   H918    1.013   .     S
