data_str_m2_o10_o17_pcu_sym.133
_audit_creation_date              2020-01-03
_audit_creation_method            'Materials Studio'
_symmetry_space_group_name_H-M    'P1'
_symmetry_Int_Tables_number       1
_symmetry_cell_setting            triclinic
loop_
_symmetry_equiv_pos_as_xyz
  x,y,z
_cell_length_a                    30.0425
_cell_length_b                    26.2672
_cell_length_c                    22.3596
_cell_angle_alpha                 102.9138
_cell_angle_beta                  94.5506
_cell_angle_gamma                 93.6399
loop_
_atom_site_label
_atom_site_type_symbol
_atom_site_fract_x
_atom_site_fract_y
_atom_site_fract_z
_atom_site_U_iso_or_equiv
_atom_site_adp_type
_atom_site_occupancy
C1     C     0.24843   0.06673   0.15134   0.00000  Uiso   1.00
C2     C     0.25157   0.26660   0.18199   0.00000  Uiso   1.00
C3     C     0.01396   0.07248   0.11863   0.00000  Uiso   1.00
C4     C     0.48604   0.26086   0.21471   0.00000  Uiso   1.00
C5     C     0.24314   0.01116   0.14341   0.00000  Uiso   1.00
C6     C     0.25686   0.32217   0.18993   0.00000  Uiso   1.00
C7     C     0.16459   0.16589   0.16717   0.00000  Uiso   1.00
C8     C     0.33541   0.16745   0.16616   0.00000  Uiso   1.00
C9     C     0.41036   0.21535   0.18875   0.00000  Uiso   1.00
C10    C     0.08964   0.11799   0.14458   0.00000  Uiso   1.00
C11    C     0.38353   0.16858   0.16502   0.00000  Uiso   1.00
C12    C     0.11647   0.16475   0.16831   0.00000  Uiso   1.00
C13    C     0.40179   0.12189   0.14115   0.00000  Uiso   1.00
C14    C     0.09821   0.21144   0.19218   0.00000  Uiso   1.00
C15    C     0.44835   0.12020   0.14118   0.00000  Uiso   1.00
C16    C     0.05165   0.21313   0.19215   0.00000  Uiso   1.00
C17    C     0.47644   0.16713   0.16614   0.00000  Uiso   1.00
C18    C     0.02356   0.16620   0.16719   0.00000  Uiso   1.00
C19    C     0.45744   0.21501   0.19002   0.00000  Uiso   1.00
C20    C     0.04256   0.11832   0.14331   0.00000  Uiso   1.00
C21    C     0.46768   0.07308   0.11742   0.00000  Uiso   1.00
C22    C     0.03232   0.26025   0.21592   0.00000  Uiso   1.00
Cu23   Cu    0.25501   0.17246   0.22813   0.00000  Uiso   1.00
Cu24   Cu    0.24500   0.16087   0.10521   0.00000  Uiso   1.00
N25    N     0.23745   0.15214   0.01284   0.00000  Uiso   1.00
N26    N     0.26256   0.18119   0.32049   0.00000  Uiso   1.00
O27    O     0.25326   0.09538   0.20659   0.00000  Uiso   1.00
O28    O     0.24675   0.23796   0.12674   0.00000  Uiso   1.00
O29    O     0.24480   0.08559   0.10279   0.00000  Uiso   1.00
O30    O     0.25520   0.24774   0.23055   0.00000  Uiso   1.00
O31    O     0.18936   0.17155   0.21857   0.00000  Uiso   1.00
O32    O     0.31065   0.16179   0.11476   0.00000  Uiso   1.00
O33    O     0.18090   0.16176   0.11477   0.00000  Uiso   1.00
O34    O     0.31910   0.17157   0.21857   0.00000  Uiso   1.00
Br35   Br    0.38015   0.27829   0.21642   0.00000  Uiso   1.00
Br36   Br    0.11985   0.05505   0.11691   0.00000  Uiso   1.00
F37    F     0.37305   0.07846   0.11939   0.00000  Uiso   1.00
F38    F     0.12695   0.25488   0.21394   0.00000  Uiso   1.00
Br39   Br    0.43381   0.00667   0.08135   0.00000  Uiso   1.00
Br40   Br    0.06619   0.32667   0.25198   0.00000  Uiso   1.00
F41    F     0.03009   0.02603   0.09439   0.00000  Uiso   1.00
F42    F     0.46991   0.30730   0.23894   0.00000  Uiso   1.00
Br43   Br    0.21090   0.30795   0.06491   0.00000  Uiso   1.00
Br44   Br    0.28910   0.02538   0.26842   0.00000  Uiso   1.00
F45    F     0.20660   0.11881   0.30834   0.00000  Uiso   1.00
F46    F     0.29340   0.21453   0.02499   0.00000  Uiso   1.00
C47    C     0.74843   0.06673   0.15134   0.00000  Uiso   1.00
C48    C     0.75157   0.26660   0.18199   0.00000  Uiso   1.00
C49    C     0.51396   0.07248   0.11863   0.00000  Uiso   1.00
C50    C     0.98604   0.26086   0.21471   0.00000  Uiso   1.00
C51    C     0.74314   0.01116   0.14341   0.00000  Uiso   1.00
C52    C     0.75686   0.32217   0.18993   0.00000  Uiso   1.00
C53    C     0.66459   0.16589   0.16717   0.00000  Uiso   1.00
C54    C     0.83541   0.16745   0.16616   0.00000  Uiso   1.00
C55    C     0.91036   0.21535   0.18875   0.00000  Uiso   1.00
C56    C     0.58964   0.11799   0.14458   0.00000  Uiso   1.00
C57    C     0.88353   0.16858   0.16502   0.00000  Uiso   1.00
C58    C     0.61647   0.16475   0.16831   0.00000  Uiso   1.00
C59    C     0.90179   0.12189   0.14115   0.00000  Uiso   1.00
C60    C     0.59821   0.21144   0.19218   0.00000  Uiso   1.00
C61    C     0.94835   0.12020   0.14118   0.00000  Uiso   1.00
C62    C     0.55165   0.21313   0.19215   0.00000  Uiso   1.00
C63    C     0.97644   0.16713   0.16614   0.00000  Uiso   1.00
C64    C     0.52356   0.16620   0.16719   0.00000  Uiso   1.00
C65    C     0.95744   0.21501   0.19002   0.00000  Uiso   1.00
C66    C     0.54256   0.11832   0.14331   0.00000  Uiso   1.00
C67    C     0.96768   0.07308   0.11742   0.00000  Uiso   1.00
C68    C     0.53232   0.26025   0.21592   0.00000  Uiso   1.00
Cu69   Cu    0.75501   0.17246   0.22813   0.00000  Uiso   1.00
Cu70   Cu    0.74500   0.16087   0.10521   0.00000  Uiso   1.00
N71    N     0.73745   0.15214   0.01284   0.00000  Uiso   1.00
N72    N     0.76256   0.18119   0.32049   0.00000  Uiso   1.00
O73    O     0.75326   0.09538   0.20659   0.00000  Uiso   1.00
O74    O     0.74675   0.23796   0.12674   0.00000  Uiso   1.00
O75    O     0.74480   0.08559   0.10279   0.00000  Uiso   1.00
O76    O     0.75520   0.24774   0.23055   0.00000  Uiso   1.00
O77    O     0.68936   0.17155   0.21857   0.00000  Uiso   1.00
O78    O     0.81065   0.16179   0.11476   0.00000  Uiso   1.00
O79    O     0.68090   0.16176   0.11477   0.00000  Uiso   1.00
O80    O     0.81910   0.17157   0.21857   0.00000  Uiso   1.00
Br81   Br    0.88015   0.27829   0.21642   0.00000  Uiso   1.00
Br82   Br    0.61985   0.05505   0.11691   0.00000  Uiso   1.00
F83    F     0.87305   0.07846   0.11939   0.00000  Uiso   1.00
F84    F     0.62695   0.25488   0.21394   0.00000  Uiso   1.00
Br85   Br    0.93381   0.00667   0.08135   0.00000  Uiso   1.00
Br86   Br    0.56619   0.32667   0.25198   0.00000  Uiso   1.00
F87    F     0.53009   0.02603   0.09439   0.00000  Uiso   1.00
F88    F     0.96991   0.30730   0.23894   0.00000  Uiso   1.00
Br89   Br    0.71090   0.30795   0.06491   0.00000  Uiso   1.00
Br90   Br    0.78910   0.02538   0.26842   0.00000  Uiso   1.00
F91    F     0.70660   0.11881   0.30834   0.00000  Uiso   1.00
F92    F     0.79340   0.21453   0.02499   0.00000  Uiso   1.00
C93    C     0.24843   0.40006   0.15134   0.00000  Uiso   1.00
C94    C     0.25157   0.59994   0.18199   0.00000  Uiso   1.00
C95    C     0.01396   0.40581   0.11863   0.00000  Uiso   1.00
C96    C     0.48604   0.59419   0.21471   0.00000  Uiso   1.00
C97    C     0.24314   0.34450   0.14341   0.00000  Uiso   1.00
C98    C     0.25686   0.65550   0.18993   0.00000  Uiso   1.00
C99    C     0.16459   0.49922   0.16717   0.00000  Uiso   1.00
C100   C     0.33541   0.50078   0.16616   0.00000  Uiso   1.00
C101   C     0.41036   0.54868   0.18875   0.00000  Uiso   1.00
C102   C     0.08964   0.45132   0.14458   0.00000  Uiso   1.00
C103   C     0.38353   0.50191   0.16502   0.00000  Uiso   1.00
C104   C     0.11647   0.49809   0.16831   0.00000  Uiso   1.00
C105   C     0.40179   0.45523   0.14115   0.00000  Uiso   1.00
C106   C     0.09821   0.54477   0.19218   0.00000  Uiso   1.00
C107   C     0.44835   0.45353   0.14118   0.00000  Uiso   1.00
C108   C     0.05165   0.54647   0.19215   0.00000  Uiso   1.00
C109   C     0.47644   0.50047   0.16614   0.00000  Uiso   1.00
C110   C     0.02356   0.49953   0.16719   0.00000  Uiso   1.00
C111   C     0.45744   0.54834   0.19002   0.00000  Uiso   1.00
C112   C     0.04256   0.45166   0.14331   0.00000  Uiso   1.00
C113   C     0.46768   0.40642   0.11742   0.00000  Uiso   1.00
C114   C     0.03232   0.59358   0.21592   0.00000  Uiso   1.00
Cu115  Cu    0.25501   0.50579   0.22813   0.00000  Uiso   1.00
Cu116  Cu    0.24500   0.49421   0.10521   0.00000  Uiso   1.00
N117   N     0.23745   0.48547   0.01284   0.00000  Uiso   1.00
N118   N     0.26256   0.51453   0.32049   0.00000  Uiso   1.00
O119   O     0.25326   0.42871   0.20659   0.00000  Uiso   1.00
O120   O     0.24675   0.57129   0.12674   0.00000  Uiso   1.00
O121   O     0.24480   0.41892   0.10279   0.00000  Uiso   1.00
O122   O     0.25520   0.58108   0.23055   0.00000  Uiso   1.00
O123   O     0.18936   0.50488   0.21857   0.00000  Uiso   1.00
O124   O     0.31065   0.49512   0.11476   0.00000  Uiso   1.00
O125   O     0.18090   0.49510   0.11477   0.00000  Uiso   1.00
O126   O     0.31910   0.50490   0.21857   0.00000  Uiso   1.00
Br127  Br    0.38015   0.61162   0.21642   0.00000  Uiso   1.00
Br128  Br    0.11985   0.38838   0.11691   0.00000  Uiso   1.00
F129   F     0.37305   0.41179   0.11939   0.00000  Uiso   1.00
F130   F     0.12695   0.58821   0.21394   0.00000  Uiso   1.00
Br131  Br    0.43381   0.34000   0.08135   0.00000  Uiso   1.00
Br132  Br    0.06619   0.66000   0.25198   0.00000  Uiso   1.00
F133   F     0.03009   0.35937   0.09439   0.00000  Uiso   1.00
F134   F     0.46991   0.64063   0.23894   0.00000  Uiso   1.00
Br135  Br    0.21090   0.64128   0.06491   0.00000  Uiso   1.00
Br136  Br    0.28910   0.35872   0.26842   0.00000  Uiso   1.00
F137   F     0.20660   0.45214   0.30834   0.00000  Uiso   1.00
F138   F     0.29340   0.54786   0.02499   0.00000  Uiso   1.00
C139   C     0.74843   0.40006   0.15134   0.00000  Uiso   1.00
C140   C     0.75157   0.59994   0.18199   0.00000  Uiso   1.00
C141   C     0.51396   0.40581   0.11863   0.00000  Uiso   1.00
C142   C     0.98604   0.59419   0.21471   0.00000  Uiso   1.00
C143   C     0.74314   0.34450   0.14341   0.00000  Uiso   1.00
C144   C     0.75686   0.65550   0.18993   0.00000  Uiso   1.00
C145   C     0.66459   0.49922   0.16717   0.00000  Uiso   1.00
C146   C     0.83541   0.50078   0.16616   0.00000  Uiso   1.00
C147   C     0.91036   0.54868   0.18875   0.00000  Uiso   1.00
C148   C     0.58964   0.45132   0.14458   0.00000  Uiso   1.00
C149   C     0.88353   0.50191   0.16502   0.00000  Uiso   1.00
C150   C     0.61647   0.49809   0.16831   0.00000  Uiso   1.00
C151   C     0.90179   0.45523   0.14115   0.00000  Uiso   1.00
C152   C     0.59821   0.54477   0.19218   0.00000  Uiso   1.00
C153   C     0.94835   0.45353   0.14118   0.00000  Uiso   1.00
C154   C     0.55165   0.54647   0.19215   0.00000  Uiso   1.00
C155   C     0.97644   0.50047   0.16614   0.00000  Uiso   1.00
C156   C     0.52356   0.49953   0.16719   0.00000  Uiso   1.00
C157   C     0.95744   0.54834   0.19002   0.00000  Uiso   1.00
C158   C     0.54256   0.45166   0.14331   0.00000  Uiso   1.00
C159   C     0.96768   0.40642   0.11742   0.00000  Uiso   1.00
C160   C     0.53232   0.59358   0.21592   0.00000  Uiso   1.00
Cu161  Cu    0.75501   0.50579   0.22813   0.00000  Uiso   1.00
Cu162  Cu    0.74500   0.49421   0.10521   0.00000  Uiso   1.00
N163   N     0.73745   0.48547   0.01284   0.00000  Uiso   1.00
N164   N     0.76256   0.51453   0.32049   0.00000  Uiso   1.00
O165   O     0.75326   0.42871   0.20659   0.00000  Uiso   1.00
O166   O     0.74675   0.57129   0.12674   0.00000  Uiso   1.00
O167   O     0.74480   0.41892   0.10279   0.00000  Uiso   1.00
O168   O     0.75520   0.58108   0.23055   0.00000  Uiso   1.00
O169   O     0.68936   0.50488   0.21857   0.00000  Uiso   1.00
O170   O     0.81065   0.49512   0.11476   0.00000  Uiso   1.00
O171   O     0.68090   0.49510   0.11477   0.00000  Uiso   1.00
O172   O     0.81910   0.50490   0.21857   0.00000  Uiso   1.00
Br173  Br    0.88015   0.61162   0.21642   0.00000  Uiso   1.00
Br174  Br    0.61985   0.38838   0.11691   0.00000  Uiso   1.00
F175   F     0.87305   0.41179   0.11939   0.00000  Uiso   1.00
F176   F     0.62695   0.58821   0.21394   0.00000  Uiso   1.00
Br177  Br    0.93381   0.34000   0.08135   0.00000  Uiso   1.00
Br178  Br    0.56619   0.66000   0.25198   0.00000  Uiso   1.00
F179   F     0.53009   0.35937   0.09439   0.00000  Uiso   1.00
F180   F     0.96991   0.64063   0.23894   0.00000  Uiso   1.00
Br181  Br    0.71090   0.64128   0.06491   0.00000  Uiso   1.00
Br182  Br    0.78910   0.35872   0.26842   0.00000  Uiso   1.00
F183   F     0.70660   0.45214   0.30834   0.00000  Uiso   1.00
F184   F     0.79340   0.54786   0.02499   0.00000  Uiso   1.00
C185   C     0.24843   0.73340   0.15134   0.00000  Uiso   1.00
C186   C     0.25157   0.93327   0.18199   0.00000  Uiso   1.00
C187   C     0.01396   0.73914   0.11863   0.00000  Uiso   1.00
C188   C     0.48604   0.92752   0.21471   0.00000  Uiso   1.00
C189   C     0.24314   0.67783   0.14341   0.00000  Uiso   1.00
C190   C     0.25686   0.98884   0.18993   0.00000  Uiso   1.00
C191   C     0.16459   0.83255   0.16717   0.00000  Uiso   1.00
C192   C     0.33541   0.83411   0.16616   0.00000  Uiso   1.00
C193   C     0.41036   0.88201   0.18875   0.00000  Uiso   1.00
C194   C     0.08964   0.78465   0.14458   0.00000  Uiso   1.00
C195   C     0.38353   0.83525   0.16502   0.00000  Uiso   1.00
C196   C     0.11647   0.83142   0.16831   0.00000  Uiso   1.00
C197   C     0.40179   0.78856   0.14115   0.00000  Uiso   1.00
C198   C     0.09821   0.87811   0.19218   0.00000  Uiso   1.00
C199   C     0.44835   0.78687   0.14118   0.00000  Uiso   1.00
C200   C     0.05165   0.87980   0.19215   0.00000  Uiso   1.00
C201   C     0.47644   0.83380   0.16614   0.00000  Uiso   1.00
C202   C     0.02356   0.83287   0.16719   0.00000  Uiso   1.00
C203   C     0.45744   0.88168   0.19002   0.00000  Uiso   1.00
C204   C     0.04256   0.78499   0.14331   0.00000  Uiso   1.00
C205   C     0.46768   0.73975   0.11742   0.00000  Uiso   1.00
C206   C     0.03232   0.92692   0.21592   0.00000  Uiso   1.00
Cu207  Cu    0.25501   0.83913   0.22813   0.00000  Uiso   1.00
Cu208  Cu    0.24500   0.82754   0.10521   0.00000  Uiso   1.00
N209   N     0.23745   0.81881   0.01284   0.00000  Uiso   1.00
N210   N     0.26256   0.84786   0.32049   0.00000  Uiso   1.00
O211   O     0.25326   0.76204   0.20659   0.00000  Uiso   1.00
O212   O     0.24675   0.90462   0.12674   0.00000  Uiso   1.00
O213   O     0.24480   0.75226   0.10279   0.00000  Uiso   1.00
O214   O     0.25520   0.91441   0.23055   0.00000  Uiso   1.00
O215   O     0.18936   0.83821   0.21857   0.00000  Uiso   1.00
O216   O     0.31065   0.82845   0.11476   0.00000  Uiso   1.00
O217   O     0.18090   0.82843   0.11477   0.00000  Uiso   1.00
O218   O     0.31910   0.83824   0.21857   0.00000  Uiso   1.00
Br219  Br    0.38015   0.94495   0.21642   0.00000  Uiso   1.00
Br220  Br    0.11985   0.72171   0.11691   0.00000  Uiso   1.00
F221   F     0.37305   0.74512   0.11939   0.00000  Uiso   1.00
F222   F     0.12695   0.92154   0.21394   0.00000  Uiso   1.00
Br223  Br    0.43381   0.67333   0.08135   0.00000  Uiso   1.00
Br224  Br    0.06619   0.99333   0.25198   0.00000  Uiso   1.00
F225   F     0.03009   0.69270   0.09439   0.00000  Uiso   1.00
F226   F     0.46991   0.97397   0.23894   0.00000  Uiso   1.00
Br227  Br    0.21090   0.97462   0.06491   0.00000  Uiso   1.00
Br228  Br    0.28910   0.69205   0.26842   0.00000  Uiso   1.00
F229   F     0.20660   0.78547   0.30834   0.00000  Uiso   1.00
F230   F     0.29340   0.88119   0.02499   0.00000  Uiso   1.00
C231   C     0.74843   0.73340   0.15134   0.00000  Uiso   1.00
C232   C     0.75157   0.93327   0.18199   0.00000  Uiso   1.00
C233   C     0.51396   0.73914   0.11863   0.00000  Uiso   1.00
C234   C     0.98604   0.92752   0.21471   0.00000  Uiso   1.00
C235   C     0.74314   0.67783   0.14341   0.00000  Uiso   1.00
C236   C     0.75686   0.98884   0.18993   0.00000  Uiso   1.00
C237   C     0.66459   0.83255   0.16717   0.00000  Uiso   1.00
C238   C     0.83541   0.83411   0.16616   0.00000  Uiso   1.00
C239   C     0.91036   0.88201   0.18875   0.00000  Uiso   1.00
C240   C     0.58964   0.78465   0.14458   0.00000  Uiso   1.00
C241   C     0.88353   0.83525   0.16502   0.00000  Uiso   1.00
C242   C     0.61647   0.83142   0.16831   0.00000  Uiso   1.00
C243   C     0.90179   0.78856   0.14115   0.00000  Uiso   1.00
C244   C     0.59821   0.87811   0.19218   0.00000  Uiso   1.00
C245   C     0.94835   0.78687   0.14118   0.00000  Uiso   1.00
C246   C     0.55165   0.87980   0.19215   0.00000  Uiso   1.00
C247   C     0.97644   0.83380   0.16614   0.00000  Uiso   1.00
C248   C     0.52356   0.83287   0.16719   0.00000  Uiso   1.00
C249   C     0.95744   0.88168   0.19002   0.00000  Uiso   1.00
C250   C     0.54256   0.78499   0.14331   0.00000  Uiso   1.00
C251   C     0.96768   0.73975   0.11742   0.00000  Uiso   1.00
C252   C     0.53232   0.92692   0.21592   0.00000  Uiso   1.00
Cu253  Cu    0.75501   0.83913   0.22813   0.00000  Uiso   1.00
Cu254  Cu    0.74500   0.82754   0.10521   0.00000  Uiso   1.00
N255   N     0.73745   0.81881   0.01284   0.00000  Uiso   1.00
N256   N     0.76256   0.84786   0.32049   0.00000  Uiso   1.00
O257   O     0.75326   0.76204   0.20659   0.00000  Uiso   1.00
O258   O     0.74675   0.90462   0.12674   0.00000  Uiso   1.00
O259   O     0.74480   0.75226   0.10279   0.00000  Uiso   1.00
O260   O     0.75520   0.91441   0.23055   0.00000  Uiso   1.00
O261   O     0.68936   0.83821   0.21857   0.00000  Uiso   1.00
O262   O     0.81065   0.82845   0.11476   0.00000  Uiso   1.00
O263   O     0.68090   0.82843   0.11477   0.00000  Uiso   1.00
O264   O     0.81910   0.83824   0.21857   0.00000  Uiso   1.00
Br265  Br    0.88015   0.94495   0.21642   0.00000  Uiso   1.00
Br266  Br    0.61985   0.72171   0.11691   0.00000  Uiso   1.00
F267   F     0.87305   0.74512   0.11939   0.00000  Uiso   1.00
F268   F     0.62695   0.92154   0.21394   0.00000  Uiso   1.00
Br269  Br    0.93381   0.67333   0.08135   0.00000  Uiso   1.00
Br270  Br    0.56619   0.99333   0.25198   0.00000  Uiso   1.00
F271   F     0.53009   0.69270   0.09439   0.00000  Uiso   1.00
F272   F     0.96991   0.97397   0.23894   0.00000  Uiso   1.00
Br273  Br    0.71090   0.97462   0.06491   0.00000  Uiso   1.00
Br274  Br    0.78910   0.69205   0.26842   0.00000  Uiso   1.00
F275   F     0.70660   0.78547   0.30834   0.00000  Uiso   1.00
F276   F     0.79340   0.88119   0.02499   0.00000  Uiso   1.00
C277   C     0.24843   0.06673   0.48468   0.00000  Uiso   1.00
C278   C     0.25157   0.26660   0.51532   0.00000  Uiso   1.00
C279   C     0.01396   0.07248   0.45196   0.00000  Uiso   1.00
C280   C     0.48604   0.26086   0.54804   0.00000  Uiso   1.00
C281   C     0.24314   0.01116   0.47674   0.00000  Uiso   1.00
C282   C     0.25686   0.32217   0.52326   0.00000  Uiso   1.00
C283   C     0.16459   0.16589   0.50051   0.00000  Uiso   1.00
C284   C     0.33541   0.16745   0.49949   0.00000  Uiso   1.00
C285   C     0.41036   0.21535   0.52208   0.00000  Uiso   1.00
C286   C     0.08964   0.11799   0.47792   0.00000  Uiso   1.00
C287   C     0.38353   0.16858   0.49835   0.00000  Uiso   1.00
C288   C     0.11647   0.16475   0.50165   0.00000  Uiso   1.00
C289   C     0.40179   0.12189   0.47448   0.00000  Uiso   1.00
C290   C     0.09821   0.21144   0.52552   0.00000  Uiso   1.00
C291   C     0.44835   0.12020   0.47452   0.00000  Uiso   1.00
C292   C     0.05165   0.21313   0.52548   0.00000  Uiso   1.00
C293   C     0.47644   0.16713   0.49947   0.00000  Uiso   1.00
C294   C     0.02356   0.16620   0.50053   0.00000  Uiso   1.00
C295   C     0.45744   0.21501   0.52336   0.00000  Uiso   1.00
C296   C     0.04256   0.11832   0.47664   0.00000  Uiso   1.00
C297   C     0.46768   0.07308   0.45075   0.00000  Uiso   1.00
C298   C     0.03232   0.26025   0.54925   0.00000  Uiso   1.00
Cu299  Cu    0.25501   0.17246   0.56146   0.00000  Uiso   1.00
Cu300  Cu    0.24500   0.16087   0.43854   0.00000  Uiso   1.00
N301   N     0.23745   0.15214   0.34617   0.00000  Uiso   1.00
N302   N     0.26256   0.18119   0.65383   0.00000  Uiso   1.00
O303   O     0.25326   0.09538   0.53992   0.00000  Uiso   1.00
O304   O     0.24675   0.23796   0.46008   0.00000  Uiso   1.00
O305   O     0.24480   0.08559   0.43612   0.00000  Uiso   1.00
O306   O     0.25520   0.24774   0.56388   0.00000  Uiso   1.00
O307   O     0.18936   0.17155   0.55191   0.00000  Uiso   1.00
O308   O     0.31065   0.16179   0.44809   0.00000  Uiso   1.00
O309   O     0.18090   0.16176   0.44810   0.00000  Uiso   1.00
O310   O     0.31910   0.17157   0.55190   0.00000  Uiso   1.00
Br311  Br    0.38015   0.27829   0.54975   0.00000  Uiso   1.00
Br312  Br    0.11985   0.05505   0.45025   0.00000  Uiso   1.00
F313   F     0.37305   0.07846   0.45272   0.00000  Uiso   1.00
F314   F     0.12695   0.25488   0.54728   0.00000  Uiso   1.00
Br315  Br    0.43381   0.00667   0.41468   0.00000  Uiso   1.00
Br316  Br    0.06619   0.32667   0.58532   0.00000  Uiso   1.00
F317   F     0.03009   0.02603   0.42773   0.00000  Uiso   1.00
F318   F     0.46991   0.30730   0.57227   0.00000  Uiso   1.00
Br319  Br    0.21090   0.30795   0.39824   0.00000  Uiso   1.00
Br320  Br    0.28910   0.02538   0.60176   0.00000  Uiso   1.00
F321   F     0.20660   0.11881   0.64167   0.00000  Uiso   1.00
F322   F     0.29340   0.21453   0.35833   0.00000  Uiso   1.00
C323   C     0.74843   0.06673   0.48468   0.00000  Uiso   1.00
C324   C     0.75157   0.26660   0.51532   0.00000  Uiso   1.00
C325   C     0.51396   0.07248   0.45196   0.00000  Uiso   1.00
C326   C     0.98604   0.26086   0.54804   0.00000  Uiso   1.00
C327   C     0.74314   0.01116   0.47674   0.00000  Uiso   1.00
C328   C     0.75686   0.32217   0.52326   0.00000  Uiso   1.00
C329   C     0.66459   0.16589   0.50051   0.00000  Uiso   1.00
C330   C     0.83541   0.16745   0.49949   0.00000  Uiso   1.00
C331   C     0.91036   0.21535   0.52208   0.00000  Uiso   1.00
C332   C     0.58964   0.11799   0.47792   0.00000  Uiso   1.00
C333   C     0.88353   0.16858   0.49835   0.00000  Uiso   1.00
C334   C     0.61647   0.16475   0.50165   0.00000  Uiso   1.00
C335   C     0.90179   0.12189   0.47448   0.00000  Uiso   1.00
C336   C     0.59821   0.21144   0.52552   0.00000  Uiso   1.00
C337   C     0.94835   0.12020   0.47452   0.00000  Uiso   1.00
C338   C     0.55165   0.21313   0.52548   0.00000  Uiso   1.00
C339   C     0.97644   0.16713   0.49947   0.00000  Uiso   1.00
C340   C     0.52356   0.16620   0.50053   0.00000  Uiso   1.00
C341   C     0.95744   0.21501   0.52336   0.00000  Uiso   1.00
C342   C     0.54256   0.11832   0.47664   0.00000  Uiso   1.00
C343   C     0.96768   0.07308   0.45075   0.00000  Uiso   1.00
C344   C     0.53232   0.26025   0.54925   0.00000  Uiso   1.00
Cu345  Cu    0.75501   0.17246   0.56146   0.00000  Uiso   1.00
Cu346  Cu    0.74500   0.16087   0.43854   0.00000  Uiso   1.00
N347   N     0.73745   0.15214   0.34617   0.00000  Uiso   1.00
N348   N     0.76256   0.18119   0.65383   0.00000  Uiso   1.00
O349   O     0.75326   0.09538   0.53992   0.00000  Uiso   1.00
O350   O     0.74675   0.23796   0.46008   0.00000  Uiso   1.00
O351   O     0.74480   0.08559   0.43612   0.00000  Uiso   1.00
O352   O     0.75520   0.24774   0.56388   0.00000  Uiso   1.00
O353   O     0.68936   0.17155   0.55191   0.00000  Uiso   1.00
O354   O     0.81065   0.16179   0.44809   0.00000  Uiso   1.00
O355   O     0.68090   0.16176   0.44810   0.00000  Uiso   1.00
O356   O     0.81910   0.17157   0.55190   0.00000  Uiso   1.00
Br357  Br    0.88015   0.27829   0.54975   0.00000  Uiso   1.00
Br358  Br    0.61985   0.05505   0.45025   0.00000  Uiso   1.00
F359   F     0.87305   0.07846   0.45272   0.00000  Uiso   1.00
F360   F     0.62695   0.25488   0.54728   0.00000  Uiso   1.00
Br361  Br    0.93381   0.00667   0.41468   0.00000  Uiso   1.00
Br362  Br    0.56619   0.32667   0.58532   0.00000  Uiso   1.00
F363   F     0.53009   0.02603   0.42773   0.00000  Uiso   1.00
F364   F     0.96991   0.30730   0.57227   0.00000  Uiso   1.00
Br365  Br    0.71090   0.30795   0.39824   0.00000  Uiso   1.00
Br366  Br    0.78910   0.02538   0.60176   0.00000  Uiso   1.00
F367   F     0.70660   0.11881   0.64167   0.00000  Uiso   1.00
F368   F     0.79340   0.21453   0.35833   0.00000  Uiso   1.00
C369   C     0.24843   0.40006   0.48468   0.00000  Uiso   1.00
C370   C     0.25157   0.59994   0.51532   0.00000  Uiso   1.00
C371   C     0.01396   0.40581   0.45196   0.00000  Uiso   1.00
C372   C     0.48604   0.59419   0.54804   0.00000  Uiso   1.00
C373   C     0.24314   0.34450   0.47674   0.00000  Uiso   1.00
C374   C     0.25686   0.65550   0.52326   0.00000  Uiso   1.00
C375   C     0.16459   0.49922   0.50051   0.00000  Uiso   1.00
C376   C     0.33541   0.50078   0.49949   0.00000  Uiso   1.00
C377   C     0.41036   0.54868   0.52208   0.00000  Uiso   1.00
C378   C     0.08964   0.45132   0.47792   0.00000  Uiso   1.00
C379   C     0.38353   0.50191   0.49835   0.00000  Uiso   1.00
C380   C     0.11647   0.49809   0.50165   0.00000  Uiso   1.00
C381   C     0.40179   0.45523   0.47448   0.00000  Uiso   1.00
C382   C     0.09821   0.54477   0.52552   0.00000  Uiso   1.00
C383   C     0.44835   0.45353   0.47452   0.00000  Uiso   1.00
C384   C     0.05165   0.54647   0.52548   0.00000  Uiso   1.00
C385   C     0.47644   0.50047   0.49947   0.00000  Uiso   1.00
C386   C     0.02356   0.49953   0.50053   0.00000  Uiso   1.00
C387   C     0.45744   0.54834   0.52336   0.00000  Uiso   1.00
C388   C     0.04256   0.45166   0.47664   0.00000  Uiso   1.00
C389   C     0.46768   0.40642   0.45075   0.00000  Uiso   1.00
C390   C     0.03232   0.59358   0.54925   0.00000  Uiso   1.00
Cu391  Cu    0.25501   0.50579   0.56146   0.00000  Uiso   1.00
Cu392  Cu    0.24500   0.49421   0.43854   0.00000  Uiso   1.00
N393   N     0.23745   0.48547   0.34617   0.00000  Uiso   1.00
N394   N     0.26256   0.51453   0.65383   0.00000  Uiso   1.00
O395   O     0.25326   0.42871   0.53992   0.00000  Uiso   1.00
O396   O     0.24675   0.57129   0.46008   0.00000  Uiso   1.00
O397   O     0.24480   0.41892   0.43612   0.00000  Uiso   1.00
O398   O     0.25520   0.58108   0.56388   0.00000  Uiso   1.00
O399   O     0.18936   0.50488   0.55191   0.00000  Uiso   1.00
O400   O     0.31065   0.49512   0.44809   0.00000  Uiso   1.00
O401   O     0.18090   0.49510   0.44810   0.00000  Uiso   1.00
O402   O     0.31910   0.50490   0.55190   0.00000  Uiso   1.00
Br403  Br    0.38015   0.61162   0.54975   0.00000  Uiso   1.00
Br404  Br    0.11985   0.38838   0.45025   0.00000  Uiso   1.00
F405   F     0.37305   0.41179   0.45272   0.00000  Uiso   1.00
F406   F     0.12695   0.58821   0.54728   0.00000  Uiso   1.00
Br407  Br    0.43381   0.34000   0.41468   0.00000  Uiso   1.00
Br408  Br    0.06619   0.66000   0.58532   0.00000  Uiso   1.00
F409   F     0.03009   0.35937   0.42773   0.00000  Uiso   1.00
F410   F     0.46991   0.64063   0.57227   0.00000  Uiso   1.00
Br411  Br    0.21090   0.64128   0.39824   0.00000  Uiso   1.00
Br412  Br    0.28910   0.35872   0.60176   0.00000  Uiso   1.00
F413   F     0.20660   0.45214   0.64167   0.00000  Uiso   1.00
F414   F     0.29340   0.54786   0.35833   0.00000  Uiso   1.00
C415   C     0.74843   0.40006   0.48468   0.00000  Uiso   1.00
C416   C     0.75157   0.59994   0.51532   0.00000  Uiso   1.00
C417   C     0.51396   0.40581   0.45196   0.00000  Uiso   1.00
C418   C     0.98604   0.59419   0.54804   0.00000  Uiso   1.00
C419   C     0.74314   0.34450   0.47674   0.00000  Uiso   1.00
C420   C     0.75686   0.65550   0.52326   0.00000  Uiso   1.00
C421   C     0.66459   0.49922   0.50051   0.00000  Uiso   1.00
C422   C     0.83541   0.50078   0.49949   0.00000  Uiso   1.00
C423   C     0.91036   0.54868   0.52208   0.00000  Uiso   1.00
C424   C     0.58964   0.45132   0.47792   0.00000  Uiso   1.00
C425   C     0.88353   0.50191   0.49835   0.00000  Uiso   1.00
C426   C     0.61647   0.49809   0.50165   0.00000  Uiso   1.00
C427   C     0.90179   0.45523   0.47448   0.00000  Uiso   1.00
C428   C     0.59821   0.54477   0.52552   0.00000  Uiso   1.00
C429   C     0.94835   0.45353   0.47452   0.00000  Uiso   1.00
C430   C     0.55165   0.54647   0.52548   0.00000  Uiso   1.00
C431   C     0.97644   0.50047   0.49947   0.00000  Uiso   1.00
C432   C     0.52356   0.49953   0.50053   0.00000  Uiso   1.00
C433   C     0.95744   0.54834   0.52336   0.00000  Uiso   1.00
C434   C     0.54256   0.45166   0.47664   0.00000  Uiso   1.00
C435   C     0.96768   0.40642   0.45075   0.00000  Uiso   1.00
C436   C     0.53232   0.59358   0.54925   0.00000  Uiso   1.00
Cu437  Cu    0.75501   0.50579   0.56146   0.00000  Uiso   1.00
Cu438  Cu    0.74500   0.49421   0.43854   0.00000  Uiso   1.00
N439   N     0.73745   0.48547   0.34617   0.00000  Uiso   1.00
N440   N     0.76256   0.51453   0.65383   0.00000  Uiso   1.00
O441   O     0.75326   0.42871   0.53992   0.00000  Uiso   1.00
O442   O     0.74675   0.57129   0.46008   0.00000  Uiso   1.00
O443   O     0.74480   0.41892   0.43612   0.00000  Uiso   1.00
O444   O     0.75520   0.58108   0.56388   0.00000  Uiso   1.00
O445   O     0.68936   0.50488   0.55191   0.00000  Uiso   1.00
O446   O     0.81065   0.49512   0.44809   0.00000  Uiso   1.00
O447   O     0.68090   0.49510   0.44810   0.00000  Uiso   1.00
O448   O     0.81910   0.50490   0.55190   0.00000  Uiso   1.00
Br449  Br    0.88015   0.61162   0.54975   0.00000  Uiso   1.00
Br450  Br    0.61985   0.38838   0.45025   0.00000  Uiso   1.00
F451   F     0.87305   0.41179   0.45272   0.00000  Uiso   1.00
F452   F     0.62695   0.58821   0.54728   0.00000  Uiso   1.00
Br453  Br    0.93381   0.34000   0.41468   0.00000  Uiso   1.00
Br454  Br    0.56619   0.66000   0.58532   0.00000  Uiso   1.00
F455   F     0.53009   0.35937   0.42773   0.00000  Uiso   1.00
F456   F     0.96991   0.64063   0.57227   0.00000  Uiso   1.00
Br457  Br    0.71090   0.64128   0.39824   0.00000  Uiso   1.00
Br458  Br    0.78910   0.35872   0.60176   0.00000  Uiso   1.00
F459   F     0.70660   0.45214   0.64167   0.00000  Uiso   1.00
F460   F     0.79340   0.54786   0.35833   0.00000  Uiso   1.00
C461   C     0.24843   0.73340   0.48468   0.00000  Uiso   1.00
C462   C     0.25157   0.93327   0.51532   0.00000  Uiso   1.00
C463   C     0.01396   0.73914   0.45196   0.00000  Uiso   1.00
C464   C     0.48604   0.92752   0.54804   0.00000  Uiso   1.00
C465   C     0.24314   0.67783   0.47674   0.00000  Uiso   1.00
C466   C     0.25686   0.98884   0.52326   0.00000  Uiso   1.00
C467   C     0.16459   0.83255   0.50051   0.00000  Uiso   1.00
C468   C     0.33541   0.83411   0.49949   0.00000  Uiso   1.00
C469   C     0.41036   0.88201   0.52208   0.00000  Uiso   1.00
C470   C     0.08964   0.78465   0.47792   0.00000  Uiso   1.00
C471   C     0.38353   0.83525   0.49835   0.00000  Uiso   1.00
C472   C     0.11647   0.83142   0.50165   0.00000  Uiso   1.00
C473   C     0.40179   0.78856   0.47448   0.00000  Uiso   1.00
C474   C     0.09821   0.87811   0.52552   0.00000  Uiso   1.00
C475   C     0.44835   0.78687   0.47452   0.00000  Uiso   1.00
C476   C     0.05165   0.87980   0.52548   0.00000  Uiso   1.00
C477   C     0.47644   0.83380   0.49947   0.00000  Uiso   1.00
C478   C     0.02356   0.83287   0.50053   0.00000  Uiso   1.00
C479   C     0.45744   0.88168   0.52336   0.00000  Uiso   1.00
C480   C     0.04256   0.78499   0.47664   0.00000  Uiso   1.00
C481   C     0.46768   0.73975   0.45075   0.00000  Uiso   1.00
C482   C     0.03232   0.92692   0.54925   0.00000  Uiso   1.00
Cu483  Cu    0.25501   0.83913   0.56146   0.00000  Uiso   1.00
Cu484  Cu    0.24500   0.82754   0.43854   0.00000  Uiso   1.00
N485   N     0.23745   0.81881   0.34617   0.00000  Uiso   1.00
N486   N     0.26256   0.84786   0.65383   0.00000  Uiso   1.00
O487   O     0.25326   0.76204   0.53992   0.00000  Uiso   1.00
O488   O     0.24675   0.90462   0.46008   0.00000  Uiso   1.00
O489   O     0.24480   0.75226   0.43612   0.00000  Uiso   1.00
O490   O     0.25520   0.91441   0.56388   0.00000  Uiso   1.00
O491   O     0.18936   0.83821   0.55191   0.00000  Uiso   1.00
O492   O     0.31065   0.82845   0.44809   0.00000  Uiso   1.00
O493   O     0.18090   0.82843   0.44810   0.00000  Uiso   1.00
O494   O     0.31910   0.83824   0.55190   0.00000  Uiso   1.00
Br495  Br    0.38015   0.94495   0.54975   0.00000  Uiso   1.00
Br496  Br    0.11985   0.72171   0.45025   0.00000  Uiso   1.00
F497   F     0.37305   0.74512   0.45272   0.00000  Uiso   1.00
F498   F     0.12695   0.92154   0.54728   0.00000  Uiso   1.00
Br499  Br    0.43381   0.67333   0.41468   0.00000  Uiso   1.00
Br500  Br    0.06619   0.99333   0.58532   0.00000  Uiso   1.00
F501   F     0.03009   0.69270   0.42773   0.00000  Uiso   1.00
F502   F     0.46991   0.97397   0.57227   0.00000  Uiso   1.00
Br503  Br    0.21090   0.97462   0.39824   0.00000  Uiso   1.00
Br504  Br    0.28910   0.69205   0.60176   0.00000  Uiso   1.00
F505   F     0.20660   0.78547   0.64167   0.00000  Uiso   1.00
F506   F     0.29340   0.88119   0.35833   0.00000  Uiso   1.00
C507   C     0.74843   0.73340   0.48468   0.00000  Uiso   1.00
C508   C     0.75157   0.93327   0.51532   0.00000  Uiso   1.00
C509   C     0.51396   0.73914   0.45196   0.00000  Uiso   1.00
C510   C     0.98604   0.92752   0.54804   0.00000  Uiso   1.00
C511   C     0.74314   0.67783   0.47674   0.00000  Uiso   1.00
C512   C     0.75686   0.98884   0.52326   0.00000  Uiso   1.00
C513   C     0.66459   0.83255   0.50051   0.00000  Uiso   1.00
C514   C     0.83541   0.83411   0.49949   0.00000  Uiso   1.00
C515   C     0.91036   0.88201   0.52208   0.00000  Uiso   1.00
C516   C     0.58964   0.78465   0.47792   0.00000  Uiso   1.00
C517   C     0.88353   0.83525   0.49835   0.00000  Uiso   1.00
C518   C     0.61647   0.83142   0.50165   0.00000  Uiso   1.00
C519   C     0.90179   0.78856   0.47448   0.00000  Uiso   1.00
C520   C     0.59821   0.87811   0.52552   0.00000  Uiso   1.00
C521   C     0.94835   0.78687   0.47452   0.00000  Uiso   1.00
C522   C     0.55165   0.87980   0.52548   0.00000  Uiso   1.00
C523   C     0.97644   0.83380   0.49947   0.00000  Uiso   1.00
C524   C     0.52356   0.83287   0.50053   0.00000  Uiso   1.00
C525   C     0.95744   0.88168   0.52336   0.00000  Uiso   1.00
C526   C     0.54256   0.78499   0.47664   0.00000  Uiso   1.00
C527   C     0.96768   0.73975   0.45075   0.00000  Uiso   1.00
C528   C     0.53232   0.92692   0.54925   0.00000  Uiso   1.00
Cu529  Cu    0.75501   0.83913   0.56146   0.00000  Uiso   1.00
Cu530  Cu    0.74500   0.82754   0.43854   0.00000  Uiso   1.00
N531   N     0.73745   0.81881   0.34617   0.00000  Uiso   1.00
N532   N     0.76256   0.84786   0.65383   0.00000  Uiso   1.00
O533   O     0.75326   0.76204   0.53992   0.00000  Uiso   1.00
O534   O     0.74675   0.90462   0.46008   0.00000  Uiso   1.00
O535   O     0.74480   0.75226   0.43612   0.00000  Uiso   1.00
O536   O     0.75520   0.91441   0.56388   0.00000  Uiso   1.00
O537   O     0.68936   0.83821   0.55191   0.00000  Uiso   1.00
O538   O     0.81065   0.82845   0.44809   0.00000  Uiso   1.00
O539   O     0.68090   0.82843   0.44810   0.00000  Uiso   1.00
O540   O     0.81910   0.83824   0.55190   0.00000  Uiso   1.00
Br541  Br    0.88015   0.94495   0.54975   0.00000  Uiso   1.00
Br542  Br    0.61985   0.72171   0.45025   0.00000  Uiso   1.00
F543   F     0.87305   0.74512   0.45272   0.00000  Uiso   1.00
F544   F     0.62695   0.92154   0.54728   0.00000  Uiso   1.00
Br545  Br    0.93381   0.67333   0.41468   0.00000  Uiso   1.00
Br546  Br    0.56619   0.99333   0.58532   0.00000  Uiso   1.00
F547   F     0.53009   0.69270   0.42773   0.00000  Uiso   1.00
F548   F     0.96991   0.97397   0.57227   0.00000  Uiso   1.00
Br549  Br    0.71090   0.97462   0.39824   0.00000  Uiso   1.00
Br550  Br    0.78910   0.69205   0.60176   0.00000  Uiso   1.00
F551   F     0.70660   0.78547   0.64167   0.00000  Uiso   1.00
F552   F     0.79340   0.88119   0.35833   0.00000  Uiso   1.00
C553   C     0.24843   0.06673   0.81801   0.00000  Uiso   1.00
C554   C     0.25157   0.26660   0.84866   0.00000  Uiso   1.00
C555   C     0.01396   0.07248   0.78529   0.00000  Uiso   1.00
C556   C     0.48604   0.26086   0.88137   0.00000  Uiso   1.00
C557   C     0.24314   0.01116   0.81007   0.00000  Uiso   1.00
C558   C     0.25686   0.32217   0.85659   0.00000  Uiso   1.00
C559   C     0.16459   0.16589   0.83384   0.00000  Uiso   1.00
C560   C     0.33541   0.16745   0.83283   0.00000  Uiso   1.00
C561   C     0.41036   0.21535   0.85542   0.00000  Uiso   1.00
C562   C     0.08964   0.11799   0.81125   0.00000  Uiso   1.00
C563   C     0.38353   0.16858   0.83169   0.00000  Uiso   1.00
C564   C     0.11647   0.16475   0.83498   0.00000  Uiso   1.00
C565   C     0.40179   0.12189   0.80782   0.00000  Uiso   1.00
C566   C     0.09821   0.21144   0.85885   0.00000  Uiso   1.00
C567   C     0.44835   0.12020   0.80785   0.00000  Uiso   1.00
C568   C     0.05165   0.21313   0.85882   0.00000  Uiso   1.00
C569   C     0.47644   0.16713   0.83281   0.00000  Uiso   1.00
C570   C     0.02356   0.16620   0.83386   0.00000  Uiso   1.00
C571   C     0.45744   0.21501   0.85669   0.00000  Uiso   1.00
C572   C     0.04256   0.11832   0.80998   0.00000  Uiso   1.00
C573   C     0.46768   0.07308   0.78409   0.00000  Uiso   1.00
C574   C     0.03232   0.26025   0.88258   0.00000  Uiso   1.00
Cu575  Cu    0.25501   0.17246   0.89479   0.00000  Uiso   1.00
Cu576  Cu    0.24500   0.16087   0.77187   0.00000  Uiso   1.00
N577   N     0.23745   0.15214   0.67951   0.00000  Uiso   1.00
N578   N     0.26256   0.18119   0.98716   0.00000  Uiso   1.00
O579   O     0.25326   0.09538   0.87326   0.00000  Uiso   1.00
O580   O     0.24675   0.23796   0.79341   0.00000  Uiso   1.00
O581   O     0.24480   0.08559   0.76945   0.00000  Uiso   1.00
O582   O     0.25520   0.24774   0.89721   0.00000  Uiso   1.00
O583   O     0.18936   0.17155   0.88524   0.00000  Uiso   1.00
O584   O     0.31065   0.16179   0.78143   0.00000  Uiso   1.00
O585   O     0.18090   0.16176   0.78143   0.00000  Uiso   1.00
O586   O     0.31910   0.17157   0.88523   0.00000  Uiso   1.00
Br587  Br    0.38015   0.27829   0.88309   0.00000  Uiso   1.00
Br588  Br    0.11985   0.05505   0.78358   0.00000  Uiso   1.00
F589   F     0.37305   0.07846   0.78606   0.00000  Uiso   1.00
F590   F     0.12695   0.25488   0.88061   0.00000  Uiso   1.00
Br591  Br    0.43381   0.00667   0.74802   0.00000  Uiso   1.00
Br592  Br    0.06619   0.32667   0.91865   0.00000  Uiso   1.00
F593   F     0.03009   0.02603   0.76106   0.00000  Uiso   1.00
F594   F     0.46991   0.30730   0.90561   0.00000  Uiso   1.00
Br595  Br    0.21090   0.30795   0.73158   0.00000  Uiso   1.00
Br596  Br    0.28910   0.02538   0.93509   0.00000  Uiso   1.00
F597   F     0.20660   0.11881   0.97501   0.00000  Uiso   1.00
F598   F     0.29340   0.21453   0.69166   0.00000  Uiso   1.00
C599   C     0.74843   0.06673   0.81801   0.00000  Uiso   1.00
C600   C     0.75157   0.26660   0.84866   0.00000  Uiso   1.00
C601   C     0.51396   0.07248   0.78529   0.00000  Uiso   1.00
C602   C     0.98604   0.26086   0.88137   0.00000  Uiso   1.00
C603   C     0.74314   0.01116   0.81007   0.00000  Uiso   1.00
C604   C     0.75686   0.32217   0.85659   0.00000  Uiso   1.00
C605   C     0.66459   0.16589   0.83384   0.00000  Uiso   1.00
C606   C     0.83541   0.16745   0.83283   0.00000  Uiso   1.00
C607   C     0.91036   0.21535   0.85542   0.00000  Uiso   1.00
C608   C     0.58964   0.11799   0.81125   0.00000  Uiso   1.00
C609   C     0.88353   0.16858   0.83169   0.00000  Uiso   1.00
C610   C     0.61647   0.16475   0.83498   0.00000  Uiso   1.00
C611   C     0.90179   0.12189   0.80782   0.00000  Uiso   1.00
C612   C     0.59821   0.21144   0.85885   0.00000  Uiso   1.00
C613   C     0.94835   0.12020   0.80785   0.00000  Uiso   1.00
C614   C     0.55165   0.21313   0.85882   0.00000  Uiso   1.00
C615   C     0.97644   0.16713   0.83281   0.00000  Uiso   1.00
C616   C     0.52356   0.16620   0.83386   0.00000  Uiso   1.00
C617   C     0.95744   0.21501   0.85669   0.00000  Uiso   1.00
C618   C     0.54256   0.11832   0.80998   0.00000  Uiso   1.00
C619   C     0.96768   0.07308   0.78409   0.00000  Uiso   1.00
C620   C     0.53232   0.26025   0.88258   0.00000  Uiso   1.00
Cu621  Cu    0.75501   0.17246   0.89479   0.00000  Uiso   1.00
Cu622  Cu    0.74500   0.16087   0.77187   0.00000  Uiso   1.00
N623   N     0.73745   0.15214   0.67951   0.00000  Uiso   1.00
N624   N     0.76256   0.18119   0.98716   0.00000  Uiso   1.00
O625   O     0.75326   0.09538   0.87326   0.00000  Uiso   1.00
O626   O     0.74675   0.23796   0.79341   0.00000  Uiso   1.00
O627   O     0.74480   0.08559   0.76945   0.00000  Uiso   1.00
O628   O     0.75520   0.24774   0.89721   0.00000  Uiso   1.00
O629   O     0.68936   0.17155   0.88524   0.00000  Uiso   1.00
O630   O     0.81065   0.16179   0.78143   0.00000  Uiso   1.00
O631   O     0.68090   0.16176   0.78143   0.00000  Uiso   1.00
O632   O     0.81910   0.17157   0.88523   0.00000  Uiso   1.00
Br633  Br    0.88015   0.27829   0.88309   0.00000  Uiso   1.00
Br634  Br    0.61985   0.05505   0.78358   0.00000  Uiso   1.00
F635   F     0.87305   0.07846   0.78606   0.00000  Uiso   1.00
F636   F     0.62695   0.25488   0.88061   0.00000  Uiso   1.00
Br637  Br    0.93381   0.00667   0.74802   0.00000  Uiso   1.00
Br638  Br    0.56619   0.32667   0.91865   0.00000  Uiso   1.00
F639   F     0.53009   0.02603   0.76106   0.00000  Uiso   1.00
F640   F     0.96991   0.30730   0.90561   0.00000  Uiso   1.00
Br641  Br    0.71090   0.30795   0.73158   0.00000  Uiso   1.00
Br642  Br    0.78910   0.02538   0.93509   0.00000  Uiso   1.00
F643   F     0.70660   0.11881   0.97501   0.00000  Uiso   1.00
F644   F     0.79340   0.21453   0.69166   0.00000  Uiso   1.00
C645   C     0.24843   0.40006   0.81801   0.00000  Uiso   1.00
C646   C     0.25157   0.59994   0.84866   0.00000  Uiso   1.00
C647   C     0.01396   0.40581   0.78529   0.00000  Uiso   1.00
C648   C     0.48604   0.59419   0.88137   0.00000  Uiso   1.00
C649   C     0.24314   0.34450   0.81007   0.00000  Uiso   1.00
C650   C     0.25686   0.65550   0.85659   0.00000  Uiso   1.00
C651   C     0.16459   0.49922   0.83384   0.00000  Uiso   1.00
C652   C     0.33541   0.50078   0.83283   0.00000  Uiso   1.00
C653   C     0.41036   0.54868   0.85542   0.00000  Uiso   1.00
C654   C     0.08964   0.45132   0.81125   0.00000  Uiso   1.00
C655   C     0.38353   0.50191   0.83169   0.00000  Uiso   1.00
C656   C     0.11647   0.49809   0.83498   0.00000  Uiso   1.00
C657   C     0.40179   0.45523   0.80782   0.00000  Uiso   1.00
C658   C     0.09821   0.54477   0.85885   0.00000  Uiso   1.00
C659   C     0.44835   0.45353   0.80785   0.00000  Uiso   1.00
C660   C     0.05165   0.54647   0.85882   0.00000  Uiso   1.00
C661   C     0.47644   0.50047   0.83281   0.00000  Uiso   1.00
C662   C     0.02356   0.49953   0.83386   0.00000  Uiso   1.00
C663   C     0.45744   0.54834   0.85669   0.00000  Uiso   1.00
C664   C     0.04256   0.45166   0.80998   0.00000  Uiso   1.00
C665   C     0.46768   0.40642   0.78409   0.00000  Uiso   1.00
C666   C     0.03232   0.59358   0.88258   0.00000  Uiso   1.00
Cu667  Cu    0.25501   0.50579   0.89479   0.00000  Uiso   1.00
Cu668  Cu    0.24500   0.49421   0.77187   0.00000  Uiso   1.00
N669   N     0.23745   0.48547   0.67951   0.00000  Uiso   1.00
N670   N     0.26256   0.51453   0.98716   0.00000  Uiso   1.00
O671   O     0.25326   0.42871   0.87326   0.00000  Uiso   1.00
O672   O     0.24675   0.57129   0.79341   0.00000  Uiso   1.00
O673   O     0.24480   0.41892   0.76945   0.00000  Uiso   1.00
O674   O     0.25520   0.58108   0.89721   0.00000  Uiso   1.00
O675   O     0.18936   0.50488   0.88524   0.00000  Uiso   1.00
O676   O     0.31065   0.49512   0.78143   0.00000  Uiso   1.00
O677   O     0.18090   0.49510   0.78143   0.00000  Uiso   1.00
O678   O     0.31910   0.50490   0.88523   0.00000  Uiso   1.00
Br679  Br    0.38015   0.61162   0.88309   0.00000  Uiso   1.00
Br680  Br    0.11985   0.38838   0.78358   0.00000  Uiso   1.00
F681   F     0.37305   0.41179   0.78606   0.00000  Uiso   1.00
F682   F     0.12695   0.58821   0.88061   0.00000  Uiso   1.00
Br683  Br    0.43381   0.34000   0.74802   0.00000  Uiso   1.00
Br684  Br    0.06619   0.66000   0.91865   0.00000  Uiso   1.00
F685   F     0.03009   0.35937   0.76106   0.00000  Uiso   1.00
F686   F     0.46991   0.64063   0.90561   0.00000  Uiso   1.00
Br687  Br    0.21090   0.64128   0.73158   0.00000  Uiso   1.00
Br688  Br    0.28910   0.35872   0.93509   0.00000  Uiso   1.00
F689   F     0.20660   0.45214   0.97501   0.00000  Uiso   1.00
F690   F     0.29340   0.54786   0.69166   0.00000  Uiso   1.00
C691   C     0.74843   0.40006   0.81801   0.00000  Uiso   1.00
C692   C     0.75157   0.59994   0.84866   0.00000  Uiso   1.00
C693   C     0.51396   0.40581   0.78529   0.00000  Uiso   1.00
C694   C     0.98604   0.59419   0.88137   0.00000  Uiso   1.00
C695   C     0.74314   0.34450   0.81007   0.00000  Uiso   1.00
C696   C     0.75686   0.65550   0.85659   0.00000  Uiso   1.00
C697   C     0.66459   0.49922   0.83384   0.00000  Uiso   1.00
C698   C     0.83541   0.50078   0.83283   0.00000  Uiso   1.00
C699   C     0.91036   0.54868   0.85542   0.00000  Uiso   1.00
C700   C     0.58964   0.45132   0.81125   0.00000  Uiso   1.00
C701   C     0.88353   0.50191   0.83169   0.00000  Uiso   1.00
C702   C     0.61647   0.49809   0.83498   0.00000  Uiso   1.00
C703   C     0.90179   0.45523   0.80782   0.00000  Uiso   1.00
C704   C     0.59821   0.54477   0.85885   0.00000  Uiso   1.00
C705   C     0.94835   0.45353   0.80785   0.00000  Uiso   1.00
C706   C     0.55165   0.54647   0.85882   0.00000  Uiso   1.00
C707   C     0.97644   0.50047   0.83281   0.00000  Uiso   1.00
C708   C     0.52356   0.49953   0.83386   0.00000  Uiso   1.00
C709   C     0.95744   0.54834   0.85669   0.00000  Uiso   1.00
C710   C     0.54256   0.45166   0.80998   0.00000  Uiso   1.00
C711   C     0.96768   0.40642   0.78409   0.00000  Uiso   1.00
C712   C     0.53232   0.59358   0.88258   0.00000  Uiso   1.00
Cu713  Cu    0.75501   0.50579   0.89479   0.00000  Uiso   1.00
Cu714  Cu    0.74500   0.49421   0.77187   0.00000  Uiso   1.00
N715   N     0.73745   0.48547   0.67951   0.00000  Uiso   1.00
N716   N     0.76256   0.51453   0.98716   0.00000  Uiso   1.00
O717   O     0.75326   0.42871   0.87326   0.00000  Uiso   1.00
O718   O     0.74675   0.57129   0.79341   0.00000  Uiso   1.00
O719   O     0.74480   0.41892   0.76945   0.00000  Uiso   1.00
O720   O     0.75520   0.58108   0.89721   0.00000  Uiso   1.00
O721   O     0.68936   0.50488   0.88524   0.00000  Uiso   1.00
O722   O     0.81065   0.49512   0.78143   0.00000  Uiso   1.00
O723   O     0.68090   0.49510   0.78143   0.00000  Uiso   1.00
O724   O     0.81910   0.50490   0.88523   0.00000  Uiso   1.00
Br725  Br    0.88015   0.61162   0.88309   0.00000  Uiso   1.00
Br726  Br    0.61985   0.38838   0.78358   0.00000  Uiso   1.00
F727   F     0.87305   0.41179   0.78606   0.00000  Uiso   1.00
F728   F     0.62695   0.58821   0.88061   0.00000  Uiso   1.00
Br729  Br    0.93381   0.34000   0.74802   0.00000  Uiso   1.00
Br730  Br    0.56619   0.66000   0.91865   0.00000  Uiso   1.00
F731   F     0.53009   0.35937   0.76106   0.00000  Uiso   1.00
F732   F     0.96991   0.64063   0.90561   0.00000  Uiso   1.00
Br733  Br    0.71090   0.64128   0.73158   0.00000  Uiso   1.00
Br734  Br    0.78910   0.35872   0.93509   0.00000  Uiso   1.00
F735   F     0.70660   0.45214   0.97501   0.00000  Uiso   1.00
F736   F     0.79340   0.54786   0.69166   0.00000  Uiso   1.00
C737   C     0.24843   0.73340   0.81801   0.00000  Uiso   1.00
C738   C     0.25157   0.93327   0.84866   0.00000  Uiso   1.00
C739   C     0.01396   0.73914   0.78529   0.00000  Uiso   1.00
C740   C     0.48604   0.92752   0.88137   0.00000  Uiso   1.00
C741   C     0.24314   0.67783   0.81007   0.00000  Uiso   1.00
C742   C     0.25686   0.98884   0.85659   0.00000  Uiso   1.00
C743   C     0.16459   0.83255   0.83384   0.00000  Uiso   1.00
C744   C     0.33541   0.83411   0.83283   0.00000  Uiso   1.00
C745   C     0.41036   0.88201   0.85542   0.00000  Uiso   1.00
C746   C     0.08964   0.78465   0.81125   0.00000  Uiso   1.00
C747   C     0.38353   0.83525   0.83169   0.00000  Uiso   1.00
C748   C     0.11647   0.83142   0.83498   0.00000  Uiso   1.00
C749   C     0.40179   0.78856   0.80782   0.00000  Uiso   1.00
C750   C     0.09821   0.87811   0.85885   0.00000  Uiso   1.00
C751   C     0.44835   0.78687   0.80785   0.00000  Uiso   1.00
C752   C     0.05165   0.87980   0.85882   0.00000  Uiso   1.00
C753   C     0.47644   0.83380   0.83281   0.00000  Uiso   1.00
C754   C     0.02356   0.83287   0.83386   0.00000  Uiso   1.00
C755   C     0.45744   0.88168   0.85669   0.00000  Uiso   1.00
C756   C     0.04256   0.78499   0.80998   0.00000  Uiso   1.00
C757   C     0.46768   0.73975   0.78409   0.00000  Uiso   1.00
C758   C     0.03232   0.92692   0.88258   0.00000  Uiso   1.00
Cu759  Cu    0.25501   0.83913   0.89479   0.00000  Uiso   1.00
Cu760  Cu    0.24500   0.82754   0.77187   0.00000  Uiso   1.00
N761   N     0.23745   0.81881   0.67951   0.00000  Uiso   1.00
N762   N     0.26256   0.84786   0.98716   0.00000  Uiso   1.00
O763   O     0.25326   0.76204   0.87326   0.00000  Uiso   1.00
O764   O     0.24675   0.90462   0.79341   0.00000  Uiso   1.00
O765   O     0.24480   0.75226   0.76945   0.00000  Uiso   1.00
O766   O     0.25520   0.91441   0.89721   0.00000  Uiso   1.00
O767   O     0.18936   0.83821   0.88524   0.00000  Uiso   1.00
O768   O     0.31065   0.82845   0.78143   0.00000  Uiso   1.00
O769   O     0.18090   0.82843   0.78143   0.00000  Uiso   1.00
O770   O     0.31910   0.83824   0.88523   0.00000  Uiso   1.00
Br771  Br    0.38015   0.94495   0.88309   0.00000  Uiso   1.00
Br772  Br    0.11985   0.72171   0.78358   0.00000  Uiso   1.00
F773   F     0.37305   0.74512   0.78606   0.00000  Uiso   1.00
F774   F     0.12695   0.92154   0.88061   0.00000  Uiso   1.00
Br775  Br    0.43381   0.67333   0.74802   0.00000  Uiso   1.00
Br776  Br    0.06619   0.99333   0.91865   0.00000  Uiso   1.00
F777   F     0.03009   0.69270   0.76106   0.00000  Uiso   1.00
F778   F     0.46991   0.97397   0.90561   0.00000  Uiso   1.00
Br779  Br    0.21090   0.97462   0.73158   0.00000  Uiso   1.00
Br780  Br    0.28910   0.69205   0.93509   0.00000  Uiso   1.00
F781   F     0.20660   0.78547   0.97501   0.00000  Uiso   1.00
F782   F     0.29340   0.88119   0.69166   0.00000  Uiso   1.00
C783   C     0.74843   0.73340   0.81801   0.00000  Uiso   1.00
C784   C     0.75157   0.93327   0.84866   0.00000  Uiso   1.00
C785   C     0.51396   0.73914   0.78529   0.00000  Uiso   1.00
C786   C     0.98604   0.92752   0.88137   0.00000  Uiso   1.00
C787   C     0.74314   0.67783   0.81007   0.00000  Uiso   1.00
C788   C     0.75686   0.98884   0.85659   0.00000  Uiso   1.00
C789   C     0.66459   0.83255   0.83384   0.00000  Uiso   1.00
C790   C     0.83541   0.83411   0.83283   0.00000  Uiso   1.00
C791   C     0.91036   0.88201   0.85542   0.00000  Uiso   1.00
C792   C     0.58964   0.78465   0.81125   0.00000  Uiso   1.00
C793   C     0.88353   0.83525   0.83169   0.00000  Uiso   1.00
C794   C     0.61647   0.83142   0.83498   0.00000  Uiso   1.00
C795   C     0.90179   0.78856   0.80782   0.00000  Uiso   1.00
C796   C     0.59821   0.87811   0.85885   0.00000  Uiso   1.00
C797   C     0.94835   0.78687   0.80785   0.00000  Uiso   1.00
C798   C     0.55165   0.87980   0.85882   0.00000  Uiso   1.00
C799   C     0.97644   0.83380   0.83281   0.00000  Uiso   1.00
C800   C     0.52356   0.83287   0.83386   0.00000  Uiso   1.00
C801   C     0.95744   0.88168   0.85669   0.00000  Uiso   1.00
C802   C     0.54256   0.78499   0.80998   0.00000  Uiso   1.00
C803   C     0.96768   0.73975   0.78409   0.00000  Uiso   1.00
C804   C     0.53232   0.92692   0.88258   0.00000  Uiso   1.00
Cu805  Cu    0.75501   0.83913   0.89479   0.00000  Uiso   1.00
Cu806  Cu    0.74500   0.82754   0.77187   0.00000  Uiso   1.00
N807   N     0.73745   0.81881   0.67951   0.00000  Uiso   1.00
N808   N     0.76256   0.84786   0.98716   0.00000  Uiso   1.00
O809   O     0.75326   0.76204   0.87326   0.00000  Uiso   1.00
O810   O     0.74675   0.90462   0.79341   0.00000  Uiso   1.00
O811   O     0.74480   0.75226   0.76945   0.00000  Uiso   1.00
O812   O     0.75520   0.91441   0.89721   0.00000  Uiso   1.00
O813   O     0.68936   0.83821   0.88524   0.00000  Uiso   1.00
O814   O     0.81065   0.82845   0.78143   0.00000  Uiso   1.00
O815   O     0.68090   0.82843   0.78143   0.00000  Uiso   1.00
O816   O     0.81910   0.83824   0.88523   0.00000  Uiso   1.00
Br817  Br    0.88015   0.94495   0.88309   0.00000  Uiso   1.00
Br818  Br    0.61985   0.72171   0.78358   0.00000  Uiso   1.00
F819   F     0.87305   0.74512   0.78606   0.00000  Uiso   1.00
F820   F     0.62695   0.92154   0.88061   0.00000  Uiso   1.00
Br821  Br    0.93381   0.67333   0.74802   0.00000  Uiso   1.00
Br822  Br    0.56619   0.99333   0.91865   0.00000  Uiso   1.00
F823   F     0.53009   0.69270   0.76106   0.00000  Uiso   1.00
F824   F     0.96991   0.97397   0.90561   0.00000  Uiso   1.00
Br825  Br    0.71090   0.97462   0.73158   0.00000  Uiso   1.00
Br826  Br    0.78910   0.69205   0.93509   0.00000  Uiso   1.00
F827   F     0.70660   0.78547   0.97501   0.00000  Uiso   1.00
F828   F     0.79340   0.88119   0.69166   0.00000  Uiso   1.00
loop_
_geom_bond_atom_site_label_1
_geom_bond_atom_site_label_2
_geom_bond_distance
_geom_bond_site_symmetry_2
_ccdc_geom_bond_type
C1     O29     1.290   .     A
C1     C5      1.427   .     S
C1     O27     1.287   .     A
C2     O28     1.287   .     A
C2     O30     1.290   .     A
C2     C6      1.427   .     S
C3     C20     1.410   .     A
C3     F41     1.356   .     S
C3     C67     1.390   1_455 S
C4     F42     1.356   .     S
C4     C19     1.410   .     A
C4     C68     1.390   .     S
C5     C190    1.353   1_545 S
C5     Br227   1.949   1_545 S
C6     C97     1.353   .     S
C6     Br136   1.949   .     S
C7     O33     1.291   .     A
C7     C12     1.447   .     S
C7     O31     1.292   .     A
C8     O34     1.291   .     A
C8     C11     1.447   .     S
C8     O32     1.292   .     A
C9     C11     1.398   .     A
C9     Br35    1.940   .     S
C9     C19     1.413   .     A
C10    C12     1.398   .     A
C10    C20     1.413   .     A
C10    Br36    1.940   .     S
C11    C13     1.389   .     A
C12    C14     1.389   .     A
C13    F37     1.358   .     S
C13    C15     1.402   .     A
C14    F38     1.358   .     S
C14    C16     1.402   .     A
C15    C17     1.424   .     A
C15    C21     1.413   .     A
C16    C18     1.424   .     A
C16    C22     1.413   .     A
C17    C19     1.426   .     A
C17    C64     1.416   .     S
C18    C20     1.426   .     A
C18    C63     1.416   1_455 S
C21    Br39    1.935   .     S
C21    C49     1.390   .     S
C22    Br40    1.935   .     S
C22    C50     1.390   1_455 S
Cu23   Cu24    2.687   .     S
Cu23   O27     1.970   .     S
Cu23   O34     1.955   .     S
Cu23   O30     1.966   .     S
Cu23   N26     2.019   .     S
Cu23   O31     1.965   .     S
Cu24   O32     1.965   .     S
Cu24   O33     1.955   .     S
Cu24   N25     2.019   .     S
Cu24   O29     1.966   .     S
Cu24   O28     1.970   .     S
N25    N578    1.293   1_554 S
N25    F597    1.335   1_554 S
N26    N301    1.293   .     S
N26    F322    1.335   .     S
Br43   C97     1.949   .     S
Br44   C190    1.949   1_545 S
F45    N301    1.335   .     S
F46    N578    1.335   1_554 S
C47    O75     1.290   .     A
C47    C51     1.427   .     S
C47    O73     1.287   .     A
C48    O74     1.287   .     A
C48    O76     1.290   .     A
C48    C52     1.427   .     S
C49    C66     1.410   .     A
C49    F87     1.356   .     S
C50    F88     1.356   .     S
C50    C65     1.410   .     A
C50    C22     1.390   1_655 S
C51    C236    1.353   1_545 S
C51    Br273   1.949   1_545 S
C52    C143    1.353   .     S
C52    Br182   1.949   .     S
C53    O79     1.291   .     A
C53    C58     1.447   .     S
C53    O77     1.292   .     A
C54    O80     1.291   .     A
C54    C57     1.447   .     S
C54    O78     1.292   .     A
C55    C57     1.398   .     A
C55    Br81    1.940   .     S
C55    C65     1.413   .     A
C56    C58     1.398   .     A
C56    C66     1.413   .     A
C56    Br82    1.940   .     S
C57    C59     1.389   .     A
C58    C60     1.389   .     A
C59    F83     1.358   .     S
C59    C61     1.402   .     A
C60    F84     1.358   .     S
C60    C62     1.402   .     A
C61    C63     1.424   .     A
C61    C67     1.413   .     A
C62    C64     1.424   .     A
C62    C68     1.413   .     A
C63    C65     1.426   .     A
C63    C18     1.416   1_655 S
C64    C66     1.426   .     A
C67    Br85    1.935   .     S
C67    C3      1.390   1_655 S
C68    Br86    1.935   .     S
Cu69   Cu70    2.687   .     S
Cu69   O73     1.970   .     S
Cu69   O80     1.955   .     S
Cu69   O76     1.966   .     S
Cu69   N72     2.019   .     S
Cu69   O77     1.965   .     S
Cu70   O78     1.965   .     S
Cu70   O79     1.955   .     S
Cu70   N71     2.019   .     S
Cu70   O75     1.966   .     S
Cu70   O74     1.970   .     S
N71    N624    1.293   1_554 S
N71    F643    1.335   1_554 S
N72    N347    1.293   .     S
N72    F368    1.335   .     S
Br89   C143    1.949   .     S
Br90   C236    1.949   1_545 S
F91    N347    1.335   .     S
F92    N624    1.335   1_554 S
C93    O121    1.290   .     A
C93    C97     1.427   .     S
C93    O119    1.287   .     A
C94    O120    1.287   .     A
C94    O122    1.290   .     A
C94    C98     1.427   .     S
C95    C112    1.410   .     A
C95    F133    1.356   .     S
C95    C159    1.390   1_455 S
C96    F134    1.356   .     S
C96    C111    1.410   .     A
C96    C160    1.390   .     S
C98    C189    1.353   .     S
C98    Br228   1.949   .     S
C99    O125    1.291   .     A
C99    C104    1.447   .     S
C99    O123    1.292   .     A
C100   O126    1.291   .     A
C100   C103    1.447   .     S
C100   O124    1.292   .     A
C101   C103    1.398   .     A
C101   Br127   1.940   .     S
C101   C111    1.413   .     A
C102   C104    1.398   .     A
C102   C112    1.413   .     A
C102   Br128   1.940   .     S
C103   C105    1.389   .     A
C104   C106    1.389   .     A
C105   F129    1.358   .     S
C105   C107    1.402   .     A
C106   F130    1.358   .     S
C106   C108    1.402   .     A
C107   C109    1.424   .     A
C107   C113    1.413   .     A
C108   C110    1.424   .     A
C108   C114    1.413   .     A
C109   C111    1.426   .     A
C109   C156    1.416   .     S
C110   C112    1.426   .     A
C110   C155    1.416   1_455 S
C113   Br131   1.935   .     S
C113   C141    1.390   .     S
C114   Br132   1.935   .     S
C114   C142    1.390   1_455 S
Cu115  Cu116   2.687   .     S
Cu115  O119    1.970   .     S
Cu115  O126    1.955   .     S
Cu115  O122    1.966   .     S
Cu115  N118    2.019   .     S
Cu115  O123    1.965   .     S
Cu116  O124    1.965   .     S
Cu116  O125    1.955   .     S
Cu116  N117    2.019   .     S
Cu116  O121    1.966   .     S
Cu116  O120    1.970   .     S
N117   N670    1.293   1_554 S
N117   F689    1.335   1_554 S
N118   N393    1.293   .     S
N118   F414    1.335   .     S
Br135  C189    1.949   .     S
F137   N393    1.335   .     S
F138   N670    1.335   1_554 S
C139   O167    1.290   .     A
C139   C143    1.427   .     S
C139   O165    1.287   .     A
C140   O166    1.287   .     A
C140   O168    1.290   .     A
C140   C144    1.427   .     S
C141   C158    1.410   .     A
C141   F179    1.356   .     S
C142   F180    1.356   .     S
C142   C157    1.410   .     A
C142   C114    1.390   1_655 S
C144   C235    1.353   .     S
C144   Br274   1.949   .     S
C145   O171    1.291   .     A
C145   C150    1.447   .     S
C145   O169    1.292   .     A
C146   O172    1.291   .     A
C146   C149    1.447   .     S
C146   O170    1.292   .     A
C147   C149    1.398   .     A
C147   Br173   1.940   .     S
C147   C157    1.413   .     A
C148   C150    1.398   .     A
C148   C158    1.413   .     A
C148   Br174   1.940   .     S
C149   C151    1.389   .     A
C150   C152    1.389   .     A
C151   F175    1.358   .     S
C151   C153    1.402   .     A
C152   F176    1.358   .     S
C152   C154    1.402   .     A
C153   C155    1.424   .     A
C153   C159    1.413   .     A
C154   C156    1.424   .     A
C154   C160    1.413   .     A
C155   C157    1.426   .     A
C155   C110    1.416   1_655 S
C156   C158    1.426   .     A
C159   Br177   1.935   .     S
C159   C95     1.390   1_655 S
C160   Br178   1.935   .     S
Cu161  Cu162   2.687   .     S
Cu161  O165    1.970   .     S
Cu161  O172    1.955   .     S
Cu161  O168    1.966   .     S
Cu161  N164    2.019   .     S
Cu161  O169    1.965   .     S
Cu162  O170    1.965   .     S
Cu162  O171    1.955   .     S
Cu162  N163    2.019   .     S
Cu162  O167    1.966   .     S
Cu162  O166    1.970   .     S
N163   N716    1.293   1_554 S
N163   F735    1.335   1_554 S
N164   N439    1.293   .     S
N164   F460    1.335   .     S
Br181  C235    1.949   .     S
F183   N439    1.335   .     S
F184   N716    1.335   1_554 S
C185   O213    1.290   .     A
C185   C189    1.427   .     S
C185   O211    1.287   .     A
C186   O212    1.287   .     A
C186   O214    1.290   .     A
C186   C190    1.427   .     S
C187   C204    1.410   .     A
C187   F225    1.356   .     S
C187   C251    1.390   1_455 S
C188   F226    1.356   .     S
C188   C203    1.410   .     A
C188   C252    1.390   .     S
C190   C5      1.353   1_565 S
C190   Br44    1.949   1_565 S
C191   O217    1.291   .     A
C191   C196    1.447   .     S
C191   O215    1.292   .     A
C192   O218    1.291   .     A
C192   C195    1.447   .     S
C192   O216    1.292   .     A
C193   C195    1.398   .     A
C193   Br219   1.940   .     S
C193   C203    1.413   .     A
C194   C196    1.398   .     A
C194   C204    1.413   .     A
C194   Br220   1.940   .     S
C195   C197    1.389   .     A
C196   C198    1.389   .     A
C197   F221    1.358   .     S
C197   C199    1.402   .     A
C198   F222    1.358   .     S
C198   C200    1.402   .     A
C199   C201    1.424   .     A
C199   C205    1.413   .     A
C200   C202    1.424   .     A
C200   C206    1.413   .     A
C201   C203    1.426   .     A
C201   C248    1.416   .     S
C202   C204    1.426   .     A
C202   C247    1.416   1_455 S
C205   Br223   1.935   .     S
C205   C233    1.390   .     S
C206   Br224   1.935   .     S
C206   C234    1.390   1_455 S
Cu207  Cu208   2.687   .     S
Cu207  O211    1.970   .     S
Cu207  O218    1.955   .     S
Cu207  O214    1.966   .     S
Cu207  N210    2.019   .     S
Cu207  O215    1.965   .     S
Cu208  O216    1.965   .     S
Cu208  O217    1.955   .     S
Cu208  N209    2.019   .     S
Cu208  O213    1.966   .     S
Cu208  O212    1.970   .     S
N209   N762    1.293   1_554 S
N209   F781    1.335   1_554 S
N210   N485    1.293   .     S
N210   F506    1.335   .     S
Br227  C5      1.949   1_565 S
F229   N485    1.335   .     S
F230   N762    1.335   1_554 S
C231   O259    1.290   .     A
C231   C235    1.427   .     S
C231   O257    1.287   .     A
C232   O258    1.287   .     A
C232   O260    1.290   .     A
C232   C236    1.427   .     S
C233   C250    1.410   .     A
C233   F271    1.356   .     S
C234   F272    1.356   .     S
C234   C249    1.410   .     A
C234   C206    1.390   1_655 S
C236   C51     1.353   1_565 S
C236   Br90    1.949   1_565 S
C237   O263    1.291   .     A
C237   C242    1.447   .     S
C237   O261    1.292   .     A
C238   O264    1.291   .     A
C238   C241    1.447   .     S
C238   O262    1.292   .     A
C239   C241    1.398   .     A
C239   Br265   1.940   .     S
C239   C249    1.413   .     A
C240   C242    1.398   .     A
C240   C250    1.413   .     A
C240   Br266   1.940   .     S
C241   C243    1.389   .     A
C242   C244    1.389   .     A
C243   F267    1.358   .     S
C243   C245    1.402   .     A
C244   F268    1.358   .     S
C244   C246    1.402   .     A
C245   C247    1.424   .     A
C245   C251    1.413   .     A
C246   C248    1.424   .     A
C246   C252    1.413   .     A
C247   C249    1.426   .     A
C247   C202    1.416   1_655 S
C248   C250    1.426   .     A
C251   Br269   1.935   .     S
C251   C187    1.390   1_655 S
C252   Br270   1.935   .     S
Cu253  Cu254   2.687   .     S
Cu253  O257    1.970   .     S
Cu253  O264    1.955   .     S
Cu253  O260    1.966   .     S
Cu253  N256    2.019   .     S
Cu253  O261    1.965   .     S
Cu254  O262    1.965   .     S
Cu254  O263    1.955   .     S
Cu254  N255    2.019   .     S
Cu254  O259    1.966   .     S
Cu254  O258    1.970   .     S
N255   N808    1.293   1_554 S
N255   F827    1.335   1_554 S
N256   N531    1.293   .     S
N256   F552    1.335   .     S
Br273  C51     1.949   1_565 S
F275   N531    1.335   .     S
F276   N808    1.335   1_554 S
C277   O305    1.290   .     A
C277   C281    1.427   .     S
C277   O303    1.287   .     A
C278   O304    1.287   .     A
C278   O306    1.290   .     A
C278   C282    1.427   .     S
C279   C296    1.410   .     A
C279   F317    1.356   .     S
C279   C343    1.390   1_455 S
C280   F318    1.356   .     S
C280   C295    1.410   .     A
C280   C344    1.390   .     S
C281   C466    1.353   1_545 S
C281   Br503   1.949   1_545 S
C282   C373    1.353   .     S
C282   Br412   1.949   .     S
C283   O309    1.291   .     A
C283   C288    1.447   .     S
C283   O307    1.292   .     A
C284   O310    1.291   .     A
C284   C287    1.447   .     S
C284   O308    1.292   .     A
C285   C287    1.398   .     A
C285   Br311   1.940   .     S
C285   C295    1.413   .     A
C286   C288    1.398   .     A
C286   C296    1.413   .     A
C286   Br312   1.940   .     S
C287   C289    1.389   .     A
C288   C290    1.389   .     A
C289   F313    1.358   .     S
C289   C291    1.402   .     A
C290   F314    1.358   .     S
C290   C292    1.402   .     A
C291   C293    1.424   .     A
C291   C297    1.413   .     A
C292   C294    1.424   .     A
C292   C298    1.413   .     A
C293   C295    1.426   .     A
C293   C340    1.416   .     S
C294   C296    1.426   .     A
C294   C339    1.416   1_455 S
C297   Br315   1.935   .     S
C297   C325    1.390   .     S
C298   Br316   1.935   .     S
C298   C326    1.390   1_455 S
Cu299  Cu300   2.687   .     S
Cu299  O303    1.970   .     S
Cu299  O310    1.955   .     S
Cu299  O306    1.966   .     S
Cu299  N302    2.019   .     S
Cu299  O307    1.965   .     S
Cu300  O308    1.965   .     S
Cu300  O309    1.955   .     S
Cu300  N301    2.019   .     S
Cu300  O305    1.966   .     S
Cu300  O304    1.970   .     S
N302   N577    1.293   .     S
N302   F598    1.335   .     S
Br319  C373    1.949   .     S
Br320  C466    1.949   1_545 S
F321   N577    1.335   .     S
C323   O351    1.290   .     A
C323   C327    1.427   .     S
C323   O349    1.287   .     A
C324   O350    1.287   .     A
C324   O352    1.290   .     A
C324   C328    1.427   .     S
C325   C342    1.410   .     A
C325   F363    1.356   .     S
C326   F364    1.356   .     S
C326   C341    1.410   .     A
C326   C298    1.390   1_655 S
C327   C512    1.353   1_545 S
C327   Br549   1.949   1_545 S
C328   C419    1.353   .     S
C328   Br458   1.949   .     S
C329   O355    1.291   .     A
C329   C334    1.447   .     S
C329   O353    1.292   .     A
C330   O356    1.291   .     A
C330   C333    1.447   .     S
C330   O354    1.292   .     A
C331   C333    1.398   .     A
C331   Br357   1.940   .     S
C331   C341    1.413   .     A
C332   C334    1.398   .     A
C332   C342    1.413   .     A
C332   Br358   1.940   .     S
C333   C335    1.389   .     A
C334   C336    1.389   .     A
C335   F359    1.358   .     S
C335   C337    1.402   .     A
C336   F360    1.358   .     S
C336   C338    1.402   .     A
C337   C339    1.424   .     A
C337   C343    1.413   .     A
C338   C340    1.424   .     A
C338   C344    1.413   .     A
C339   C341    1.426   .     A
C339   C294    1.416   1_655 S
C340   C342    1.426   .     A
C343   Br361   1.935   .     S
C343   C279    1.390   1_655 S
C344   Br362   1.935   .     S
Cu345  Cu346   2.687   .     S
Cu345  O349    1.970   .     S
Cu345  O356    1.955   .     S
Cu345  O352    1.966   .     S
Cu345  N348    2.019   .     S
Cu345  O353    1.965   .     S
Cu346  O354    1.965   .     S
Cu346  O355    1.955   .     S
Cu346  N347    2.019   .     S
Cu346  O351    1.966   .     S
Cu346  O350    1.970   .     S
N348   N623    1.293   .     S
N348   F644    1.335   .     S
Br365  C419    1.949   .     S
Br366  C512    1.949   1_545 S
F367   N623    1.335   .     S
C369   O397    1.290   .     A
C369   C373    1.427   .     S
C369   O395    1.287   .     A
C370   O396    1.287   .     A
C370   O398    1.290   .     A
C370   C374    1.427   .     S
C371   C388    1.410   .     A
C371   F409    1.356   .     S
C371   C435    1.390   1_455 S
C372   F410    1.356   .     S
C372   C387    1.410   .     A
C372   C436    1.390   .     S
C374   C465    1.353   .     S
C374   Br504   1.949   .     S
C375   O401    1.291   .     A
C375   C380    1.447   .     S
C375   O399    1.292   .     A
C376   O402    1.291   .     A
C376   C379    1.447   .     S
C376   O400    1.292   .     A
C377   C379    1.398   .     A
C377   Br403   1.940   .     S
C377   C387    1.413   .     A
C378   C380    1.398   .     A
C378   C388    1.413   .     A
C378   Br404   1.940   .     S
C379   C381    1.389   .     A
C380   C382    1.389   .     A
C381   F405    1.358   .     S
C381   C383    1.402   .     A
C382   F406    1.358   .     S
C382   C384    1.402   .     A
C383   C385    1.424   .     A
C383   C389    1.413   .     A
C384   C386    1.424   .     A
C384   C390    1.413   .     A
C385   C387    1.426   .     A
C385   C432    1.416   .     S
C386   C388    1.426   .     A
C386   C431    1.416   1_455 S
C389   Br407   1.935   .     S
C389   C417    1.390   .     S
C390   Br408   1.935   .     S
C390   C418    1.390   1_455 S
Cu391  Cu392   2.687   .     S
Cu391  O395    1.970   .     S
Cu391  O402    1.955   .     S
Cu391  O398    1.966   .     S
Cu391  N394    2.019   .     S
Cu391  O399    1.965   .     S
Cu392  O400    1.965   .     S
Cu392  O401    1.955   .     S
Cu392  N393    2.019   .     S
Cu392  O397    1.966   .     S
Cu392  O396    1.970   .     S
N394   N669    1.293   .     S
N394   F690    1.335   .     S
Br411  C465    1.949   .     S
F413   N669    1.335   .     S
C415   O443    1.290   .     A
C415   C419    1.427   .     S
C415   O441    1.287   .     A
C416   O442    1.287   .     A
C416   O444    1.290   .     A
C416   C420    1.427   .     S
C417   C434    1.410   .     A
C417   F455    1.356   .     S
C418   F456    1.356   .     S
C418   C433    1.410   .     A
C418   C390    1.390   1_655 S
C420   C511    1.353   .     S
C420   Br550   1.949   .     S
C421   O447    1.291   .     A
C421   C426    1.447   .     S
C421   O445    1.292   .     A
C422   O448    1.291   .     A
C422   C425    1.447   .     S
C422   O446    1.292   .     A
C423   C425    1.398   .     A
C423   Br449   1.940   .     S
C423   C433    1.413   .     A
C424   C426    1.398   .     A
C424   C434    1.413   .     A
C424   Br450   1.940   .     S
C425   C427    1.389   .     A
C426   C428    1.389   .     A
C427   F451    1.358   .     S
C427   C429    1.402   .     A
C428   F452    1.358   .     S
C428   C430    1.402   .     A
C429   C431    1.424   .     A
C429   C435    1.413   .     A
C430   C432    1.424   .     A
C430   C436    1.413   .     A
C431   C433    1.426   .     A
C431   C386    1.416   1_655 S
C432   C434    1.426   .     A
C435   Br453   1.935   .     S
C435   C371    1.390   1_655 S
C436   Br454   1.935   .     S
Cu437  Cu438   2.687   .     S
Cu437  O441    1.970   .     S
Cu437  O448    1.955   .     S
Cu437  O444    1.966   .     S
Cu437  N440    2.019   .     S
Cu437  O445    1.965   .     S
Cu438  O446    1.965   .     S
Cu438  O447    1.955   .     S
Cu438  N439    2.019   .     S
Cu438  O443    1.966   .     S
Cu438  O442    1.970   .     S
N440   N715    1.293   .     S
N440   F736    1.335   .     S
Br457  C511    1.949   .     S
F459   N715    1.335   .     S
C461   O489    1.290   .     A
C461   C465    1.427   .     S
C461   O487    1.287   .     A
C462   O488    1.287   .     A
C462   O490    1.290   .     A
C462   C466    1.427   .     S
C463   C480    1.410   .     A
C463   F501    1.356   .     S
C463   C527    1.390   1_455 S
C464   F502    1.356   .     S
C464   C479    1.410   .     A
C464   C528    1.390   .     S
C466   C281    1.353   1_565 S
C466   Br320   1.949   1_565 S
C467   O493    1.291   .     A
C467   C472    1.447   .     S
C467   O491    1.292   .     A
C468   O494    1.291   .     A
C468   C471    1.447   .     S
C468   O492    1.292   .     A
C469   C471    1.398   .     A
C469   Br495   1.940   .     S
C469   C479    1.413   .     A
C470   C472    1.398   .     A
C470   C480    1.413   .     A
C470   Br496   1.940   .     S
C471   C473    1.389   .     A
C472   C474    1.389   .     A
C473   F497    1.358   .     S
C473   C475    1.402   .     A
C474   F498    1.358   .     S
C474   C476    1.402   .     A
C475   C477    1.424   .     A
C475   C481    1.413   .     A
C476   C478    1.424   .     A
C476   C482    1.413   .     A
C477   C479    1.426   .     A
C477   C524    1.416   .     S
C478   C480    1.426   .     A
C478   C523    1.416   1_455 S
C481   Br499   1.935   .     S
C481   C509    1.390   .     S
C482   Br500   1.935   .     S
C482   C510    1.390   1_455 S
Cu483  Cu484   2.687   .     S
Cu483  O487    1.970   .     S
Cu483  O494    1.955   .     S
Cu483  O490    1.966   .     S
Cu483  N486    2.019   .     S
Cu483  O491    1.965   .     S
Cu484  O492    1.965   .     S
Cu484  O493    1.955   .     S
Cu484  N485    2.019   .     S
Cu484  O489    1.966   .     S
Cu484  O488    1.970   .     S
N486   N761    1.293   .     S
N486   F782    1.335   .     S
Br503  C281    1.949   1_565 S
F505   N761    1.335   .     S
C507   O535    1.290   .     A
C507   C511    1.427   .     S
C507   O533    1.287   .     A
C508   O534    1.287   .     A
C508   O536    1.290   .     A
C508   C512    1.427   .     S
C509   C526    1.410   .     A
C509   F547    1.356   .     S
C510   F548    1.356   .     S
C510   C525    1.410   .     A
C510   C482    1.390   1_655 S
C512   C327    1.353   1_565 S
C512   Br366   1.949   1_565 S
C513   O539    1.291   .     A
C513   C518    1.447   .     S
C513   O537    1.292   .     A
C514   O540    1.291   .     A
C514   C517    1.447   .     S
C514   O538    1.292   .     A
C515   C517    1.398   .     A
C515   Br541   1.940   .     S
C515   C525    1.413   .     A
C516   C518    1.398   .     A
C516   C526    1.413   .     A
C516   Br542   1.940   .     S
C517   C519    1.389   .     A
C518   C520    1.389   .     A
C519   F543    1.358   .     S
C519   C521    1.402   .     A
C520   F544    1.358   .     S
C520   C522    1.402   .     A
C521   C523    1.424   .     A
C521   C527    1.413   .     A
C522   C524    1.424   .     A
C522   C528    1.413   .     A
C523   C525    1.426   .     A
C523   C478    1.416   1_655 S
C524   C526    1.426   .     A
C527   Br545   1.935   .     S
C527   C463    1.390   1_655 S
C528   Br546   1.935   .     S
Cu529  Cu530   2.687   .     S
Cu529  O533    1.970   .     S
Cu529  O540    1.955   .     S
Cu529  O536    1.966   .     S
Cu529  N532    2.019   .     S
Cu529  O537    1.965   .     S
Cu530  O538    1.965   .     S
Cu530  O539    1.955   .     S
Cu530  N531    2.019   .     S
Cu530  O535    1.966   .     S
Cu530  O534    1.970   .     S
N532   N807    1.293   .     S
N532   F828    1.335   .     S
Br549  C327    1.949   1_565 S
F551   N807    1.335   .     S
C553   O581    1.290   .     A
C553   C557    1.427   .     S
C553   O579    1.287   .     A
C554   O580    1.287   .     A
C554   O582    1.290   .     A
C554   C558    1.427   .     S
C555   C572    1.410   .     A
C555   F593    1.356   .     S
C555   C619    1.390   1_455 S
C556   F594    1.356   .     S
C556   C571    1.410   .     A
C556   C620    1.390   .     S
C557   C742    1.353   1_545 S
C557   Br779   1.949   1_545 S
C558   C649    1.353   .     S
C558   Br688   1.949   .     S
C559   O585    1.291   .     A
C559   C564    1.447   .     S
C559   O583    1.292   .     A
C560   O586    1.291   .     A
C560   C563    1.447   .     S
C560   O584    1.292   .     A
C561   C563    1.398   .     A
C561   Br587   1.940   .     S
C561   C571    1.413   .     A
C562   C564    1.398   .     A
C562   C572    1.413   .     A
C562   Br588   1.940   .     S
C563   C565    1.389   .     A
C564   C566    1.389   .     A
C565   F589    1.358   .     S
C565   C567    1.402   .     A
C566   F590    1.358   .     S
C566   C568    1.402   .     A
C567   C569    1.424   .     A
C567   C573    1.413   .     A
C568   C570    1.424   .     A
C568   C574    1.413   .     A
C569   C571    1.426   .     A
C569   C616    1.416   .     S
C570   C572    1.426   .     A
C570   C615    1.416   1_455 S
C573   Br591   1.935   .     S
C573   C601    1.390   .     S
C574   Br592   1.935   .     S
C574   C602    1.390   1_455 S
Cu575  Cu576   2.687   .     S
Cu575  O579    1.970   .     S
Cu575  O586    1.955   .     S
Cu575  O582    1.966   .     S
Cu575  N578    2.019   .     S
Cu575  O583    1.965   .     S
Cu576  O584    1.965   .     S
Cu576  O585    1.955   .     S
Cu576  N577    2.019   .     S
Cu576  O581    1.966   .     S
Cu576  O580    1.970   .     S
N578   N25     1.293   1_556 S
N578   F46     1.335   1_556 S
Br595  C649    1.949   .     S
Br596  C742    1.949   1_545 S
F597   N25     1.335   1_556 S
C599   O627    1.290   .     A
C599   C603    1.427   .     S
C599   O625    1.287   .     A
C600   O626    1.287   .     A
C600   O628    1.290   .     A
C600   C604    1.427   .     S
C601   C618    1.410   .     A
C601   F639    1.356   .     S
C602   F640    1.356   .     S
C602   C617    1.410   .     A
C602   C574    1.390   1_655 S
C603   C788    1.353   1_545 S
C603   Br825   1.949   1_545 S
C604   C695    1.353   .     S
C604   Br734   1.949   .     S
C605   O631    1.291   .     A
C605   C610    1.447   .     S
C605   O629    1.292   .     A
C606   O632    1.291   .     A
C606   C609    1.447   .     S
C606   O630    1.292   .     A
C607   C609    1.398   .     A
C607   Br633   1.940   .     S
C607   C617    1.413   .     A
C608   C610    1.398   .     A
C608   C618    1.413   .     A
C608   Br634   1.940   .     S
C609   C611    1.389   .     A
C610   C612    1.389   .     A
C611   F635    1.358   .     S
C611   C613    1.402   .     A
C612   F636    1.358   .     S
C612   C614    1.402   .     A
C613   C615    1.424   .     A
C613   C619    1.413   .     A
C614   C616    1.424   .     A
C614   C620    1.413   .     A
C615   C617    1.426   .     A
C615   C570    1.416   1_655 S
C616   C618    1.426   .     A
C619   Br637   1.935   .     S
C619   C555    1.390   1_655 S
C620   Br638   1.935   .     S
Cu621  Cu622   2.687   .     S
Cu621  O625    1.970   .     S
Cu621  O632    1.955   .     S
Cu621  O628    1.966   .     S
Cu621  N624    2.019   .     S
Cu621  O629    1.965   .     S
Cu622  O630    1.965   .     S
Cu622  O631    1.955   .     S
Cu622  N623    2.019   .     S
Cu622  O627    1.966   .     S
Cu622  O626    1.970   .     S
N624   N71     1.293   1_556 S
N624   F92     1.335   1_556 S
Br641  C695    1.949   .     S
Br642  C788    1.949   1_545 S
F643   N71     1.335   1_556 S
C645   O673    1.290   .     A
C645   C649    1.427   .     S
C645   O671    1.287   .     A
C646   O672    1.287   .     A
C646   O674    1.290   .     A
C646   C650    1.427   .     S
C647   C664    1.410   .     A
C647   F685    1.356   .     S
C647   C711    1.390   1_455 S
C648   F686    1.356   .     S
C648   C663    1.410   .     A
C648   C712    1.390   .     S
C650   C741    1.353   .     S
C650   Br780   1.949   .     S
C651   O677    1.291   .     A
C651   C656    1.447   .     S
C651   O675    1.292   .     A
C652   O678    1.291   .     A
C652   C655    1.447   .     S
C652   O676    1.292   .     A
C653   C655    1.398   .     A
C653   Br679   1.940   .     S
C653   C663    1.413   .     A
C654   C656    1.398   .     A
C654   C664    1.413   .     A
C654   Br680   1.940   .     S
C655   C657    1.389   .     A
C656   C658    1.389   .     A
C657   F681    1.358   .     S
C657   C659    1.402   .     A
C658   F682    1.358   .     S
C658   C660    1.402   .     A
C659   C661    1.424   .     A
C659   C665    1.413   .     A
C660   C662    1.424   .     A
C660   C666    1.413   .     A
C661   C663    1.426   .     A
C661   C708    1.416   .     S
C662   C664    1.426   .     A
C662   C707    1.416   1_455 S
C665   Br683   1.935   .     S
C665   C693    1.390   .     S
C666   Br684   1.935   .     S
C666   C694    1.390   1_455 S
Cu667  Cu668   2.687   .     S
Cu667  O671    1.970   .     S
Cu667  O678    1.955   .     S
Cu667  O674    1.966   .     S
Cu667  N670    2.019   .     S
Cu667  O675    1.965   .     S
Cu668  O676    1.965   .     S
Cu668  O677    1.955   .     S
Cu668  N669    2.019   .     S
Cu668  O673    1.966   .     S
Cu668  O672    1.970   .     S
N670   N117    1.293   1_556 S
N670   F138    1.335   1_556 S
Br687  C741    1.949   .     S
F689   N117    1.335   1_556 S
C691   O719    1.290   .     A
C691   C695    1.427   .     S
C691   O717    1.287   .     A
C692   O718    1.287   .     A
C692   O720    1.290   .     A
C692   C696    1.427   .     S
C693   C710    1.410   .     A
C693   F731    1.356   .     S
C694   F732    1.356   .     S
C694   C709    1.410   .     A
C694   C666    1.390   1_655 S
C696   C787    1.353   .     S
C696   Br826   1.949   .     S
C697   O723    1.291   .     A
C697   C702    1.447   .     S
C697   O721    1.292   .     A
C698   O724    1.291   .     A
C698   C701    1.447   .     S
C698   O722    1.292   .     A
C699   C701    1.398   .     A
C699   Br725   1.940   .     S
C699   C709    1.413   .     A
C700   C702    1.398   .     A
C700   C710    1.413   .     A
C700   Br726   1.940   .     S
C701   C703    1.389   .     A
C702   C704    1.389   .     A
C703   F727    1.358   .     S
C703   C705    1.402   .     A
C704   F728    1.358   .     S
C704   C706    1.402   .     A
C705   C707    1.424   .     A
C705   C711    1.413   .     A
C706   C708    1.424   .     A
C706   C712    1.413   .     A
C707   C709    1.426   .     A
C707   C662    1.416   1_655 S
C708   C710    1.426   .     A
C711   Br729   1.935   .     S
C711   C647    1.390   1_655 S
C712   Br730   1.935   .     S
Cu713  Cu714   2.687   .     S
Cu713  O717    1.970   .     S
Cu713  O724    1.955   .     S
Cu713  O720    1.966   .     S
Cu713  N716    2.019   .     S
Cu713  O721    1.965   .     S
Cu714  O722    1.965   .     S
Cu714  O723    1.955   .     S
Cu714  N715    2.019   .     S
Cu714  O719    1.966   .     S
Cu714  O718    1.970   .     S
N716   N163    1.293   1_556 S
N716   F184    1.335   1_556 S
Br733  C787    1.949   .     S
F735   N163    1.335   1_556 S
C737   O765    1.290   .     A
C737   C741    1.427   .     S
C737   O763    1.287   .     A
C738   O764    1.287   .     A
C738   O766    1.290   .     A
C738   C742    1.427   .     S
C739   C756    1.410   .     A
C739   F777    1.356   .     S
C739   C803    1.390   1_455 S
C740   F778    1.356   .     S
C740   C755    1.410   .     A
C740   C804    1.390   .     S
C742   C557    1.353   1_565 S
C742   Br596   1.949   1_565 S
C743   O769    1.291   .     A
C743   C748    1.447   .     S
C743   O767    1.292   .     A
C744   O770    1.291   .     A
C744   C747    1.447   .     S
C744   O768    1.292   .     A
C745   C747    1.398   .     A
C745   Br771   1.940   .     S
C745   C755    1.413   .     A
C746   C748    1.398   .     A
C746   C756    1.413   .     A
C746   Br772   1.940   .     S
C747   C749    1.389   .     A
C748   C750    1.389   .     A
C749   F773    1.358   .     S
C749   C751    1.402   .     A
C750   F774    1.358   .     S
C750   C752    1.402   .     A
C751   C753    1.424   .     A
C751   C757    1.413   .     A
C752   C754    1.424   .     A
C752   C758    1.413   .     A
C753   C755    1.426   .     A
C753   C800    1.416   .     S
C754   C756    1.426   .     A
C754   C799    1.416   1_455 S
C757   Br775   1.935   .     S
C757   C785    1.390   .     S
C758   Br776   1.935   .     S
C758   C786    1.390   1_455 S
Cu759  Cu760   2.687   .     S
Cu759  O763    1.970   .     S
Cu759  O770    1.955   .     S
Cu759  O766    1.966   .     S
Cu759  N762    2.019   .     S
Cu759  O767    1.965   .     S
Cu760  O768    1.965   .     S
Cu760  O769    1.955   .     S
Cu760  N761    2.019   .     S
Cu760  O765    1.966   .     S
Cu760  O764    1.970   .     S
N762   N209    1.293   1_556 S
N762   F230    1.335   1_556 S
Br779  C557    1.949   1_565 S
F781   N209    1.335   1_556 S
C783   O811    1.290   .     A
C783   C787    1.427   .     S
C783   O809    1.287   .     A
C784   O810    1.287   .     A
C784   O812    1.290   .     A
C784   C788    1.427   .     S
C785   C802    1.410   .     A
C785   F823    1.356   .     S
C786   F824    1.356   .     S
C786   C801    1.410   .     A
C786   C758    1.390   1_655 S
C788   C603    1.353   1_565 S
C788   Br642   1.949   1_565 S
C789   O815    1.291   .     A
C789   C794    1.447   .     S
C789   O813    1.292   .     A
C790   O816    1.291   .     A
C790   C793    1.447   .     S
C790   O814    1.292   .     A
C791   C793    1.398   .     A
C791   Br817   1.940   .     S
C791   C801    1.413   .     A
C792   C794    1.398   .     A
C792   C802    1.413   .     A
C792   Br818   1.940   .     S
C793   C795    1.389   .     A
C794   C796    1.389   .     A
C795   F819    1.358   .     S
C795   C797    1.402   .     A
C796   F820    1.358   .     S
C796   C798    1.402   .     A
C797   C799    1.424   .     A
C797   C803    1.413   .     A
C798   C800    1.424   .     A
C798   C804    1.413   .     A
C799   C801    1.426   .     A
C799   C754    1.416   1_655 S
C800   C802    1.426   .     A
C803   Br821   1.935   .     S
C803   C739    1.390   1_655 S
C804   Br822   1.935   .     S
Cu805  Cu806   2.687   .     S
Cu805  O809    1.970   .     S
Cu805  O816    1.955   .     S
Cu805  O812    1.966   .     S
Cu805  N808    2.019   .     S
Cu805  O813    1.965   .     S
Cu806  O814    1.965   .     S
Cu806  O815    1.955   .     S
Cu806  N807    2.019   .     S
Cu806  O811    1.966   .     S
Cu806  O810    1.970   .     S
N808   N255    1.293   1_556 S
N808   F276    1.335   1_556 S
Br825  C603    1.949   1_565 S
F827   N255    1.335   1_556 S
