data_str_m2_o1_o18_pcu_sym.104
_audit_creation_date              2020-01-03
_audit_creation_method            'Materials Studio'
_symmetry_space_group_name_H-M    'P1'
_symmetry_Int_Tables_number       1
_symmetry_cell_setting            triclinic
loop_
_symmetry_equiv_pos_as_xyz
  x,y,z
_cell_length_a                    28.9484
_cell_length_b                    32.2661
_cell_length_c                    30.7111
_cell_angle_alpha                 87.9853
_cell_angle_beta                  74.1970
_cell_angle_gamma                 89.4715
loop_
_atom_site_label
_atom_site_type_symbol
_atom_site_fract_x
_atom_site_fract_y
_atom_site_fract_z
_atom_site_U_iso_or_equiv
_atom_site_adp_type
_atom_site_occupancy
O1     O     0.03958   0.10655   0.25000   0.00000  Uiso   1.00
O2     O     0.29375   0.22678   0.25000   0.00000  Uiso   1.00
O3     O     0.29372   0.10654   0.25000   0.00000  Uiso   1.00
O4     O     0.03961   0.22679   0.24999   0.00000  Uiso   1.00
C5     C     0.00045   0.08764   0.24892   0.00000  Uiso   1.00
C6     C     0.33291   0.24570   0.25102   0.00000  Uiso   1.00
O7     O     0.01852   0.16668   0.31491   0.00000  Uiso   1.00
O8     O     0.31481   0.16666   0.18508   0.00000  Uiso   1.00
O9     O     0.27267   0.16667   0.31492   0.00000  Uiso   1.00
O10    O     0.06067   0.16667   0.18508   0.00000  Uiso   1.00
C11    C     0.30611   0.16565   0.33621   0.00000  Uiso   1.00
C12    C     0.02742   0.16730   0.16379   0.00000  Uiso   1.00
Cu13   Cu    0.04689   0.16667   0.25000   0.00000  Uiso   1.00
Cu14   Cu    0.28645   0.16666   0.25000   0.00000  Uiso   1.00
C15    C     0.29156   0.16294   0.38601   0.00000  Uiso   1.00
C16    C     0.04365   0.17417   0.11437   0.00000  Uiso   1.00
C17    C     0.30862   0.14408   0.45685   0.00000  Uiso   1.00
C18    C     0.03884   0.21420   0.04808   0.00000  Uiso   1.00
C19    C     0.32427   0.15096   0.41019   0.00000  Uiso   1.00
C20    C     0.01805   0.20014   0.09227   0.00000  Uiso   1.00
C21    C     0.24414   0.17148   0.40971   0.00000  Uiso   1.00
C22    C     0.08966   0.16113   0.09101   0.00000  Uiso   1.00
C23    C     0.22952   0.17083   0.45740   0.00000  Uiso   1.00
C24    C     0.11444   0.17957   0.04878   0.00000  Uiso   1.00
C25    C     0.26058   0.15205   0.48067   0.00000  Uiso   1.00
C26    C     0.08722   0.20510   0.02621   0.00000  Uiso   1.00
C27    C     0.18380   0.18603   0.48187   0.00000  Uiso   1.00
C28    C     0.16465   0.17270   0.02801   0.00000  Uiso   1.00
C29    C     0.19698   0.15407   0.05126   0.00000  Uiso   1.00
C30    C     0.15755   0.21550   0.46212   0.00000  Uiso   1.00
C31    C     0.24391   0.14265   0.02721   0.00000  Uiso   1.00
C32    C     0.10898   0.22316   0.48338   0.00000  Uiso   1.00
H33    H     0.10510   0.13658   0.10703   0.00000  Uiso   1.00
H34    H     0.21849   0.17811   0.39060   0.00000  Uiso   1.00
H35    H     0.31580   0.21051   0.10941   0.00000  Uiso   1.00
H36    H     0.02815   0.14523   0.39303   0.00000  Uiso   1.00
H37    H     0.00126   0.13301   0.47408   0.00000  Uiso   1.00
H38    H     0.01742   0.23417   0.03226   0.00000  Uiso   1.00
C39    C     0.31888   0.02175   0.21491   0.00000  Uiso   1.00
C40    C     0.01460   0.31162   0.28487   0.00000  Uiso   1.00
C41    C     0.31804   0.31198   0.21768   0.00000  Uiso   1.00
C42    C     0.01555   0.02138   0.28204   0.00000  Uiso   1.00
H43    H     0.30801   0.29492   0.19185   0.00000  Uiso   1.00
H44    H     0.02573   0.03844   0.30778   0.00000  Uiso   1.00
C45    C     0.33230   0.29036   0.25206   0.00000  Uiso   1.00
C46    C     0.00113   0.04299   0.24776   0.00000  Uiso   1.00
C47    C     0.18575   0.13485   0.27053   0.00000  Uiso   1.00
C48    C     0.14724   0.19931   0.23097   0.00000  Uiso   1.00
C49    C     0.13677   0.13445   0.26969   0.00000  Uiso   1.00
C50    C     0.19652   0.19898   0.23057   0.00000  Uiso   1.00
N51    N     0.11736   0.16668   0.24999   0.00000  Uiso   1.00
N52    N     0.21597   0.16666   0.25001   0.00000  Uiso   1.00
N53    N     0.27389   0.11934   0.04971   0.00000  Uiso   1.00
O54    O     0.28550   0.13418   0.08411   0.00000  Uiso   1.00
O55    O     0.28801   0.08224   0.03682   0.00000  Uiso   1.00
N56    N     0.08209   0.25095   0.46210   0.00000  Uiso   1.00
O57    O     0.08782   0.29084   0.46285   0.00000  Uiso   1.00
O58    O     0.05057   0.23636   0.44347   0.00000  Uiso   1.00
C59    C     0.18679   0.15263   0.10112   0.00000  Uiso   1.00
O60    O     0.18053   0.18494   0.12136   0.00000  Uiso   1.00
O61    O     0.18586   0.11463   0.12471   0.00000  Uiso   1.00
H62    H     0.17903   0.11793   0.15859   0.00000  Uiso   1.00
C63    C     0.18178   0.24342   0.42306   0.00000  Uiso   1.00
O64    O     0.21941   0.26055   0.42268   0.00000  Uiso   1.00
O65    O     0.16171   0.24992   0.38677   0.00000  Uiso   1.00
H66    H     0.18172   0.26928   0.36227   0.00000  Uiso   1.00
C67    C     0.30494   0.04298   0.17660   0.00000  Uiso   1.00
O68    O     0.32269   0.07636   0.16098   0.00000  Uiso   1.00
O69    O     0.27229   0.02399   0.15738   0.00000  Uiso   1.00
H70    H     0.26572   0.04125   0.13149   0.00000  Uiso   1.00
C71    C     0.02865   0.29046   0.32314   0.00000  Uiso   1.00
O72    O     0.01075   0.25720   0.33902   0.00000  Uiso   1.00
O73    O     0.06165   0.30939   0.34197   0.00000  Uiso   1.00
H74    H     0.06841   0.29219   0.36780   0.00000  Uiso   1.00
N75    N     0.20231   0.10260   0.29566   0.00000  Uiso   1.00
O76    O     0.20854   0.06538   0.28009   0.00000  Uiso   1.00
O77    O     0.19997   0.10785   0.33799   0.00000  Uiso   1.00
N78    N     0.12909   0.23538   0.21262   0.00000  Uiso   1.00
O79    O     0.12599   0.27038   0.23302   0.00000  Uiso   1.00
O80    O     0.11763   0.23420   0.17461   0.00000  Uiso   1.00
N81    N     0.10769   0.09997   0.29070   0.00000  Uiso   1.00
O82    O     0.11571   0.06391   0.27242   0.00000  Uiso   1.00
O83    O     0.08149   0.10220   0.33226   0.00000  Uiso   1.00
N84    N     0.22541   0.23365   0.20992   0.00000  Uiso   1.00
O85    O     0.22023   0.26833   0.23111   0.00000  Uiso   1.00
O86    O     0.24480   0.23445   0.16648   0.00000  Uiso   1.00
O87    O     0.37291   0.10655   0.25000   0.00000  Uiso   1.00
O88    O     0.62709   0.22678   0.25000   0.00000  Uiso   1.00
O89    O     0.62706   0.10654   0.25000   0.00000  Uiso   1.00
O90    O     0.37294   0.22679   0.24999   0.00000  Uiso   1.00
C91    C     0.33378   0.08764   0.24892   0.00000  Uiso   1.00
C92    C     0.66624   0.24570   0.25102   0.00000  Uiso   1.00
O93    O     0.35186   0.16668   0.31491   0.00000  Uiso   1.00
O94    O     0.64814   0.16666   0.18508   0.00000  Uiso   1.00
O95    O     0.60600   0.16667   0.31492   0.00000  Uiso   1.00
O96    O     0.39400   0.16667   0.18508   0.00000  Uiso   1.00
C97    C     0.63944   0.16565   0.33621   0.00000  Uiso   1.00
C98    C     0.36075   0.16730   0.16379   0.00000  Uiso   1.00
Cu99   Cu    0.38022   0.16667   0.25000   0.00000  Uiso   1.00
Cu100  Cu    0.61978   0.16666   0.25000   0.00000  Uiso   1.00
C101   C     0.62489   0.16294   0.38601   0.00000  Uiso   1.00
C102   C     0.37699   0.17417   0.11437   0.00000  Uiso   1.00
C103   C     0.64195   0.14408   0.45685   0.00000  Uiso   1.00
C104   C     0.37218   0.21420   0.04808   0.00000  Uiso   1.00
C105   C     0.65760   0.15096   0.41019   0.00000  Uiso   1.00
C106   C     0.35139   0.20014   0.09227   0.00000  Uiso   1.00
C107   C     0.57747   0.17148   0.40971   0.00000  Uiso   1.00
C108   C     0.42299   0.16113   0.09101   0.00000  Uiso   1.00
C109   C     0.56285   0.17083   0.45740   0.00000  Uiso   1.00
C110   C     0.44778   0.17957   0.04878   0.00000  Uiso   1.00
C111   C     0.59392   0.15205   0.48067   0.00000  Uiso   1.00
C112   C     0.42055   0.20510   0.02621   0.00000  Uiso   1.00
C113   C     0.51713   0.18603   0.48187   0.00000  Uiso   1.00
C114   C     0.49798   0.17270   0.02801   0.00000  Uiso   1.00
C115   C     0.53032   0.15407   0.05126   0.00000  Uiso   1.00
C116   C     0.49089   0.21550   0.46212   0.00000  Uiso   1.00
C117   C     0.57724   0.14265   0.02721   0.00000  Uiso   1.00
C118   C     0.44231   0.22316   0.48338   0.00000  Uiso   1.00
H119   H     0.43843   0.13658   0.10703   0.00000  Uiso   1.00
H120   H     0.55182   0.17811   0.39060   0.00000  Uiso   1.00
H121   H     0.64913   0.21051   0.10941   0.00000  Uiso   1.00
H122   H     0.36148   0.14523   0.39303   0.00000  Uiso   1.00
H123   H     0.33460   0.13301   0.47408   0.00000  Uiso   1.00
H124   H     0.35075   0.23417   0.03226   0.00000  Uiso   1.00
C125   C     0.65222   0.02175   0.21491   0.00000  Uiso   1.00
C126   C     0.34793   0.31162   0.28487   0.00000  Uiso   1.00
C127   C     0.65137   0.31198   0.21768   0.00000  Uiso   1.00
C128   C     0.34888   0.02138   0.28204   0.00000  Uiso   1.00
H129   H     0.64134   0.29492   0.19185   0.00000  Uiso   1.00
H130   H     0.35907   0.03844   0.30778   0.00000  Uiso   1.00
C131   C     0.66563   0.29036   0.25206   0.00000  Uiso   1.00
C132   C     0.33447   0.04299   0.24776   0.00000  Uiso   1.00
C133   C     0.51909   0.13485   0.27053   0.00000  Uiso   1.00
C134   C     0.48058   0.19931   0.23097   0.00000  Uiso   1.00
C135   C     0.47010   0.13445   0.26969   0.00000  Uiso   1.00
C136   C     0.52985   0.19898   0.23057   0.00000  Uiso   1.00
N137   N     0.45069   0.16668   0.24999   0.00000  Uiso   1.00
N138   N     0.54931   0.16666   0.25001   0.00000  Uiso   1.00
N139   N     0.60722   0.11934   0.04971   0.00000  Uiso   1.00
O140   O     0.61883   0.13418   0.08411   0.00000  Uiso   1.00
O141   O     0.62134   0.08224   0.03682   0.00000  Uiso   1.00
N142   N     0.41542   0.25095   0.46210   0.00000  Uiso   1.00
O143   O     0.42115   0.29084   0.46285   0.00000  Uiso   1.00
O144   O     0.38390   0.23636   0.44347   0.00000  Uiso   1.00
C145   C     0.52012   0.15263   0.10112   0.00000  Uiso   1.00
O146   O     0.51386   0.18494   0.12136   0.00000  Uiso   1.00
O147   O     0.51919   0.11463   0.12471   0.00000  Uiso   1.00
H148   H     0.51236   0.11793   0.15859   0.00000  Uiso   1.00
C149   C     0.51511   0.24342   0.42306   0.00000  Uiso   1.00
O150   O     0.55275   0.26055   0.42268   0.00000  Uiso   1.00
O151   O     0.49505   0.24992   0.38677   0.00000  Uiso   1.00
H152   H     0.51505   0.26928   0.36227   0.00000  Uiso   1.00
C153   C     0.63827   0.04298   0.17660   0.00000  Uiso   1.00
O154   O     0.65602   0.07636   0.16098   0.00000  Uiso   1.00
O155   O     0.60562   0.02399   0.15738   0.00000  Uiso   1.00
H156   H     0.59905   0.04125   0.13149   0.00000  Uiso   1.00
C157   C     0.36198   0.29046   0.32314   0.00000  Uiso   1.00
O158   O     0.34408   0.25720   0.33902   0.00000  Uiso   1.00
O159   O     0.39499   0.30939   0.34197   0.00000  Uiso   1.00
H160   H     0.40174   0.29219   0.36780   0.00000  Uiso   1.00
N161   N     0.53564   0.10260   0.29566   0.00000  Uiso   1.00
O162   O     0.54188   0.06538   0.28009   0.00000  Uiso   1.00
O163   O     0.53330   0.10785   0.33799   0.00000  Uiso   1.00
N164   N     0.46242   0.23538   0.21262   0.00000  Uiso   1.00
O165   O     0.45932   0.27038   0.23302   0.00000  Uiso   1.00
O166   O     0.45096   0.23420   0.17461   0.00000  Uiso   1.00
N167   N     0.44103   0.09997   0.29070   0.00000  Uiso   1.00
O168   O     0.44904   0.06391   0.27242   0.00000  Uiso   1.00
O169   O     0.41482   0.10220   0.33226   0.00000  Uiso   1.00
N170   N     0.55874   0.23365   0.20992   0.00000  Uiso   1.00
O171   O     0.55356   0.26833   0.23111   0.00000  Uiso   1.00
O172   O     0.57813   0.23445   0.16648   0.00000  Uiso   1.00
O173   O     0.70625   0.10655   0.25000   0.00000  Uiso   1.00
O174   O     0.96042   0.22678   0.25000   0.00000  Uiso   1.00
O175   O     0.96039   0.10654   0.25000   0.00000  Uiso   1.00
O176   O     0.70628   0.22679   0.24999   0.00000  Uiso   1.00
C177   C     0.66712   0.08764   0.24892   0.00000  Uiso   1.00
C178   C     0.99957   0.24570   0.25102   0.00000  Uiso   1.00
O179   O     0.68519   0.16668   0.31491   0.00000  Uiso   1.00
O180   O     0.98148   0.16666   0.18508   0.00000  Uiso   1.00
O181   O     0.93933   0.16667   0.31492   0.00000  Uiso   1.00
O182   O     0.72733   0.16667   0.18508   0.00000  Uiso   1.00
C183   C     0.97277   0.16565   0.33621   0.00000  Uiso   1.00
C184   C     0.69408   0.16730   0.16379   0.00000  Uiso   1.00
Cu185  Cu    0.71355   0.16667   0.25000   0.00000  Uiso   1.00
Cu186  Cu    0.95311   0.16666   0.25000   0.00000  Uiso   1.00
C187   C     0.95822   0.16294   0.38601   0.00000  Uiso   1.00
C188   C     0.71032   0.17417   0.11437   0.00000  Uiso   1.00
C189   C     0.97529   0.14408   0.45685   0.00000  Uiso   1.00
C190   C     0.70551   0.21420   0.04808   0.00000  Uiso   1.00
C191   C     0.99094   0.15096   0.41019   0.00000  Uiso   1.00
C192   C     0.68472   0.20014   0.09227   0.00000  Uiso   1.00
C193   C     0.91080   0.17148   0.40971   0.00000  Uiso   1.00
C194   C     0.75633   0.16113   0.09101   0.00000  Uiso   1.00
C195   C     0.89619   0.17083   0.45740   0.00000  Uiso   1.00
C196   C     0.78111   0.17957   0.04878   0.00000  Uiso   1.00
C197   C     0.92725   0.15205   0.48067   0.00000  Uiso   1.00
C198   C     0.75388   0.20510   0.02621   0.00000  Uiso   1.00
C199   C     0.85046   0.18603   0.48187   0.00000  Uiso   1.00
C200   C     0.83131   0.17270   0.02801   0.00000  Uiso   1.00
C201   C     0.86365   0.15407   0.05126   0.00000  Uiso   1.00
C202   C     0.82422   0.21550   0.46212   0.00000  Uiso   1.00
C203   C     0.91057   0.14265   0.02721   0.00000  Uiso   1.00
C204   C     0.77564   0.22316   0.48338   0.00000  Uiso   1.00
H205   H     0.77176   0.13658   0.10703   0.00000  Uiso   1.00
H206   H     0.88515   0.17811   0.39060   0.00000  Uiso   1.00
H207   H     0.98247   0.21051   0.10941   0.00000  Uiso   1.00
H208   H     0.69482   0.14523   0.39303   0.00000  Uiso   1.00
H209   H     0.66793   0.13301   0.47408   0.00000  Uiso   1.00
H210   H     0.68408   0.23417   0.03226   0.00000  Uiso   1.00
C211   C     0.98555   0.02175   0.21491   0.00000  Uiso   1.00
C212   C     0.68126   0.31162   0.28487   0.00000  Uiso   1.00
C213   C     0.98471   0.31198   0.21768   0.00000  Uiso   1.00
C214   C     0.68222   0.02138   0.28204   0.00000  Uiso   1.00
H215   H     0.97467   0.29492   0.19185   0.00000  Uiso   1.00
H216   H     0.69240   0.03844   0.30778   0.00000  Uiso   1.00
C217   C     0.99896   0.29036   0.25206   0.00000  Uiso   1.00
C218   C     0.66780   0.04299   0.24776   0.00000  Uiso   1.00
C219   C     0.85242   0.13485   0.27053   0.00000  Uiso   1.00
C220   C     0.81391   0.19931   0.23097   0.00000  Uiso   1.00
C221   C     0.80344   0.13445   0.26969   0.00000  Uiso   1.00
C222   C     0.86319   0.19898   0.23057   0.00000  Uiso   1.00
N223   N     0.78403   0.16668   0.24999   0.00000  Uiso   1.00
N224   N     0.88264   0.16666   0.25001   0.00000  Uiso   1.00
N225   N     0.94056   0.11934   0.04971   0.00000  Uiso   1.00
O226   O     0.95216   0.13418   0.08411   0.00000  Uiso   1.00
O227   O     0.95467   0.08224   0.03682   0.00000  Uiso   1.00
N228   N     0.74876   0.25095   0.46210   0.00000  Uiso   1.00
O229   O     0.75449   0.29084   0.46285   0.00000  Uiso   1.00
O230   O     0.71724   0.23636   0.44347   0.00000  Uiso   1.00
C231   C     0.85346   0.15263   0.10112   0.00000  Uiso   1.00
O232   O     0.84719   0.18494   0.12136   0.00000  Uiso   1.00
O233   O     0.85252   0.11463   0.12471   0.00000  Uiso   1.00
H234   H     0.84570   0.11793   0.15859   0.00000  Uiso   1.00
C235   C     0.84844   0.24342   0.42306   0.00000  Uiso   1.00
O236   O     0.88608   0.26055   0.42268   0.00000  Uiso   1.00
O237   O     0.82838   0.24992   0.38677   0.00000  Uiso   1.00
H238   H     0.84839   0.26928   0.36227   0.00000  Uiso   1.00
C239   C     0.97161   0.04298   0.17660   0.00000  Uiso   1.00
O240   O     0.98935   0.07636   0.16098   0.00000  Uiso   1.00
O241   O     0.93896   0.02399   0.15738   0.00000  Uiso   1.00
H242   H     0.93238   0.04125   0.13149   0.00000  Uiso   1.00
C243   C     0.69531   0.29046   0.32314   0.00000  Uiso   1.00
O244   O     0.67742   0.25720   0.33902   0.00000  Uiso   1.00
O245   O     0.72832   0.30939   0.34197   0.00000  Uiso   1.00
H246   H     0.73508   0.29219   0.36780   0.00000  Uiso   1.00
N247   N     0.86897   0.10260   0.29566   0.00000  Uiso   1.00
O248   O     0.87521   0.06538   0.28009   0.00000  Uiso   1.00
O249   O     0.86663   0.10785   0.33799   0.00000  Uiso   1.00
N250   N     0.79576   0.23538   0.21262   0.00000  Uiso   1.00
O251   O     0.79266   0.27038   0.23302   0.00000  Uiso   1.00
O252   O     0.78429   0.23420   0.17461   0.00000  Uiso   1.00
N253   N     0.77436   0.09997   0.29070   0.00000  Uiso   1.00
O254   O     0.78237   0.06391   0.27242   0.00000  Uiso   1.00
O255   O     0.74815   0.10220   0.33226   0.00000  Uiso   1.00
N256   N     0.89207   0.23365   0.20992   0.00000  Uiso   1.00
O257   O     0.88689   0.26833   0.23111   0.00000  Uiso   1.00
O258   O     0.91146   0.23445   0.16648   0.00000  Uiso   1.00
O259   O     0.03958   0.43989   0.25000   0.00000  Uiso   1.00
O260   O     0.29375   0.56011   0.25000   0.00000  Uiso   1.00
O261   O     0.29372   0.43988   0.25000   0.00000  Uiso   1.00
O262   O     0.03961   0.56012   0.24999   0.00000  Uiso   1.00
C263   C     0.00045   0.42097   0.24892   0.00000  Uiso   1.00
C264   C     0.33291   0.57904   0.25102   0.00000  Uiso   1.00
O265   O     0.01852   0.50001   0.31491   0.00000  Uiso   1.00
O266   O     0.31481   0.49999   0.18508   0.00000  Uiso   1.00
O267   O     0.27267   0.50000   0.31492   0.00000  Uiso   1.00
O268   O     0.06067   0.50000   0.18508   0.00000  Uiso   1.00
C269   C     0.30611   0.49898   0.33621   0.00000  Uiso   1.00
C270   C     0.02742   0.50064   0.16379   0.00000  Uiso   1.00
Cu271  Cu    0.04689   0.50001   0.25000   0.00000  Uiso   1.00
Cu272  Cu    0.28645   0.49999   0.25000   0.00000  Uiso   1.00
C273   C     0.29156   0.49627   0.38601   0.00000  Uiso   1.00
C274   C     0.04365   0.50751   0.11437   0.00000  Uiso   1.00
C275   C     0.30862   0.47741   0.45685   0.00000  Uiso   1.00
C276   C     0.03884   0.54753   0.04808   0.00000  Uiso   1.00
C277   C     0.32427   0.48429   0.41019   0.00000  Uiso   1.00
C278   C     0.01805   0.53347   0.09227   0.00000  Uiso   1.00
C279   C     0.24414   0.50482   0.40971   0.00000  Uiso   1.00
C280   C     0.08966   0.49446   0.09101   0.00000  Uiso   1.00
C281   C     0.22952   0.50417   0.45740   0.00000  Uiso   1.00
C282   C     0.11444   0.51291   0.04878   0.00000  Uiso   1.00
C283   C     0.26058   0.48538   0.48067   0.00000  Uiso   1.00
C284   C     0.08722   0.53844   0.02621   0.00000  Uiso   1.00
C285   C     0.18380   0.51936   0.48187   0.00000  Uiso   1.00
C286   C     0.16465   0.50604   0.02801   0.00000  Uiso   1.00
C287   C     0.19698   0.48740   0.05126   0.00000  Uiso   1.00
C288   C     0.15755   0.54883   0.46212   0.00000  Uiso   1.00
C289   C     0.24391   0.47598   0.02721   0.00000  Uiso   1.00
C290   C     0.10898   0.55649   0.48338   0.00000  Uiso   1.00
H291   H     0.10510   0.46992   0.10703   0.00000  Uiso   1.00
H292   H     0.21849   0.51145   0.39060   0.00000  Uiso   1.00
H293   H     0.31580   0.54384   0.10941   0.00000  Uiso   1.00
H294   H     0.02815   0.47856   0.39303   0.00000  Uiso   1.00
H295   H     0.00126   0.46634   0.47408   0.00000  Uiso   1.00
H296   H     0.01742   0.56750   0.03226   0.00000  Uiso   1.00
C297   C     0.31888   0.35508   0.21491   0.00000  Uiso   1.00
C298   C     0.01460   0.64496   0.28487   0.00000  Uiso   1.00
C299   C     0.31804   0.64531   0.21768   0.00000  Uiso   1.00
C300   C     0.01555   0.35471   0.28204   0.00000  Uiso   1.00
H301   H     0.30801   0.62825   0.19185   0.00000  Uiso   1.00
H302   H     0.02573   0.37177   0.30778   0.00000  Uiso   1.00
C303   C     0.33230   0.62369   0.25206   0.00000  Uiso   1.00
C304   C     0.00113   0.37633   0.24776   0.00000  Uiso   1.00
C305   C     0.18575   0.46818   0.27053   0.00000  Uiso   1.00
C306   C     0.14724   0.53264   0.23097   0.00000  Uiso   1.00
C307   C     0.13677   0.46778   0.26969   0.00000  Uiso   1.00
C308   C     0.19652   0.53231   0.23057   0.00000  Uiso   1.00
N309   N     0.11736   0.50001   0.24999   0.00000  Uiso   1.00
N310   N     0.21597   0.49999   0.25001   0.00000  Uiso   1.00
N311   N     0.27389   0.45268   0.04971   0.00000  Uiso   1.00
O312   O     0.28550   0.46751   0.08411   0.00000  Uiso   1.00
O313   O     0.28801   0.41557   0.03682   0.00000  Uiso   1.00
N314   N     0.08209   0.58429   0.46210   0.00000  Uiso   1.00
O315   O     0.08782   0.62417   0.46285   0.00000  Uiso   1.00
O316   O     0.05057   0.56969   0.44347   0.00000  Uiso   1.00
C317   C     0.18679   0.48597   0.10112   0.00000  Uiso   1.00
O318   O     0.18053   0.51827   0.12136   0.00000  Uiso   1.00
O319   O     0.18586   0.44796   0.12471   0.00000  Uiso   1.00
H320   H     0.17903   0.45127   0.15859   0.00000  Uiso   1.00
C321   C     0.18178   0.57676   0.42306   0.00000  Uiso   1.00
O322   O     0.21941   0.59389   0.42268   0.00000  Uiso   1.00
O323   O     0.16171   0.58326   0.38677   0.00000  Uiso   1.00
H324   H     0.18172   0.60261   0.36227   0.00000  Uiso   1.00
C325   C     0.30494   0.37631   0.17660   0.00000  Uiso   1.00
O326   O     0.32269   0.40969   0.16098   0.00000  Uiso   1.00
O327   O     0.27229   0.35732   0.15738   0.00000  Uiso   1.00
H328   H     0.26572   0.37459   0.13149   0.00000  Uiso   1.00
C329   C     0.02865   0.62379   0.32314   0.00000  Uiso   1.00
O330   O     0.01075   0.59054   0.33902   0.00000  Uiso   1.00
O331   O     0.06165   0.64273   0.34197   0.00000  Uiso   1.00
H332   H     0.06841   0.62553   0.36780   0.00000  Uiso   1.00
N333   N     0.20231   0.43593   0.29566   0.00000  Uiso   1.00
O334   O     0.20854   0.39871   0.28009   0.00000  Uiso   1.00
O335   O     0.19997   0.44118   0.33799   0.00000  Uiso   1.00
N336   N     0.12909   0.56872   0.21262   0.00000  Uiso   1.00
O337   O     0.12599   0.60372   0.23302   0.00000  Uiso   1.00
O338   O     0.11763   0.56753   0.17461   0.00000  Uiso   1.00
N339   N     0.10769   0.43330   0.29070   0.00000  Uiso   1.00
O340   O     0.11571   0.39724   0.27242   0.00000  Uiso   1.00
O341   O     0.08149   0.43553   0.33226   0.00000  Uiso   1.00
N342   N     0.22541   0.56698   0.20992   0.00000  Uiso   1.00
O343   O     0.22023   0.60166   0.23111   0.00000  Uiso   1.00
O344   O     0.24480   0.56779   0.16648   0.00000  Uiso   1.00
O345   O     0.37291   0.43989   0.25000   0.00000  Uiso   1.00
O346   O     0.62709   0.56011   0.25000   0.00000  Uiso   1.00
O347   O     0.62706   0.43988   0.25000   0.00000  Uiso   1.00
O348   O     0.37294   0.56012   0.24999   0.00000  Uiso   1.00
C349   C     0.33378   0.42097   0.24892   0.00000  Uiso   1.00
C350   C     0.66624   0.57904   0.25102   0.00000  Uiso   1.00
O351   O     0.35186   0.50001   0.31491   0.00000  Uiso   1.00
O352   O     0.64814   0.49999   0.18508   0.00000  Uiso   1.00
O353   O     0.60600   0.50000   0.31492   0.00000  Uiso   1.00
O354   O     0.39400   0.50000   0.18508   0.00000  Uiso   1.00
C355   C     0.63944   0.49898   0.33621   0.00000  Uiso   1.00
C356   C     0.36075   0.50064   0.16379   0.00000  Uiso   1.00
Cu357  Cu    0.38022   0.50001   0.25000   0.00000  Uiso   1.00
Cu358  Cu    0.61978   0.49999   0.25000   0.00000  Uiso   1.00
C359   C     0.62489   0.49627   0.38601   0.00000  Uiso   1.00
C360   C     0.37699   0.50751   0.11437   0.00000  Uiso   1.00
C361   C     0.64195   0.47741   0.45685   0.00000  Uiso   1.00
C362   C     0.37218   0.54753   0.04808   0.00000  Uiso   1.00
C363   C     0.65760   0.48429   0.41019   0.00000  Uiso   1.00
C364   C     0.35139   0.53347   0.09227   0.00000  Uiso   1.00
C365   C     0.57747   0.50482   0.40971   0.00000  Uiso   1.00
C366   C     0.42299   0.49446   0.09101   0.00000  Uiso   1.00
C367   C     0.56285   0.50417   0.45740   0.00000  Uiso   1.00
C368   C     0.44778   0.51291   0.04878   0.00000  Uiso   1.00
C369   C     0.59392   0.48538   0.48067   0.00000  Uiso   1.00
C370   C     0.42055   0.53844   0.02621   0.00000  Uiso   1.00
C371   C     0.51713   0.51936   0.48187   0.00000  Uiso   1.00
C372   C     0.49798   0.50604   0.02801   0.00000  Uiso   1.00
C373   C     0.53032   0.48740   0.05126   0.00000  Uiso   1.00
C374   C     0.49089   0.54883   0.46212   0.00000  Uiso   1.00
C375   C     0.57724   0.47598   0.02721   0.00000  Uiso   1.00
C376   C     0.44231   0.55649   0.48338   0.00000  Uiso   1.00
H377   H     0.43843   0.46992   0.10703   0.00000  Uiso   1.00
H378   H     0.55182   0.51145   0.39060   0.00000  Uiso   1.00
H379   H     0.64913   0.54384   0.10941   0.00000  Uiso   1.00
H380   H     0.36148   0.47856   0.39303   0.00000  Uiso   1.00
H381   H     0.33460   0.46634   0.47408   0.00000  Uiso   1.00
H382   H     0.35075   0.56750   0.03226   0.00000  Uiso   1.00
C383   C     0.65222   0.35508   0.21491   0.00000  Uiso   1.00
C384   C     0.34793   0.64496   0.28487   0.00000  Uiso   1.00
C385   C     0.65137   0.64531   0.21768   0.00000  Uiso   1.00
C386   C     0.34888   0.35471   0.28204   0.00000  Uiso   1.00
H387   H     0.64134   0.62825   0.19185   0.00000  Uiso   1.00
H388   H     0.35907   0.37177   0.30778   0.00000  Uiso   1.00
C389   C     0.66563   0.62369   0.25206   0.00000  Uiso   1.00
C390   C     0.33447   0.37633   0.24776   0.00000  Uiso   1.00
C391   C     0.51909   0.46818   0.27053   0.00000  Uiso   1.00
C392   C     0.48058   0.53264   0.23097   0.00000  Uiso   1.00
C393   C     0.47010   0.46778   0.26969   0.00000  Uiso   1.00
C394   C     0.52985   0.53231   0.23057   0.00000  Uiso   1.00
N395   N     0.45069   0.50001   0.24999   0.00000  Uiso   1.00
N396   N     0.54931   0.49999   0.25001   0.00000  Uiso   1.00
N397   N     0.60722   0.45268   0.04971   0.00000  Uiso   1.00
O398   O     0.61883   0.46751   0.08411   0.00000  Uiso   1.00
O399   O     0.62134   0.41557   0.03682   0.00000  Uiso   1.00
N400   N     0.41542   0.58429   0.46210   0.00000  Uiso   1.00
O401   O     0.42115   0.62417   0.46285   0.00000  Uiso   1.00
O402   O     0.38390   0.56969   0.44347   0.00000  Uiso   1.00
C403   C     0.52012   0.48597   0.10112   0.00000  Uiso   1.00
O404   O     0.51386   0.51827   0.12136   0.00000  Uiso   1.00
O405   O     0.51919   0.44796   0.12471   0.00000  Uiso   1.00
H406   H     0.51236   0.45127   0.15859   0.00000  Uiso   1.00
C407   C     0.51511   0.57676   0.42306   0.00000  Uiso   1.00
O408   O     0.55275   0.59389   0.42268   0.00000  Uiso   1.00
O409   O     0.49505   0.58326   0.38677   0.00000  Uiso   1.00
H410   H     0.51505   0.60261   0.36227   0.00000  Uiso   1.00
C411   C     0.63827   0.37631   0.17660   0.00000  Uiso   1.00
O412   O     0.65602   0.40969   0.16098   0.00000  Uiso   1.00
O413   O     0.60562   0.35732   0.15738   0.00000  Uiso   1.00
H414   H     0.59905   0.37459   0.13149   0.00000  Uiso   1.00
C415   C     0.36198   0.62379   0.32314   0.00000  Uiso   1.00
O416   O     0.34408   0.59054   0.33902   0.00000  Uiso   1.00
O417   O     0.39499   0.64273   0.34197   0.00000  Uiso   1.00
H418   H     0.40174   0.62553   0.36780   0.00000  Uiso   1.00
N419   N     0.53564   0.43593   0.29566   0.00000  Uiso   1.00
O420   O     0.54188   0.39871   0.28009   0.00000  Uiso   1.00
O421   O     0.53330   0.44118   0.33799   0.00000  Uiso   1.00
N422   N     0.46242   0.56872   0.21262   0.00000  Uiso   1.00
O423   O     0.45932   0.60372   0.23302   0.00000  Uiso   1.00
O424   O     0.45096   0.56753   0.17461   0.00000  Uiso   1.00
N425   N     0.44103   0.43330   0.29070   0.00000  Uiso   1.00
O426   O     0.44904   0.39724   0.27242   0.00000  Uiso   1.00
O427   O     0.41482   0.43553   0.33226   0.00000  Uiso   1.00
N428   N     0.55874   0.56698   0.20992   0.00000  Uiso   1.00
O429   O     0.55356   0.60166   0.23111   0.00000  Uiso   1.00
O430   O     0.57813   0.56779   0.16648   0.00000  Uiso   1.00
O431   O     0.70625   0.43989   0.25000   0.00000  Uiso   1.00
O432   O     0.96042   0.56011   0.25000   0.00000  Uiso   1.00
O433   O     0.96039   0.43988   0.25000   0.00000  Uiso   1.00
O434   O     0.70628   0.56012   0.24999   0.00000  Uiso   1.00
C435   C     0.66712   0.42097   0.24892   0.00000  Uiso   1.00
C436   C     0.99957   0.57904   0.25102   0.00000  Uiso   1.00
O437   O     0.68519   0.50001   0.31491   0.00000  Uiso   1.00
O438   O     0.98148   0.49999   0.18508   0.00000  Uiso   1.00
O439   O     0.93933   0.50000   0.31492   0.00000  Uiso   1.00
O440   O     0.72733   0.50000   0.18508   0.00000  Uiso   1.00
C441   C     0.97277   0.49898   0.33621   0.00000  Uiso   1.00
C442   C     0.69408   0.50064   0.16379   0.00000  Uiso   1.00
Cu443  Cu    0.71355   0.50001   0.25000   0.00000  Uiso   1.00
Cu444  Cu    0.95311   0.49999   0.25000   0.00000  Uiso   1.00
C445   C     0.95822   0.49627   0.38601   0.00000  Uiso   1.00
C446   C     0.71032   0.50751   0.11437   0.00000  Uiso   1.00
C447   C     0.97529   0.47741   0.45685   0.00000  Uiso   1.00
C448   C     0.70551   0.54753   0.04808   0.00000  Uiso   1.00
C449   C     0.99094   0.48429   0.41019   0.00000  Uiso   1.00
C450   C     0.68472   0.53347   0.09227   0.00000  Uiso   1.00
C451   C     0.91080   0.50482   0.40971   0.00000  Uiso   1.00
C452   C     0.75633   0.49446   0.09101   0.00000  Uiso   1.00
C453   C     0.89619   0.50417   0.45740   0.00000  Uiso   1.00
C454   C     0.78111   0.51291   0.04878   0.00000  Uiso   1.00
C455   C     0.92725   0.48538   0.48067   0.00000  Uiso   1.00
C456   C     0.75388   0.53844   0.02621   0.00000  Uiso   1.00
C457   C     0.85046   0.51936   0.48187   0.00000  Uiso   1.00
C458   C     0.83131   0.50604   0.02801   0.00000  Uiso   1.00
C459   C     0.86365   0.48740   0.05126   0.00000  Uiso   1.00
C460   C     0.82422   0.54883   0.46212   0.00000  Uiso   1.00
C461   C     0.91057   0.47598   0.02721   0.00000  Uiso   1.00
C462   C     0.77564   0.55649   0.48338   0.00000  Uiso   1.00
H463   H     0.77176   0.46992   0.10703   0.00000  Uiso   1.00
H464   H     0.88515   0.51145   0.39060   0.00000  Uiso   1.00
H465   H     0.98247   0.54384   0.10941   0.00000  Uiso   1.00
H466   H     0.69482   0.47856   0.39303   0.00000  Uiso   1.00
H467   H     0.66793   0.46634   0.47408   0.00000  Uiso   1.00
H468   H     0.68408   0.56750   0.03226   0.00000  Uiso   1.00
C469   C     0.98555   0.35508   0.21491   0.00000  Uiso   1.00
C470   C     0.68126   0.64496   0.28487   0.00000  Uiso   1.00
C471   C     0.98471   0.64531   0.21768   0.00000  Uiso   1.00
C472   C     0.68222   0.35471   0.28204   0.00000  Uiso   1.00
H473   H     0.97467   0.62825   0.19185   0.00000  Uiso   1.00
H474   H     0.69240   0.37177   0.30778   0.00000  Uiso   1.00
C475   C     0.99896   0.62369   0.25206   0.00000  Uiso   1.00
C476   C     0.66780   0.37633   0.24776   0.00000  Uiso   1.00
C477   C     0.85242   0.46818   0.27053   0.00000  Uiso   1.00
C478   C     0.81391   0.53264   0.23097   0.00000  Uiso   1.00
C479   C     0.80344   0.46778   0.26969   0.00000  Uiso   1.00
C480   C     0.86319   0.53231   0.23057   0.00000  Uiso   1.00
N481   N     0.78403   0.50001   0.24999   0.00000  Uiso   1.00
N482   N     0.88264   0.49999   0.25001   0.00000  Uiso   1.00
N483   N     0.94056   0.45268   0.04971   0.00000  Uiso   1.00
O484   O     0.95216   0.46751   0.08411   0.00000  Uiso   1.00
O485   O     0.95467   0.41557   0.03682   0.00000  Uiso   1.00
N486   N     0.74876   0.58429   0.46210   0.00000  Uiso   1.00
O487   O     0.75449   0.62417   0.46285   0.00000  Uiso   1.00
O488   O     0.71724   0.56969   0.44347   0.00000  Uiso   1.00
C489   C     0.85346   0.48597   0.10112   0.00000  Uiso   1.00
O490   O     0.84719   0.51827   0.12136   0.00000  Uiso   1.00
O491   O     0.85252   0.44796   0.12471   0.00000  Uiso   1.00
H492   H     0.84570   0.45127   0.15859   0.00000  Uiso   1.00
C493   C     0.84844   0.57676   0.42306   0.00000  Uiso   1.00
O494   O     0.88608   0.59389   0.42268   0.00000  Uiso   1.00
O495   O     0.82838   0.58326   0.38677   0.00000  Uiso   1.00
H496   H     0.84839   0.60261   0.36227   0.00000  Uiso   1.00
C497   C     0.97161   0.37631   0.17660   0.00000  Uiso   1.00
O498   O     0.98935   0.40969   0.16098   0.00000  Uiso   1.00
O499   O     0.93896   0.35732   0.15738   0.00000  Uiso   1.00
H500   H     0.93238   0.37459   0.13149   0.00000  Uiso   1.00
C501   C     0.69531   0.62379   0.32314   0.00000  Uiso   1.00
O502   O     0.67742   0.59054   0.33902   0.00000  Uiso   1.00
O503   O     0.72832   0.64273   0.34197   0.00000  Uiso   1.00
H504   H     0.73508   0.62553   0.36780   0.00000  Uiso   1.00
N505   N     0.86897   0.43593   0.29566   0.00000  Uiso   1.00
O506   O     0.87521   0.39871   0.28009   0.00000  Uiso   1.00
O507   O     0.86663   0.44118   0.33799   0.00000  Uiso   1.00
N508   N     0.79576   0.56872   0.21262   0.00000  Uiso   1.00
O509   O     0.79266   0.60372   0.23302   0.00000  Uiso   1.00
O510   O     0.78429   0.56753   0.17461   0.00000  Uiso   1.00
N511   N     0.77436   0.43330   0.29070   0.00000  Uiso   1.00
O512   O     0.78237   0.39724   0.27242   0.00000  Uiso   1.00
O513   O     0.74815   0.43553   0.33226   0.00000  Uiso   1.00
N514   N     0.89207   0.56698   0.20992   0.00000  Uiso   1.00
O515   O     0.88689   0.60166   0.23111   0.00000  Uiso   1.00
O516   O     0.91146   0.56779   0.16648   0.00000  Uiso   1.00
O517   O     0.03958   0.77322   0.25000   0.00000  Uiso   1.00
O518   O     0.29375   0.89345   0.25000   0.00000  Uiso   1.00
O519   O     0.29372   0.77321   0.25000   0.00000  Uiso   1.00
O520   O     0.03961   0.89346   0.24999   0.00000  Uiso   1.00
C521   C     0.00045   0.75431   0.24892   0.00000  Uiso   1.00
C522   C     0.33291   0.91237   0.25102   0.00000  Uiso   1.00
O523   O     0.01852   0.83334   0.31491   0.00000  Uiso   1.00
O524   O     0.31481   0.83332   0.18508   0.00000  Uiso   1.00
O525   O     0.27267   0.83333   0.31492   0.00000  Uiso   1.00
O526   O     0.06067   0.83333   0.18508   0.00000  Uiso   1.00
C527   C     0.30611   0.83231   0.33621   0.00000  Uiso   1.00
C528   C     0.02742   0.83397   0.16379   0.00000  Uiso   1.00
Cu529  Cu    0.04689   0.83334   0.25000   0.00000  Uiso   1.00
Cu530  Cu    0.28645   0.83333   0.25000   0.00000  Uiso   1.00
C531   C     0.29156   0.82961   0.38601   0.00000  Uiso   1.00
C532   C     0.04365   0.84084   0.11437   0.00000  Uiso   1.00
C533   C     0.30862   0.81074   0.45685   0.00000  Uiso   1.00
C534   C     0.03884   0.88086   0.04808   0.00000  Uiso   1.00
C535   C     0.32427   0.81763   0.41019   0.00000  Uiso   1.00
C536   C     0.01805   0.86681   0.09227   0.00000  Uiso   1.00
C537   C     0.24414   0.83815   0.40971   0.00000  Uiso   1.00
C538   C     0.08966   0.82779   0.09101   0.00000  Uiso   1.00
C539   C     0.22952   0.83750   0.45740   0.00000  Uiso   1.00
C540   C     0.11444   0.84624   0.04878   0.00000  Uiso   1.00
C541   C     0.26058   0.81872   0.48067   0.00000  Uiso   1.00
C542   C     0.08722   0.87177   0.02621   0.00000  Uiso   1.00
C543   C     0.18380   0.85269   0.48187   0.00000  Uiso   1.00
C544   C     0.16465   0.83937   0.02801   0.00000  Uiso   1.00
C545   C     0.19698   0.82074   0.05126   0.00000  Uiso   1.00
C546   C     0.15755   0.88216   0.46212   0.00000  Uiso   1.00
C547   C     0.24391   0.80931   0.02721   0.00000  Uiso   1.00
C548   C     0.10898   0.88983   0.48338   0.00000  Uiso   1.00
H549   H     0.10510   0.80325   0.10703   0.00000  Uiso   1.00
H550   H     0.21849   0.84478   0.39060   0.00000  Uiso   1.00
H551   H     0.31580   0.87718   0.10941   0.00000  Uiso   1.00
H552   H     0.02815   0.81190   0.39303   0.00000  Uiso   1.00
H553   H     0.00126   0.79968   0.47408   0.00000  Uiso   1.00
H554   H     0.01742   0.90084   0.03226   0.00000  Uiso   1.00
C555   C     0.31888   0.68842   0.21491   0.00000  Uiso   1.00
C556   C     0.01460   0.97829   0.28487   0.00000  Uiso   1.00
C557   C     0.31804   0.97865   0.21768   0.00000  Uiso   1.00
C558   C     0.01555   0.68805   0.28204   0.00000  Uiso   1.00
H559   H     0.30801   0.96158   0.19185   0.00000  Uiso   1.00
H560   H     0.02573   0.70510   0.30778   0.00000  Uiso   1.00
C561   C     0.33230   0.95703   0.25206   0.00000  Uiso   1.00
C562   C     0.00113   0.70966   0.24776   0.00000  Uiso   1.00
C563   C     0.18575   0.80152   0.27053   0.00000  Uiso   1.00
C564   C     0.14724   0.86597   0.23097   0.00000  Uiso   1.00
C565   C     0.13677   0.80112   0.26969   0.00000  Uiso   1.00
C566   C     0.19652   0.86564   0.23057   0.00000  Uiso   1.00
N567   N     0.11736   0.83334   0.24999   0.00000  Uiso   1.00
N568   N     0.21597   0.83332   0.25001   0.00000  Uiso   1.00
N569   N     0.27389   0.78601   0.04971   0.00000  Uiso   1.00
O570   O     0.28550   0.80084   0.08411   0.00000  Uiso   1.00
O571   O     0.28801   0.74890   0.03682   0.00000  Uiso   1.00
N572   N     0.08209   0.91762   0.46210   0.00000  Uiso   1.00
O573   O     0.08782   0.95751   0.46285   0.00000  Uiso   1.00
O574   O     0.05057   0.90302   0.44347   0.00000  Uiso   1.00
C575   C     0.18679   0.81930   0.10112   0.00000  Uiso   1.00
O576   O     0.18053   0.85160   0.12136   0.00000  Uiso   1.00
O577   O     0.18586   0.78129   0.12471   0.00000  Uiso   1.00
H578   H     0.17903   0.78460   0.15859   0.00000  Uiso   1.00
C579   C     0.18178   0.91009   0.42306   0.00000  Uiso   1.00
O580   O     0.21941   0.92722   0.42268   0.00000  Uiso   1.00
O581   O     0.16171   0.91659   0.38677   0.00000  Uiso   1.00
H582   H     0.18172   0.93594   0.36227   0.00000  Uiso   1.00
C583   C     0.30494   0.70965   0.17660   0.00000  Uiso   1.00
O584   O     0.32269   0.74302   0.16098   0.00000  Uiso   1.00
O585   O     0.27229   0.69066   0.15738   0.00000  Uiso   1.00
H586   H     0.26572   0.70792   0.13149   0.00000  Uiso   1.00
C587   C     0.02865   0.95713   0.32314   0.00000  Uiso   1.00
O588   O     0.01075   0.92387   0.33902   0.00000  Uiso   1.00
O589   O     0.06165   0.97606   0.34197   0.00000  Uiso   1.00
H590   H     0.06841   0.95886   0.36780   0.00000  Uiso   1.00
N591   N     0.20231   0.76927   0.29566   0.00000  Uiso   1.00
O592   O     0.20854   0.73204   0.28009   0.00000  Uiso   1.00
O593   O     0.19997   0.77451   0.33799   0.00000  Uiso   1.00
N594   N     0.12909   0.90205   0.21262   0.00000  Uiso   1.00
O595   O     0.12599   0.93705   0.23302   0.00000  Uiso   1.00
O596   O     0.11763   0.90086   0.17461   0.00000  Uiso   1.00
N597   N     0.10769   0.76663   0.29070   0.00000  Uiso   1.00
O598   O     0.11571   0.73058   0.27242   0.00000  Uiso   1.00
O599   O     0.08149   0.76887   0.33226   0.00000  Uiso   1.00
N600   N     0.22541   0.90032   0.20992   0.00000  Uiso   1.00
O601   O     0.22023   0.93499   0.23111   0.00000  Uiso   1.00
O602   O     0.24480   0.90112   0.16648   0.00000  Uiso   1.00
O603   O     0.37291   0.77322   0.25000   0.00000  Uiso   1.00
O604   O     0.62709   0.89345   0.25000   0.00000  Uiso   1.00
O605   O     0.62706   0.77321   0.25000   0.00000  Uiso   1.00
O606   O     0.37294   0.89346   0.24999   0.00000  Uiso   1.00
C607   C     0.33378   0.75431   0.24892   0.00000  Uiso   1.00
C608   C     0.66624   0.91237   0.25102   0.00000  Uiso   1.00
O609   O     0.35186   0.83334   0.31491   0.00000  Uiso   1.00
O610   O     0.64814   0.83332   0.18508   0.00000  Uiso   1.00
O611   O     0.60600   0.83333   0.31492   0.00000  Uiso   1.00
O612   O     0.39400   0.83333   0.18508   0.00000  Uiso   1.00
C613   C     0.63944   0.83231   0.33621   0.00000  Uiso   1.00
C614   C     0.36075   0.83397   0.16379   0.00000  Uiso   1.00
Cu615  Cu    0.38022   0.83334   0.25000   0.00000  Uiso   1.00
Cu616  Cu    0.61978   0.83333   0.25000   0.00000  Uiso   1.00
C617   C     0.62489   0.82961   0.38601   0.00000  Uiso   1.00
C618   C     0.37699   0.84084   0.11437   0.00000  Uiso   1.00
C619   C     0.64195   0.81074   0.45685   0.00000  Uiso   1.00
C620   C     0.37218   0.88086   0.04808   0.00000  Uiso   1.00
C621   C     0.65760   0.81763   0.41019   0.00000  Uiso   1.00
C622   C     0.35139   0.86681   0.09227   0.00000  Uiso   1.00
C623   C     0.57747   0.83815   0.40971   0.00000  Uiso   1.00
C624   C     0.42299   0.82779   0.09101   0.00000  Uiso   1.00
C625   C     0.56285   0.83750   0.45740   0.00000  Uiso   1.00
C626   C     0.44778   0.84624   0.04878   0.00000  Uiso   1.00
C627   C     0.59392   0.81872   0.48067   0.00000  Uiso   1.00
C628   C     0.42055   0.87177   0.02621   0.00000  Uiso   1.00
C629   C     0.51713   0.85269   0.48187   0.00000  Uiso   1.00
C630   C     0.49798   0.83937   0.02801   0.00000  Uiso   1.00
C631   C     0.53032   0.82074   0.05126   0.00000  Uiso   1.00
C632   C     0.49089   0.88216   0.46212   0.00000  Uiso   1.00
C633   C     0.57724   0.80931   0.02721   0.00000  Uiso   1.00
C634   C     0.44231   0.88983   0.48338   0.00000  Uiso   1.00
H635   H     0.43843   0.80325   0.10703   0.00000  Uiso   1.00
H636   H     0.55182   0.84478   0.39060   0.00000  Uiso   1.00
H637   H     0.64913   0.87718   0.10941   0.00000  Uiso   1.00
H638   H     0.36148   0.81190   0.39303   0.00000  Uiso   1.00
H639   H     0.33460   0.79968   0.47408   0.00000  Uiso   1.00
H640   H     0.35075   0.90084   0.03226   0.00000  Uiso   1.00
C641   C     0.65222   0.68842   0.21491   0.00000  Uiso   1.00
C642   C     0.34793   0.97829   0.28487   0.00000  Uiso   1.00
C643   C     0.65137   0.97865   0.21768   0.00000  Uiso   1.00
C644   C     0.34888   0.68805   0.28204   0.00000  Uiso   1.00
H645   H     0.64134   0.96158   0.19185   0.00000  Uiso   1.00
H646   H     0.35907   0.70510   0.30778   0.00000  Uiso   1.00
C647   C     0.66563   0.95703   0.25206   0.00000  Uiso   1.00
C648   C     0.33447   0.70966   0.24776   0.00000  Uiso   1.00
C649   C     0.51909   0.80152   0.27053   0.00000  Uiso   1.00
C650   C     0.48058   0.86597   0.23097   0.00000  Uiso   1.00
C651   C     0.47010   0.80112   0.26969   0.00000  Uiso   1.00
C652   C     0.52985   0.86564   0.23057   0.00000  Uiso   1.00
N653   N     0.45069   0.83334   0.24999   0.00000  Uiso   1.00
N654   N     0.54931   0.83332   0.25001   0.00000  Uiso   1.00
N655   N     0.60722   0.78601   0.04971   0.00000  Uiso   1.00
O656   O     0.61883   0.80084   0.08411   0.00000  Uiso   1.00
O657   O     0.62134   0.74890   0.03682   0.00000  Uiso   1.00
N658   N     0.41542   0.91762   0.46210   0.00000  Uiso   1.00
O659   O     0.42115   0.95751   0.46285   0.00000  Uiso   1.00
O660   O     0.38390   0.90302   0.44347   0.00000  Uiso   1.00
C661   C     0.52012   0.81930   0.10112   0.00000  Uiso   1.00
O662   O     0.51386   0.85160   0.12136   0.00000  Uiso   1.00
O663   O     0.51919   0.78129   0.12471   0.00000  Uiso   1.00
H664   H     0.51236   0.78460   0.15859   0.00000  Uiso   1.00
C665   C     0.51511   0.91009   0.42306   0.00000  Uiso   1.00
O666   O     0.55275   0.92722   0.42268   0.00000  Uiso   1.00
O667   O     0.49505   0.91659   0.38677   0.00000  Uiso   1.00
H668   H     0.51505   0.93594   0.36227   0.00000  Uiso   1.00
C669   C     0.63827   0.70965   0.17660   0.00000  Uiso   1.00
O670   O     0.65602   0.74302   0.16098   0.00000  Uiso   1.00
O671   O     0.60562   0.69066   0.15738   0.00000  Uiso   1.00
H672   H     0.59905   0.70792   0.13149   0.00000  Uiso   1.00
C673   C     0.36198   0.95713   0.32314   0.00000  Uiso   1.00
O674   O     0.34408   0.92387   0.33902   0.00000  Uiso   1.00
O675   O     0.39499   0.97606   0.34197   0.00000  Uiso   1.00
H676   H     0.40174   0.95886   0.36780   0.00000  Uiso   1.00
N677   N     0.53564   0.76927   0.29566   0.00000  Uiso   1.00
O678   O     0.54188   0.73204   0.28009   0.00000  Uiso   1.00
O679   O     0.53330   0.77451   0.33799   0.00000  Uiso   1.00
N680   N     0.46242   0.90205   0.21262   0.00000  Uiso   1.00
O681   O     0.45932   0.93705   0.23302   0.00000  Uiso   1.00
O682   O     0.45096   0.90086   0.17461   0.00000  Uiso   1.00
N683   N     0.44103   0.76663   0.29070   0.00000  Uiso   1.00
O684   O     0.44904   0.73058   0.27242   0.00000  Uiso   1.00
O685   O     0.41482   0.76887   0.33226   0.00000  Uiso   1.00
N686   N     0.55874   0.90032   0.20992   0.00000  Uiso   1.00
O687   O     0.55356   0.93499   0.23111   0.00000  Uiso   1.00
O688   O     0.57813   0.90112   0.16648   0.00000  Uiso   1.00
O689   O     0.70625   0.77322   0.25000   0.00000  Uiso   1.00
O690   O     0.96042   0.89345   0.25000   0.00000  Uiso   1.00
O691   O     0.96039   0.77321   0.25000   0.00000  Uiso   1.00
O692   O     0.70628   0.89346   0.24999   0.00000  Uiso   1.00
C693   C     0.66712   0.75431   0.24892   0.00000  Uiso   1.00
C694   C     0.99957   0.91237   0.25102   0.00000  Uiso   1.00
O695   O     0.68519   0.83334   0.31491   0.00000  Uiso   1.00
O696   O     0.98148   0.83332   0.18508   0.00000  Uiso   1.00
O697   O     0.93933   0.83333   0.31492   0.00000  Uiso   1.00
O698   O     0.72733   0.83333   0.18508   0.00000  Uiso   1.00
C699   C     0.97277   0.83231   0.33621   0.00000  Uiso   1.00
C700   C     0.69408   0.83397   0.16379   0.00000  Uiso   1.00
Cu701  Cu    0.71355   0.83334   0.25000   0.00000  Uiso   1.00
Cu702  Cu    0.95311   0.83333   0.25000   0.00000  Uiso   1.00
C703   C     0.95822   0.82961   0.38601   0.00000  Uiso   1.00
C704   C     0.71032   0.84084   0.11437   0.00000  Uiso   1.00
C705   C     0.97529   0.81074   0.45685   0.00000  Uiso   1.00
C706   C     0.70551   0.88086   0.04808   0.00000  Uiso   1.00
C707   C     0.99094   0.81763   0.41019   0.00000  Uiso   1.00
C708   C     0.68472   0.86681   0.09227   0.00000  Uiso   1.00
C709   C     0.91080   0.83815   0.40971   0.00000  Uiso   1.00
C710   C     0.75633   0.82779   0.09101   0.00000  Uiso   1.00
C711   C     0.89619   0.83750   0.45740   0.00000  Uiso   1.00
C712   C     0.78111   0.84624   0.04878   0.00000  Uiso   1.00
C713   C     0.92725   0.81872   0.48067   0.00000  Uiso   1.00
C714   C     0.75388   0.87177   0.02621   0.00000  Uiso   1.00
C715   C     0.85046   0.85269   0.48187   0.00000  Uiso   1.00
C716   C     0.83131   0.83937   0.02801   0.00000  Uiso   1.00
C717   C     0.86365   0.82074   0.05126   0.00000  Uiso   1.00
C718   C     0.82422   0.88216   0.46212   0.00000  Uiso   1.00
C719   C     0.91057   0.80931   0.02721   0.00000  Uiso   1.00
C720   C     0.77564   0.88983   0.48338   0.00000  Uiso   1.00
H721   H     0.77176   0.80325   0.10703   0.00000  Uiso   1.00
H722   H     0.88515   0.84478   0.39060   0.00000  Uiso   1.00
H723   H     0.98247   0.87718   0.10941   0.00000  Uiso   1.00
H724   H     0.69482   0.81190   0.39303   0.00000  Uiso   1.00
H725   H     0.66793   0.79968   0.47408   0.00000  Uiso   1.00
H726   H     0.68408   0.90084   0.03226   0.00000  Uiso   1.00
C727   C     0.98555   0.68842   0.21491   0.00000  Uiso   1.00
C728   C     0.68126   0.97829   0.28487   0.00000  Uiso   1.00
C729   C     0.98471   0.97865   0.21768   0.00000  Uiso   1.00
C730   C     0.68222   0.68805   0.28204   0.00000  Uiso   1.00
H731   H     0.97467   0.96158   0.19185   0.00000  Uiso   1.00
H732   H     0.69240   0.70510   0.30778   0.00000  Uiso   1.00
C733   C     0.99896   0.95703   0.25206   0.00000  Uiso   1.00
C734   C     0.66780   0.70966   0.24776   0.00000  Uiso   1.00
C735   C     0.85242   0.80152   0.27053   0.00000  Uiso   1.00
C736   C     0.81391   0.86597   0.23097   0.00000  Uiso   1.00
C737   C     0.80344   0.80112   0.26969   0.00000  Uiso   1.00
C738   C     0.86319   0.86564   0.23057   0.00000  Uiso   1.00
N739   N     0.78403   0.83334   0.24999   0.00000  Uiso   1.00
N740   N     0.88264   0.83332   0.25001   0.00000  Uiso   1.00
N741   N     0.94056   0.78601   0.04971   0.00000  Uiso   1.00
O742   O     0.95216   0.80084   0.08411   0.00000  Uiso   1.00
O743   O     0.95467   0.74890   0.03682   0.00000  Uiso   1.00
N744   N     0.74876   0.91762   0.46210   0.00000  Uiso   1.00
O745   O     0.75449   0.95751   0.46285   0.00000  Uiso   1.00
O746   O     0.71724   0.90302   0.44347   0.00000  Uiso   1.00
C747   C     0.85346   0.81930   0.10112   0.00000  Uiso   1.00
O748   O     0.84719   0.85160   0.12136   0.00000  Uiso   1.00
O749   O     0.85252   0.78129   0.12471   0.00000  Uiso   1.00
H750   H     0.84570   0.78460   0.15859   0.00000  Uiso   1.00
C751   C     0.84844   0.91009   0.42306   0.00000  Uiso   1.00
O752   O     0.88608   0.92722   0.42268   0.00000  Uiso   1.00
O753   O     0.82838   0.91659   0.38677   0.00000  Uiso   1.00
H754   H     0.84839   0.93594   0.36227   0.00000  Uiso   1.00
C755   C     0.97161   0.70965   0.17660   0.00000  Uiso   1.00
O756   O     0.98935   0.74302   0.16098   0.00000  Uiso   1.00
O757   O     0.93896   0.69066   0.15738   0.00000  Uiso   1.00
H758   H     0.93238   0.70792   0.13149   0.00000  Uiso   1.00
C759   C     0.69531   0.95713   0.32314   0.00000  Uiso   1.00
O760   O     0.67742   0.92387   0.33902   0.00000  Uiso   1.00
O761   O     0.72832   0.97606   0.34197   0.00000  Uiso   1.00
H762   H     0.73508   0.95886   0.36780   0.00000  Uiso   1.00
N763   N     0.86897   0.76927   0.29566   0.00000  Uiso   1.00
O764   O     0.87521   0.73204   0.28009   0.00000  Uiso   1.00
O765   O     0.86663   0.77451   0.33799   0.00000  Uiso   1.00
N766   N     0.79576   0.90205   0.21262   0.00000  Uiso   1.00
O767   O     0.79266   0.93705   0.23302   0.00000  Uiso   1.00
O768   O     0.78429   0.90086   0.17461   0.00000  Uiso   1.00
N769   N     0.77436   0.76663   0.29070   0.00000  Uiso   1.00
O770   O     0.78237   0.73058   0.27242   0.00000  Uiso   1.00
O771   O     0.74815   0.76887   0.33226   0.00000  Uiso   1.00
N772   N     0.89207   0.90032   0.20992   0.00000  Uiso   1.00
O773   O     0.88689   0.93499   0.23111   0.00000  Uiso   1.00
O774   O     0.91146   0.90112   0.16648   0.00000  Uiso   1.00
O775   O     0.03958   0.10655   0.75000   0.00000  Uiso   1.00
O776   O     0.29375   0.22678   0.75000   0.00000  Uiso   1.00
O777   O     0.29372   0.10654   0.75000   0.00000  Uiso   1.00
O778   O     0.03961   0.22679   0.74999   0.00000  Uiso   1.00
C779   C     0.00045   0.08764   0.74892   0.00000  Uiso   1.00
C780   C     0.33291   0.24570   0.75102   0.00000  Uiso   1.00
O781   O     0.01852   0.16668   0.81491   0.00000  Uiso   1.00
O782   O     0.31481   0.16666   0.68508   0.00000  Uiso   1.00
O783   O     0.27267   0.16667   0.81492   0.00000  Uiso   1.00
O784   O     0.06067   0.16667   0.68508   0.00000  Uiso   1.00
C785   C     0.30611   0.16565   0.83621   0.00000  Uiso   1.00
C786   C     0.02742   0.16730   0.66379   0.00000  Uiso   1.00
Cu787  Cu    0.04689   0.16667   0.75000   0.00000  Uiso   1.00
Cu788  Cu    0.28645   0.16666   0.75000   0.00000  Uiso   1.00
C789   C     0.29156   0.16294   0.88601   0.00000  Uiso   1.00
C790   C     0.04365   0.17417   0.61437   0.00000  Uiso   1.00
C791   C     0.30862   0.14408   0.95685   0.00000  Uiso   1.00
C792   C     0.03884   0.21420   0.54808   0.00000  Uiso   1.00
C793   C     0.32427   0.15096   0.91019   0.00000  Uiso   1.00
C794   C     0.01805   0.20014   0.59227   0.00000  Uiso   1.00
C795   C     0.24414   0.17148   0.90971   0.00000  Uiso   1.00
C796   C     0.08966   0.16113   0.59101   0.00000  Uiso   1.00
C797   C     0.22952   0.17083   0.95740   0.00000  Uiso   1.00
C798   C     0.11444   0.17957   0.54878   0.00000  Uiso   1.00
C799   C     0.26058   0.15205   0.98067   0.00000  Uiso   1.00
C800   C     0.08722   0.20510   0.52621   0.00000  Uiso   1.00
C801   C     0.18380   0.18603   0.98187   0.00000  Uiso   1.00
C802   C     0.16465   0.17270   0.52801   0.00000  Uiso   1.00
C803   C     0.19698   0.15407   0.55126   0.00000  Uiso   1.00
C804   C     0.15755   0.21550   0.96212   0.00000  Uiso   1.00
C805   C     0.24391   0.14265   0.52721   0.00000  Uiso   1.00
C806   C     0.10898   0.22316   0.98338   0.00000  Uiso   1.00
H807   H     0.10510   0.13658   0.60703   0.00000  Uiso   1.00
H808   H     0.21849   0.17811   0.89060   0.00000  Uiso   1.00
H809   H     0.31580   0.21051   0.60941   0.00000  Uiso   1.00
H810   H     0.02815   0.14523   0.89303   0.00000  Uiso   1.00
H811   H     0.00126   0.13301   0.97408   0.00000  Uiso   1.00
H812   H     0.01742   0.23417   0.53226   0.00000  Uiso   1.00
C813   C     0.31888   0.02175   0.71491   0.00000  Uiso   1.00
C814   C     0.01460   0.31162   0.78487   0.00000  Uiso   1.00
C815   C     0.31804   0.31198   0.71768   0.00000  Uiso   1.00
C816   C     0.01555   0.02138   0.78204   0.00000  Uiso   1.00
H817   H     0.30801   0.29492   0.69185   0.00000  Uiso   1.00
H818   H     0.02573   0.03844   0.80778   0.00000  Uiso   1.00
C819   C     0.33230   0.29036   0.75206   0.00000  Uiso   1.00
C820   C     0.00113   0.04299   0.74776   0.00000  Uiso   1.00
C821   C     0.18575   0.13485   0.77053   0.00000  Uiso   1.00
C822   C     0.14724   0.19931   0.73097   0.00000  Uiso   1.00
C823   C     0.13677   0.13445   0.76969   0.00000  Uiso   1.00
C824   C     0.19652   0.19898   0.73057   0.00000  Uiso   1.00
N825   N     0.11736   0.16668   0.74999   0.00000  Uiso   1.00
N826   N     0.21597   0.16666   0.75001   0.00000  Uiso   1.00
N827   N     0.27389   0.11934   0.54971   0.00000  Uiso   1.00
O828   O     0.28550   0.13418   0.58411   0.00000  Uiso   1.00
O829   O     0.28801   0.08224   0.53682   0.00000  Uiso   1.00
N830   N     0.08209   0.25095   0.96210   0.00000  Uiso   1.00
O831   O     0.08782   0.29084   0.96285   0.00000  Uiso   1.00
O832   O     0.05057   0.23636   0.94347   0.00000  Uiso   1.00
C833   C     0.18679   0.15263   0.60112   0.00000  Uiso   1.00
O834   O     0.18053   0.18494   0.62136   0.00000  Uiso   1.00
O835   O     0.18586   0.11463   0.62471   0.00000  Uiso   1.00
H836   H     0.17903   0.11793   0.65859   0.00000  Uiso   1.00
C837   C     0.18178   0.24342   0.92306   0.00000  Uiso   1.00
O838   O     0.21941   0.26055   0.92268   0.00000  Uiso   1.00
O839   O     0.16171   0.24992   0.88677   0.00000  Uiso   1.00
H840   H     0.18172   0.26928   0.86227   0.00000  Uiso   1.00
C841   C     0.30494   0.04298   0.67660   0.00000  Uiso   1.00
O842   O     0.32269   0.07636   0.66098   0.00000  Uiso   1.00
O843   O     0.27229   0.02399   0.65738   0.00000  Uiso   1.00
H844   H     0.26572   0.04125   0.63149   0.00000  Uiso   1.00
C845   C     0.02865   0.29046   0.82314   0.00000  Uiso   1.00
O846   O     0.01075   0.25720   0.83902   0.00000  Uiso   1.00
O847   O     0.06165   0.30939   0.84197   0.00000  Uiso   1.00
H848   H     0.06841   0.29219   0.86780   0.00000  Uiso   1.00
N849   N     0.20231   0.10260   0.79566   0.00000  Uiso   1.00
O850   O     0.20854   0.06538   0.78009   0.00000  Uiso   1.00
O851   O     0.19997   0.10785   0.83799   0.00000  Uiso   1.00
N852   N     0.12909   0.23538   0.71262   0.00000  Uiso   1.00
O853   O     0.12599   0.27038   0.73302   0.00000  Uiso   1.00
O854   O     0.11763   0.23420   0.67461   0.00000  Uiso   1.00
N855   N     0.10769   0.09997   0.79070   0.00000  Uiso   1.00
O856   O     0.11571   0.06391   0.77242   0.00000  Uiso   1.00
O857   O     0.08149   0.10220   0.83226   0.00000  Uiso   1.00
N858   N     0.22541   0.23365   0.70992   0.00000  Uiso   1.00
O859   O     0.22023   0.26833   0.73111   0.00000  Uiso   1.00
O860   O     0.24480   0.23445   0.66648   0.00000  Uiso   1.00
O861   O     0.37291   0.10655   0.75000   0.00000  Uiso   1.00
O862   O     0.62709   0.22678   0.75000   0.00000  Uiso   1.00
O863   O     0.62706   0.10654   0.75000   0.00000  Uiso   1.00
O864   O     0.37294   0.22679   0.74999   0.00000  Uiso   1.00
C865   C     0.33378   0.08764   0.74892   0.00000  Uiso   1.00
C866   C     0.66624   0.24570   0.75102   0.00000  Uiso   1.00
O867   O     0.35186   0.16668   0.81491   0.00000  Uiso   1.00
O868   O     0.64814   0.16666   0.68508   0.00000  Uiso   1.00
O869   O     0.60600   0.16667   0.81492   0.00000  Uiso   1.00
O870   O     0.39400   0.16667   0.68508   0.00000  Uiso   1.00
C871   C     0.63944   0.16565   0.83621   0.00000  Uiso   1.00
C872   C     0.36075   0.16730   0.66379   0.00000  Uiso   1.00
Cu873  Cu    0.38022   0.16667   0.75000   0.00000  Uiso   1.00
Cu874  Cu    0.61978   0.16666   0.75000   0.00000  Uiso   1.00
C875   C     0.62489   0.16294   0.88601   0.00000  Uiso   1.00
C876   C     0.37699   0.17417   0.61437   0.00000  Uiso   1.00
C877   C     0.64195   0.14408   0.95685   0.00000  Uiso   1.00
C878   C     0.37218   0.21420   0.54808   0.00000  Uiso   1.00
C879   C     0.65760   0.15096   0.91019   0.00000  Uiso   1.00
C880   C     0.35139   0.20014   0.59227   0.00000  Uiso   1.00
C881   C     0.57747   0.17148   0.90971   0.00000  Uiso   1.00
C882   C     0.42299   0.16113   0.59101   0.00000  Uiso   1.00
C883   C     0.56285   0.17083   0.95740   0.00000  Uiso   1.00
C884   C     0.44778   0.17957   0.54878   0.00000  Uiso   1.00
C885   C     0.59392   0.15205   0.98067   0.00000  Uiso   1.00
C886   C     0.42055   0.20510   0.52621   0.00000  Uiso   1.00
C887   C     0.51713   0.18603   0.98187   0.00000  Uiso   1.00
C888   C     0.49798   0.17270   0.52801   0.00000  Uiso   1.00
C889   C     0.53032   0.15407   0.55126   0.00000  Uiso   1.00
C890   C     0.49089   0.21550   0.96212   0.00000  Uiso   1.00
C891   C     0.57724   0.14265   0.52721   0.00000  Uiso   1.00
C892   C     0.44231   0.22316   0.98338   0.00000  Uiso   1.00
H893   H     0.43843   0.13658   0.60703   0.00000  Uiso   1.00
H894   H     0.55182   0.17811   0.89060   0.00000  Uiso   1.00
H895   H     0.64913   0.21051   0.60941   0.00000  Uiso   1.00
H896   H     0.36148   0.14523   0.89303   0.00000  Uiso   1.00
H897   H     0.33460   0.13301   0.97408   0.00000  Uiso   1.00
H898   H     0.35075   0.23417   0.53226   0.00000  Uiso   1.00
C899   C     0.65222   0.02175   0.71491   0.00000  Uiso   1.00
C900   C     0.34793   0.31162   0.78487   0.00000  Uiso   1.00
C901   C     0.65137   0.31198   0.71768   0.00000  Uiso   1.00
C902   C     0.34888   0.02138   0.78204   0.00000  Uiso   1.00
H903   H     0.64134   0.29492   0.69185   0.00000  Uiso   1.00
H904   H     0.35907   0.03844   0.80778   0.00000  Uiso   1.00
C905   C     0.66563   0.29036   0.75206   0.00000  Uiso   1.00
C906   C     0.33447   0.04299   0.74776   0.00000  Uiso   1.00
C907   C     0.51909   0.13485   0.77053   0.00000  Uiso   1.00
C908   C     0.48058   0.19931   0.73097   0.00000  Uiso   1.00
C909   C     0.47010   0.13445   0.76969   0.00000  Uiso   1.00
C910   C     0.52985   0.19898   0.73057   0.00000  Uiso   1.00
N911   N     0.45069   0.16668   0.74999   0.00000  Uiso   1.00
N912   N     0.54931   0.16666   0.75001   0.00000  Uiso   1.00
N913   N     0.60722   0.11934   0.54971   0.00000  Uiso   1.00
O914   O     0.61883   0.13418   0.58411   0.00000  Uiso   1.00
O915   O     0.62134   0.08224   0.53682   0.00000  Uiso   1.00
N916   N     0.41542   0.25095   0.96210   0.00000  Uiso   1.00
O917   O     0.42115   0.29084   0.96285   0.00000  Uiso   1.00
O918   O     0.38390   0.23636   0.94347   0.00000  Uiso   1.00
C919   C     0.52012   0.15263   0.60112   0.00000  Uiso   1.00
O920   O     0.51386   0.18494   0.62136   0.00000  Uiso   1.00
O921   O     0.51919   0.11463   0.62471   0.00000  Uiso   1.00
H922   H     0.51236   0.11793   0.65859   0.00000  Uiso   1.00
C923   C     0.51511   0.24342   0.92306   0.00000  Uiso   1.00
O924   O     0.55275   0.26055   0.92268   0.00000  Uiso   1.00
O925   O     0.49505   0.24992   0.88677   0.00000  Uiso   1.00
H926   H     0.51505   0.26928   0.86227   0.00000  Uiso   1.00
C927   C     0.63827   0.04298   0.67660   0.00000  Uiso   1.00
O928   O     0.65602   0.07636   0.66098   0.00000  Uiso   1.00
O929   O     0.60562   0.02399   0.65738   0.00000  Uiso   1.00
H930   H     0.59905   0.04125   0.63149   0.00000  Uiso   1.00
C931   C     0.36198   0.29046   0.82314   0.00000  Uiso   1.00
O932   O     0.34408   0.25720   0.83902   0.00000  Uiso   1.00
O933   O     0.39499   0.30939   0.84197   0.00000  Uiso   1.00
H934   H     0.40174   0.29219   0.86780   0.00000  Uiso   1.00
N935   N     0.53564   0.10260   0.79566   0.00000  Uiso   1.00
O936   O     0.54188   0.06538   0.78009   0.00000  Uiso   1.00
O937   O     0.53330   0.10785   0.83799   0.00000  Uiso   1.00
N938   N     0.46242   0.23538   0.71262   0.00000  Uiso   1.00
O939   O     0.45932   0.27038   0.73302   0.00000  Uiso   1.00
O940   O     0.45096   0.23420   0.67461   0.00000  Uiso   1.00
N941   N     0.44103   0.09997   0.79070   0.00000  Uiso   1.00
O942   O     0.44904   0.06391   0.77242   0.00000  Uiso   1.00
O943   O     0.41482   0.10220   0.83226   0.00000  Uiso   1.00
N944   N     0.55874   0.23365   0.70992   0.00000  Uiso   1.00
O945   O     0.55356   0.26833   0.73111   0.00000  Uiso   1.00
O946   O     0.57813   0.23445   0.66648   0.00000  Uiso   1.00
O947   O     0.70625   0.10655   0.75000   0.00000  Uiso   1.00
O948   O     0.96042   0.22678   0.75000   0.00000  Uiso   1.00
O949   O     0.96039   0.10654   0.75000   0.00000  Uiso   1.00
O950   O     0.70628   0.22679   0.74999   0.00000  Uiso   1.00
C951   C     0.66712   0.08764   0.74892   0.00000  Uiso   1.00
C952   C     0.99957   0.24570   0.75102   0.00000  Uiso   1.00
O953   O     0.68519   0.16668   0.81491   0.00000  Uiso   1.00
O954   O     0.98148   0.16666   0.68508   0.00000  Uiso   1.00
O955   O     0.93933   0.16667   0.81492   0.00000  Uiso   1.00
O956   O     0.72733   0.16667   0.68508   0.00000  Uiso   1.00
C957   C     0.97277   0.16565   0.83621   0.00000  Uiso   1.00
C958   C     0.69408   0.16730   0.66379   0.00000  Uiso   1.00
Cu959  Cu    0.71355   0.16667   0.75000   0.00000  Uiso   1.00
Cu960  Cu    0.95311   0.16666   0.75000   0.00000  Uiso   1.00
C961   C     0.95822   0.16294   0.88601   0.00000  Uiso   1.00
C962   C     0.71032   0.17417   0.61437   0.00000  Uiso   1.00
C963   C     0.97529   0.14408   0.95685   0.00000  Uiso   1.00
C964   C     0.70551   0.21420   0.54808   0.00000  Uiso   1.00
C965   C     0.99094   0.15096   0.91019   0.00000  Uiso   1.00
C966   C     0.68472   0.20014   0.59227   0.00000  Uiso   1.00
C967   C     0.91080   0.17148   0.90971   0.00000  Uiso   1.00
C968   C     0.75633   0.16113   0.59101   0.00000  Uiso   1.00
C969   C     0.89619   0.17083   0.95740   0.00000  Uiso   1.00
C970   C     0.78111   0.17957   0.54878   0.00000  Uiso   1.00
C971   C     0.92725   0.15205   0.98067   0.00000  Uiso   1.00
C972   C     0.75388   0.20510   0.52621   0.00000  Uiso   1.00
C973   C     0.85046   0.18603   0.98187   0.00000  Uiso   1.00
C974   C     0.83131   0.17270   0.52801   0.00000  Uiso   1.00
C975   C     0.86365   0.15407   0.55126   0.00000  Uiso   1.00
C976   C     0.82422   0.21550   0.96212   0.00000  Uiso   1.00
C977   C     0.91057   0.14265   0.52721   0.00000  Uiso   1.00
C978   C     0.77564   0.22316   0.98338   0.00000  Uiso   1.00
H979   H     0.77176   0.13658   0.60703   0.00000  Uiso   1.00
H980   H     0.88515   0.17811   0.89060   0.00000  Uiso   1.00
H981   H     0.98247   0.21051   0.60941   0.00000  Uiso   1.00
H982   H     0.69482   0.14523   0.89303   0.00000  Uiso   1.00
H983   H     0.66793   0.13301   0.97408   0.00000  Uiso   1.00
H984   H     0.68408   0.23417   0.53226   0.00000  Uiso   1.00
C985   C     0.98555   0.02175   0.71491   0.00000  Uiso   1.00
C986   C     0.68126   0.31162   0.78487   0.00000  Uiso   1.00
C987   C     0.98471   0.31198   0.71768   0.00000  Uiso   1.00
C988   C     0.68222   0.02138   0.78204   0.00000  Uiso   1.00
H989   H     0.97467   0.29492   0.69185   0.00000  Uiso   1.00
H990   H     0.69240   0.03844   0.80778   0.00000  Uiso   1.00
C991   C     0.99896   0.29036   0.75206   0.00000  Uiso   1.00
C992   C     0.66780   0.04299   0.74776   0.00000  Uiso   1.00
C993   C     0.85242   0.13485   0.77053   0.00000  Uiso   1.00
C994   C     0.81391   0.19931   0.73097   0.00000  Uiso   1.00
C995   C     0.80344   0.13445   0.76969   0.00000  Uiso   1.00
C996   C     0.86319   0.19898   0.73057   0.00000  Uiso   1.00
N997   N     0.78403   0.16668   0.74999   0.00000  Uiso   1.00
N998   N     0.88264   0.16666   0.75001   0.00000  Uiso   1.00
N999   N     0.94056   0.11934   0.54971   0.00000  Uiso   1.00
O1000  O     0.95216   0.13418   0.58411   0.00000  Uiso   1.00
O1001  O     0.95467   0.08224   0.53682   0.00000  Uiso   1.00
N1002  N     0.74876   0.25095   0.96210   0.00000  Uiso   1.00
O1003  O     0.75449   0.29084   0.96285   0.00000  Uiso   1.00
O1004  O     0.71724   0.23636   0.94347   0.00000  Uiso   1.00
C1005  C     0.85346   0.15263   0.60112   0.00000  Uiso   1.00
O1006  O     0.84719   0.18494   0.62136   0.00000  Uiso   1.00
O1007  O     0.85252   0.11463   0.62471   0.00000  Uiso   1.00
H1008  H     0.84570   0.11793   0.65859   0.00000  Uiso   1.00
C1009  C     0.84844   0.24342   0.92306   0.00000  Uiso   1.00
O1010  O     0.88608   0.26055   0.92268   0.00000  Uiso   1.00
O1011  O     0.82838   0.24992   0.88677   0.00000  Uiso   1.00
H1012  H     0.84839   0.26928   0.86227   0.00000  Uiso   1.00
C1013  C     0.97161   0.04298   0.67660   0.00000  Uiso   1.00
O1014  O     0.98935   0.07636   0.66098   0.00000  Uiso   1.00
O1015  O     0.93896   0.02399   0.65738   0.00000  Uiso   1.00
H1016  H     0.93238   0.04125   0.63149   0.00000  Uiso   1.00
C1017  C     0.69531   0.29046   0.82314   0.00000  Uiso   1.00
O1018  O     0.67742   0.25720   0.83902   0.00000  Uiso   1.00
O1019  O     0.72832   0.30939   0.84197   0.00000  Uiso   1.00
H1020  H     0.73508   0.29219   0.86780   0.00000  Uiso   1.00
N1021  N     0.86897   0.10260   0.79566   0.00000  Uiso   1.00
O1022  O     0.87521   0.06538   0.78009   0.00000  Uiso   1.00
O1023  O     0.86663   0.10785   0.83799   0.00000  Uiso   1.00
N1024  N     0.79576   0.23538   0.71262   0.00000  Uiso   1.00
O1025  O     0.79266   0.27038   0.73302   0.00000  Uiso   1.00
O1026  O     0.78429   0.23420   0.67461   0.00000  Uiso   1.00
N1027  N     0.77436   0.09997   0.79070   0.00000  Uiso   1.00
O1028  O     0.78237   0.06391   0.77242   0.00000  Uiso   1.00
O1029  O     0.74815   0.10220   0.83226   0.00000  Uiso   1.00
N1030  N     0.89207   0.23365   0.70992   0.00000  Uiso   1.00
O1031  O     0.88689   0.26833   0.73111   0.00000  Uiso   1.00
O1032  O     0.91146   0.23445   0.66648   0.00000  Uiso   1.00
O1033  O     0.03958   0.43989   0.75000   0.00000  Uiso   1.00
O1034  O     0.29375   0.56011   0.75000   0.00000  Uiso   1.00
O1035  O     0.29372   0.43988   0.75000   0.00000  Uiso   1.00
O1036  O     0.03961   0.56012   0.74999   0.00000  Uiso   1.00
C1037  C     0.00045   0.42097   0.74892   0.00000  Uiso   1.00
C1038  C     0.33291   0.57904   0.75102   0.00000  Uiso   1.00
O1039  O     0.01852   0.50001   0.81491   0.00000  Uiso   1.00
O1040  O     0.31481   0.49999   0.68508   0.00000  Uiso   1.00
O1041  O     0.27267   0.50000   0.81492   0.00000  Uiso   1.00
O1042  O     0.06067   0.50000   0.68508   0.00000  Uiso   1.00
C1043  C     0.30611   0.49898   0.83621   0.00000  Uiso   1.00
C1044  C     0.02742   0.50064   0.66379   0.00000  Uiso   1.00
Cu1045 Cu    0.04689   0.50001   0.75000   0.00000  Uiso   1.00
Cu1046 Cu    0.28645   0.49999   0.75000   0.00000  Uiso   1.00
C1047  C     0.29156   0.49627   0.88601   0.00000  Uiso   1.00
C1048  C     0.04365   0.50751   0.61437   0.00000  Uiso   1.00
C1049  C     0.30862   0.47741   0.95685   0.00000  Uiso   1.00
C1050  C     0.03884   0.54753   0.54808   0.00000  Uiso   1.00
C1051  C     0.32427   0.48429   0.91019   0.00000  Uiso   1.00
C1052  C     0.01805   0.53347   0.59227   0.00000  Uiso   1.00
C1053  C     0.24414   0.50482   0.90971   0.00000  Uiso   1.00
C1054  C     0.08966   0.49446   0.59101   0.00000  Uiso   1.00
C1055  C     0.22952   0.50417   0.95740   0.00000  Uiso   1.00
C1056  C     0.11444   0.51291   0.54878   0.00000  Uiso   1.00
C1057  C     0.26058   0.48538   0.98067   0.00000  Uiso   1.00
C1058  C     0.08722   0.53844   0.52621   0.00000  Uiso   1.00
C1059  C     0.18380   0.51936   0.98187   0.00000  Uiso   1.00
C1060  C     0.16465   0.50604   0.52801   0.00000  Uiso   1.00
C1061  C     0.19698   0.48740   0.55126   0.00000  Uiso   1.00
C1062  C     0.15755   0.54883   0.96212   0.00000  Uiso   1.00
C1063  C     0.24391   0.47598   0.52721   0.00000  Uiso   1.00
C1064  C     0.10898   0.55649   0.98338   0.00000  Uiso   1.00
H1065  H     0.10510   0.46992   0.60703   0.00000  Uiso   1.00
H1066  H     0.21849   0.51145   0.89060   0.00000  Uiso   1.00
H1067  H     0.31580   0.54384   0.60941   0.00000  Uiso   1.00
H1068  H     0.02815   0.47856   0.89303   0.00000  Uiso   1.00
H1069  H     0.00126   0.46634   0.97408   0.00000  Uiso   1.00
H1070  H     0.01742   0.56750   0.53226   0.00000  Uiso   1.00
C1071  C     0.31888   0.35508   0.71491   0.00000  Uiso   1.00
C1072  C     0.01460   0.64496   0.78487   0.00000  Uiso   1.00
C1073  C     0.31804   0.64531   0.71768   0.00000  Uiso   1.00
C1074  C     0.01555   0.35471   0.78204   0.00000  Uiso   1.00
H1075  H     0.30801   0.62825   0.69185   0.00000  Uiso   1.00
H1076  H     0.02573   0.37177   0.80778   0.00000  Uiso   1.00
C1077  C     0.33230   0.62369   0.75206   0.00000  Uiso   1.00
C1078  C     0.00113   0.37633   0.74776   0.00000  Uiso   1.00
C1079  C     0.18575   0.46818   0.77053   0.00000  Uiso   1.00
C1080  C     0.14724   0.53264   0.73097   0.00000  Uiso   1.00
C1081  C     0.13677   0.46778   0.76969   0.00000  Uiso   1.00
C1082  C     0.19652   0.53231   0.73057   0.00000  Uiso   1.00
N1083  N     0.11736   0.50001   0.74999   0.00000  Uiso   1.00
N1084  N     0.21597   0.49999   0.75001   0.00000  Uiso   1.00
N1085  N     0.27389   0.45268   0.54971   0.00000  Uiso   1.00
O1086  O     0.28550   0.46751   0.58411   0.00000  Uiso   1.00
O1087  O     0.28801   0.41557   0.53682   0.00000  Uiso   1.00
N1088  N     0.08209   0.58429   0.96210   0.00000  Uiso   1.00
O1089  O     0.08782   0.62417   0.96285   0.00000  Uiso   1.00
O1090  O     0.05057   0.56969   0.94347   0.00000  Uiso   1.00
C1091  C     0.18679   0.48597   0.60112   0.00000  Uiso   1.00
O1092  O     0.18053   0.51827   0.62136   0.00000  Uiso   1.00
O1093  O     0.18586   0.44796   0.62471   0.00000  Uiso   1.00
H1094  H     0.17903   0.45127   0.65859   0.00000  Uiso   1.00
C1095  C     0.18178   0.57676   0.92306   0.00000  Uiso   1.00
O1096  O     0.21941   0.59389   0.92268   0.00000  Uiso   1.00
O1097  O     0.16171   0.58326   0.88677   0.00000  Uiso   1.00
H1098  H     0.18172   0.60261   0.86227   0.00000  Uiso   1.00
C1099  C     0.30494   0.37631   0.67660   0.00000  Uiso   1.00
O1100  O     0.32269   0.40969   0.66098   0.00000  Uiso   1.00
O1101  O     0.27229   0.35732   0.65738   0.00000  Uiso   1.00
H1102  H     0.26572   0.37459   0.63149   0.00000  Uiso   1.00
C1103  C     0.02865   0.62379   0.82314   0.00000  Uiso   1.00
O1104  O     0.01075   0.59054   0.83902   0.00000  Uiso   1.00
O1105  O     0.06165   0.64273   0.84197   0.00000  Uiso   1.00
H1106  H     0.06841   0.62553   0.86780   0.00000  Uiso   1.00
N1107  N     0.20231   0.43593   0.79566   0.00000  Uiso   1.00
O1108  O     0.20854   0.39871   0.78009   0.00000  Uiso   1.00
O1109  O     0.19997   0.44118   0.83799   0.00000  Uiso   1.00
N1110  N     0.12909   0.56872   0.71262   0.00000  Uiso   1.00
O1111  O     0.12599   0.60372   0.73302   0.00000  Uiso   1.00
O1112  O     0.11763   0.56753   0.67461   0.00000  Uiso   1.00
N1113  N     0.10769   0.43330   0.79070   0.00000  Uiso   1.00
O1114  O     0.11571   0.39724   0.77242   0.00000  Uiso   1.00
O1115  O     0.08149   0.43553   0.83226   0.00000  Uiso   1.00
N1116  N     0.22541   0.56698   0.70992   0.00000  Uiso   1.00
O1117  O     0.22023   0.60166   0.73111   0.00000  Uiso   1.00
O1118  O     0.24480   0.56779   0.66648   0.00000  Uiso   1.00
O1119  O     0.37291   0.43989   0.75000   0.00000  Uiso   1.00
O1120  O     0.62709   0.56011   0.75000   0.00000  Uiso   1.00
O1121  O     0.62706   0.43988   0.75000   0.00000  Uiso   1.00
O1122  O     0.37294   0.56012   0.74999   0.00000  Uiso   1.00
C1123  C     0.33378   0.42097   0.74892   0.00000  Uiso   1.00
C1124  C     0.66624   0.57904   0.75102   0.00000  Uiso   1.00
O1125  O     0.35186   0.50001   0.81491   0.00000  Uiso   1.00
O1126  O     0.64814   0.49999   0.68508   0.00000  Uiso   1.00
O1127  O     0.60600   0.50000   0.81492   0.00000  Uiso   1.00
O1128  O     0.39400   0.50000   0.68508   0.00000  Uiso   1.00
C1129  C     0.63944   0.49898   0.83621   0.00000  Uiso   1.00
C1130  C     0.36075   0.50064   0.66379   0.00000  Uiso   1.00
Cu1131 Cu    0.38022   0.50001   0.75000   0.00000  Uiso   1.00
Cu1132 Cu    0.61978   0.49999   0.75000   0.00000  Uiso   1.00
C1133  C     0.62489   0.49627   0.88601   0.00000  Uiso   1.00
C1134  C     0.37699   0.50751   0.61437   0.00000  Uiso   1.00
C1135  C     0.64195   0.47741   0.95685   0.00000  Uiso   1.00
C1136  C     0.37218   0.54753   0.54808   0.00000  Uiso   1.00
C1137  C     0.65760   0.48429   0.91019   0.00000  Uiso   1.00
C1138  C     0.35139   0.53347   0.59227   0.00000  Uiso   1.00
C1139  C     0.57747   0.50482   0.90971   0.00000  Uiso   1.00
C1140  C     0.42299   0.49446   0.59101   0.00000  Uiso   1.00
C1141  C     0.56285   0.50417   0.95740   0.00000  Uiso   1.00
C1142  C     0.44778   0.51291   0.54878   0.00000  Uiso   1.00
C1143  C     0.59392   0.48538   0.98067   0.00000  Uiso   1.00
C1144  C     0.42055   0.53844   0.52621   0.00000  Uiso   1.00
C1145  C     0.51713   0.51936   0.98187   0.00000  Uiso   1.00
C1146  C     0.49798   0.50604   0.52801   0.00000  Uiso   1.00
C1147  C     0.53032   0.48740   0.55126   0.00000  Uiso   1.00
C1148  C     0.49089   0.54883   0.96212   0.00000  Uiso   1.00
C1149  C     0.57724   0.47598   0.52721   0.00000  Uiso   1.00
C1150  C     0.44231   0.55649   0.98338   0.00000  Uiso   1.00
H1151  H     0.43843   0.46992   0.60703   0.00000  Uiso   1.00
H1152  H     0.55182   0.51145   0.89060   0.00000  Uiso   1.00
H1153  H     0.64913   0.54384   0.60941   0.00000  Uiso   1.00
H1154  H     0.36148   0.47856   0.89303   0.00000  Uiso   1.00
H1155  H     0.33460   0.46634   0.97408   0.00000  Uiso   1.00
H1156  H     0.35075   0.56750   0.53226   0.00000  Uiso   1.00
C1157  C     0.65222   0.35508   0.71491   0.00000  Uiso   1.00
C1158  C     0.34793   0.64496   0.78487   0.00000  Uiso   1.00
C1159  C     0.65137   0.64531   0.71768   0.00000  Uiso   1.00
C1160  C     0.34888   0.35471   0.78204   0.00000  Uiso   1.00
H1161  H     0.64134   0.62825   0.69185   0.00000  Uiso   1.00
H1162  H     0.35907   0.37177   0.80778   0.00000  Uiso   1.00
C1163  C     0.66563   0.62369   0.75206   0.00000  Uiso   1.00
C1164  C     0.33447   0.37633   0.74776   0.00000  Uiso   1.00
C1165  C     0.51909   0.46818   0.77053   0.00000  Uiso   1.00
C1166  C     0.48058   0.53264   0.73097   0.00000  Uiso   1.00
C1167  C     0.47010   0.46778   0.76969   0.00000  Uiso   1.00
C1168  C     0.52985   0.53231   0.73057   0.00000  Uiso   1.00
N1169  N     0.45069   0.50001   0.74999   0.00000  Uiso   1.00
N1170  N     0.54931   0.49999   0.75001   0.00000  Uiso   1.00
N1171  N     0.60722   0.45268   0.54971   0.00000  Uiso   1.00
O1172  O     0.61883   0.46751   0.58411   0.00000  Uiso   1.00
O1173  O     0.62134   0.41557   0.53682   0.00000  Uiso   1.00
N1174  N     0.41542   0.58429   0.96210   0.00000  Uiso   1.00
O1175  O     0.42115   0.62417   0.96285   0.00000  Uiso   1.00
O1176  O     0.38390   0.56969   0.94347   0.00000  Uiso   1.00
C1177  C     0.52012   0.48597   0.60112   0.00000  Uiso   1.00
O1178  O     0.51386   0.51827   0.62136   0.00000  Uiso   1.00
O1179  O     0.51919   0.44796   0.62471   0.00000  Uiso   1.00
H1180  H     0.51236   0.45127   0.65859   0.00000  Uiso   1.00
C1181  C     0.51511   0.57676   0.92306   0.00000  Uiso   1.00
O1182  O     0.55275   0.59389   0.92268   0.00000  Uiso   1.00
O1183  O     0.49505   0.58326   0.88677   0.00000  Uiso   1.00
H1184  H     0.51505   0.60261   0.86227   0.00000  Uiso   1.00
C1185  C     0.63827   0.37631   0.67660   0.00000  Uiso   1.00
O1186  O     0.65602   0.40969   0.66098   0.00000  Uiso   1.00
O1187  O     0.60562   0.35732   0.65738   0.00000  Uiso   1.00
H1188  H     0.59905   0.37459   0.63149   0.00000  Uiso   1.00
C1189  C     0.36198   0.62379   0.82314   0.00000  Uiso   1.00
O1190  O     0.34408   0.59054   0.83902   0.00000  Uiso   1.00
O1191  O     0.39499   0.64273   0.84197   0.00000  Uiso   1.00
H1192  H     0.40174   0.62553   0.86780   0.00000  Uiso   1.00
N1193  N     0.53564   0.43593   0.79566   0.00000  Uiso   1.00
O1194  O     0.54188   0.39871   0.78009   0.00000  Uiso   1.00
O1195  O     0.53330   0.44118   0.83799   0.00000  Uiso   1.00
N1196  N     0.46242   0.56872   0.71262   0.00000  Uiso   1.00
O1197  O     0.45932   0.60372   0.73302   0.00000  Uiso   1.00
O1198  O     0.45096   0.56753   0.67461   0.00000  Uiso   1.00
N1199  N     0.44103   0.43330   0.79070   0.00000  Uiso   1.00
O1200  O     0.44904   0.39724   0.77242   0.00000  Uiso   1.00
O1201  O     0.41482   0.43553   0.83226   0.00000  Uiso   1.00
N1202  N     0.55874   0.56698   0.70992   0.00000  Uiso   1.00
O1203  O     0.55356   0.60166   0.73111   0.00000  Uiso   1.00
O1204  O     0.57813   0.56779   0.66648   0.00000  Uiso   1.00
O1205  O     0.70625   0.43989   0.75000   0.00000  Uiso   1.00
O1206  O     0.96042   0.56011   0.75000   0.00000  Uiso   1.00
O1207  O     0.96039   0.43988   0.75000   0.00000  Uiso   1.00
O1208  O     0.70628   0.56012   0.74999   0.00000  Uiso   1.00
C1209  C     0.66712   0.42097   0.74892   0.00000  Uiso   1.00
C1210  C     0.99957   0.57904   0.75102   0.00000  Uiso   1.00
O1211  O     0.68519   0.50001   0.81491   0.00000  Uiso   1.00
O1212  O     0.98148   0.49999   0.68508   0.00000  Uiso   1.00
O1213  O     0.93933   0.50000   0.81492   0.00000  Uiso   1.00
O1214  O     0.72733   0.50000   0.68508   0.00000  Uiso   1.00
C1215  C     0.97277   0.49898   0.83621   0.00000  Uiso   1.00
C1216  C     0.69408   0.50064   0.66379   0.00000  Uiso   1.00
Cu1217 Cu    0.71355   0.50001   0.75000   0.00000  Uiso   1.00
Cu1218 Cu    0.95311   0.49999   0.75000   0.00000  Uiso   1.00
C1219  C     0.95822   0.49627   0.88601   0.00000  Uiso   1.00
C1220  C     0.71032   0.50751   0.61437   0.00000  Uiso   1.00
C1221  C     0.97529   0.47741   0.95685   0.00000  Uiso   1.00
C1222  C     0.70551   0.54753   0.54808   0.00000  Uiso   1.00
C1223  C     0.99094   0.48429   0.91019   0.00000  Uiso   1.00
C1224  C     0.68472   0.53347   0.59227   0.00000  Uiso   1.00
C1225  C     0.91080   0.50482   0.90971   0.00000  Uiso   1.00
C1226  C     0.75633   0.49446   0.59101   0.00000  Uiso   1.00
C1227  C     0.89619   0.50417   0.95740   0.00000  Uiso   1.00
C1228  C     0.78111   0.51291   0.54878   0.00000  Uiso   1.00
C1229  C     0.92725   0.48538   0.98067   0.00000  Uiso   1.00
C1230  C     0.75388   0.53844   0.52621   0.00000  Uiso   1.00
C1231  C     0.85046   0.51936   0.98187   0.00000  Uiso   1.00
C1232  C     0.83131   0.50604   0.52801   0.00000  Uiso   1.00
C1233  C     0.86365   0.48740   0.55126   0.00000  Uiso   1.00
C1234  C     0.82422   0.54883   0.96212   0.00000  Uiso   1.00
C1235  C     0.91057   0.47598   0.52721   0.00000  Uiso   1.00
C1236  C     0.77564   0.55649   0.98338   0.00000  Uiso   1.00
H1237  H     0.77176   0.46992   0.60703   0.00000  Uiso   1.00
H1238  H     0.88515   0.51145   0.89060   0.00000  Uiso   1.00
H1239  H     0.98247   0.54384   0.60941   0.00000  Uiso   1.00
H1240  H     0.69482   0.47856   0.89303   0.00000  Uiso   1.00
H1241  H     0.66793   0.46634   0.97408   0.00000  Uiso   1.00
H1242  H     0.68408   0.56750   0.53226   0.00000  Uiso   1.00
C1243  C     0.98555   0.35508   0.71491   0.00000  Uiso   1.00
C1244  C     0.68126   0.64496   0.78487   0.00000  Uiso   1.00
C1245  C     0.98471   0.64531   0.71768   0.00000  Uiso   1.00
C1246  C     0.68222   0.35471   0.78204   0.00000  Uiso   1.00
H1247  H     0.97467   0.62825   0.69185   0.00000  Uiso   1.00
H1248  H     0.69240   0.37177   0.80778   0.00000  Uiso   1.00
C1249  C     0.99896   0.62369   0.75206   0.00000  Uiso   1.00
C1250  C     0.66780   0.37633   0.74776   0.00000  Uiso   1.00
C1251  C     0.85242   0.46818   0.77053   0.00000  Uiso   1.00
C1252  C     0.81391   0.53264   0.73097   0.00000  Uiso   1.00
C1253  C     0.80344   0.46778   0.76969   0.00000  Uiso   1.00
C1254  C     0.86319   0.53231   0.73057   0.00000  Uiso   1.00
N1255  N     0.78403   0.50001   0.74999   0.00000  Uiso   1.00
N1256  N     0.88264   0.49999   0.75001   0.00000  Uiso   1.00
N1257  N     0.94056   0.45268   0.54971   0.00000  Uiso   1.00
O1258  O     0.95216   0.46751   0.58411   0.00000  Uiso   1.00
O1259  O     0.95467   0.41557   0.53682   0.00000  Uiso   1.00
N1260  N     0.74876   0.58429   0.96210   0.00000  Uiso   1.00
O1261  O     0.75449   0.62417   0.96285   0.00000  Uiso   1.00
O1262  O     0.71724   0.56969   0.94347   0.00000  Uiso   1.00
C1263  C     0.85346   0.48597   0.60112   0.00000  Uiso   1.00
O1264  O     0.84719   0.51827   0.62136   0.00000  Uiso   1.00
O1265  O     0.85252   0.44796   0.62471   0.00000  Uiso   1.00
H1266  H     0.84570   0.45127   0.65859   0.00000  Uiso   1.00
C1267  C     0.84844   0.57676   0.92306   0.00000  Uiso   1.00
O1268  O     0.88608   0.59389   0.92268   0.00000  Uiso   1.00
O1269  O     0.82838   0.58326   0.88677   0.00000  Uiso   1.00
H1270  H     0.84839   0.60261   0.86227   0.00000  Uiso   1.00
C1271  C     0.97161   0.37631   0.67660   0.00000  Uiso   1.00
O1272  O     0.98935   0.40969   0.66098   0.00000  Uiso   1.00
O1273  O     0.93896   0.35732   0.65738   0.00000  Uiso   1.00
H1274  H     0.93238   0.37459   0.63149   0.00000  Uiso   1.00
C1275  C     0.69531   0.62379   0.82314   0.00000  Uiso   1.00
O1276  O     0.67742   0.59054   0.83902   0.00000  Uiso   1.00
O1277  O     0.72832   0.64273   0.84197   0.00000  Uiso   1.00
H1278  H     0.73508   0.62553   0.86780   0.00000  Uiso   1.00
N1279  N     0.86897   0.43593   0.79566   0.00000  Uiso   1.00
O1280  O     0.87521   0.39871   0.78009   0.00000  Uiso   1.00
O1281  O     0.86663   0.44118   0.83799   0.00000  Uiso   1.00
N1282  N     0.79576   0.56872   0.71262   0.00000  Uiso   1.00
O1283  O     0.79266   0.60372   0.73302   0.00000  Uiso   1.00
O1284  O     0.78429   0.56753   0.67461   0.00000  Uiso   1.00
N1285  N     0.77436   0.43330   0.79070   0.00000  Uiso   1.00
O1286  O     0.78237   0.39724   0.77242   0.00000  Uiso   1.00
O1287  O     0.74815   0.43553   0.83226   0.00000  Uiso   1.00
N1288  N     0.89207   0.56698   0.70992   0.00000  Uiso   1.00
O1289  O     0.88689   0.60166   0.73111   0.00000  Uiso   1.00
O1290  O     0.91146   0.56779   0.66648   0.00000  Uiso   1.00
O1291  O     0.03958   0.77322   0.75000   0.00000  Uiso   1.00
O1292  O     0.29375   0.89345   0.75000   0.00000  Uiso   1.00
O1293  O     0.29372   0.77321   0.75000   0.00000  Uiso   1.00
O1294  O     0.03961   0.89346   0.74999   0.00000  Uiso   1.00
C1295  C     0.00045   0.75431   0.74892   0.00000  Uiso   1.00
C1296  C     0.33291   0.91237   0.75102   0.00000  Uiso   1.00
O1297  O     0.01852   0.83334   0.81491   0.00000  Uiso   1.00
O1298  O     0.31481   0.83332   0.68508   0.00000  Uiso   1.00
O1299  O     0.27267   0.83333   0.81492   0.00000  Uiso   1.00
O1300  O     0.06067   0.83333   0.68508   0.00000  Uiso   1.00
C1301  C     0.30611   0.83231   0.83621   0.00000  Uiso   1.00
C1302  C     0.02742   0.83397   0.66379   0.00000  Uiso   1.00
Cu1303 Cu    0.04689   0.83334   0.75000   0.00000  Uiso   1.00
Cu1304 Cu    0.28645   0.83333   0.75000   0.00000  Uiso   1.00
C1305  C     0.29156   0.82961   0.88601   0.00000  Uiso   1.00
C1306  C     0.04365   0.84084   0.61437   0.00000  Uiso   1.00
C1307  C     0.30862   0.81074   0.95685   0.00000  Uiso   1.00
C1308  C     0.03884   0.88086   0.54808   0.00000  Uiso   1.00
C1309  C     0.32427   0.81763   0.91019   0.00000  Uiso   1.00
C1310  C     0.01805   0.86681   0.59227   0.00000  Uiso   1.00
C1311  C     0.24414   0.83815   0.90971   0.00000  Uiso   1.00
C1312  C     0.08966   0.82779   0.59101   0.00000  Uiso   1.00
C1313  C     0.22952   0.83750   0.95740   0.00000  Uiso   1.00
C1314  C     0.11444   0.84624   0.54878   0.00000  Uiso   1.00
C1315  C     0.26058   0.81872   0.98067   0.00000  Uiso   1.00
C1316  C     0.08722   0.87177   0.52621   0.00000  Uiso   1.00
C1317  C     0.18380   0.85269   0.98187   0.00000  Uiso   1.00
C1318  C     0.16465   0.83937   0.52801   0.00000  Uiso   1.00
C1319  C     0.19698   0.82074   0.55126   0.00000  Uiso   1.00
C1320  C     0.15755   0.88216   0.96212   0.00000  Uiso   1.00
C1321  C     0.24391   0.80931   0.52721   0.00000  Uiso   1.00
C1322  C     0.10898   0.88983   0.98338   0.00000  Uiso   1.00
H1323  H     0.10510   0.80325   0.60703   0.00000  Uiso   1.00
H1324  H     0.21849   0.84478   0.89060   0.00000  Uiso   1.00
H1325  H     0.31580   0.87718   0.60941   0.00000  Uiso   1.00
H1326  H     0.02815   0.81190   0.89303   0.00000  Uiso   1.00
H1327  H     0.00126   0.79968   0.97408   0.00000  Uiso   1.00
H1328  H     0.01742   0.90084   0.53226   0.00000  Uiso   1.00
C1329  C     0.31888   0.68842   0.71491   0.00000  Uiso   1.00
C1330  C     0.01460   0.97829   0.78487   0.00000  Uiso   1.00
C1331  C     0.31804   0.97865   0.71768   0.00000  Uiso   1.00
C1332  C     0.01555   0.68805   0.78204   0.00000  Uiso   1.00
H1333  H     0.30801   0.96158   0.69185   0.00000  Uiso   1.00
H1334  H     0.02573   0.70510   0.80778   0.00000  Uiso   1.00
C1335  C     0.33230   0.95703   0.75206   0.00000  Uiso   1.00
C1336  C     0.00113   0.70966   0.74776   0.00000  Uiso   1.00
C1337  C     0.18575   0.80152   0.77053   0.00000  Uiso   1.00
C1338  C     0.14724   0.86597   0.73097   0.00000  Uiso   1.00
C1339  C     0.13677   0.80112   0.76969   0.00000  Uiso   1.00
C1340  C     0.19652   0.86564   0.73057   0.00000  Uiso   1.00
N1341  N     0.11736   0.83334   0.74999   0.00000  Uiso   1.00
N1342  N     0.21597   0.83332   0.75001   0.00000  Uiso   1.00
N1343  N     0.27389   0.78601   0.54971   0.00000  Uiso   1.00
O1344  O     0.28550   0.80084   0.58411   0.00000  Uiso   1.00
O1345  O     0.28801   0.74890   0.53682   0.00000  Uiso   1.00
N1346  N     0.08209   0.91762   0.96210   0.00000  Uiso   1.00
O1347  O     0.08782   0.95751   0.96285   0.00000  Uiso   1.00
O1348  O     0.05057   0.90302   0.94347   0.00000  Uiso   1.00
C1349  C     0.18679   0.81930   0.60112   0.00000  Uiso   1.00
O1350  O     0.18053   0.85160   0.62136   0.00000  Uiso   1.00
O1351  O     0.18586   0.78129   0.62471   0.00000  Uiso   1.00
H1352  H     0.17903   0.78460   0.65859   0.00000  Uiso   1.00
C1353  C     0.18178   0.91009   0.92306   0.00000  Uiso   1.00
O1354  O     0.21941   0.92722   0.92268   0.00000  Uiso   1.00
O1355  O     0.16171   0.91659   0.88677   0.00000  Uiso   1.00
H1356  H     0.18172   0.93594   0.86227   0.00000  Uiso   1.00
C1357  C     0.30494   0.70965   0.67660   0.00000  Uiso   1.00
O1358  O     0.32269   0.74302   0.66098   0.00000  Uiso   1.00
O1359  O     0.27229   0.69066   0.65738   0.00000  Uiso   1.00
H1360  H     0.26572   0.70792   0.63149   0.00000  Uiso   1.00
C1361  C     0.02865   0.95713   0.82314   0.00000  Uiso   1.00
O1362  O     0.01075   0.92387   0.83902   0.00000  Uiso   1.00
O1363  O     0.06165   0.97606   0.84197   0.00000  Uiso   1.00
H1364  H     0.06841   0.95886   0.86780   0.00000  Uiso   1.00
N1365  N     0.20231   0.76927   0.79566   0.00000  Uiso   1.00
O1366  O     0.20854   0.73204   0.78009   0.00000  Uiso   1.00
O1367  O     0.19997   0.77451   0.83799   0.00000  Uiso   1.00
N1368  N     0.12909   0.90205   0.71262   0.00000  Uiso   1.00
O1369  O     0.12599   0.93705   0.73302   0.00000  Uiso   1.00
O1370  O     0.11763   0.90086   0.67461   0.00000  Uiso   1.00
N1371  N     0.10769   0.76663   0.79070   0.00000  Uiso   1.00
O1372  O     0.11571   0.73058   0.77242   0.00000  Uiso   1.00
O1373  O     0.08149   0.76887   0.83226   0.00000  Uiso   1.00
N1374  N     0.22541   0.90032   0.70992   0.00000  Uiso   1.00
O1375  O     0.22023   0.93499   0.73111   0.00000  Uiso   1.00
O1376  O     0.24480   0.90112   0.66648   0.00000  Uiso   1.00
O1377  O     0.37291   0.77322   0.75000   0.00000  Uiso   1.00
O1378  O     0.62709   0.89345   0.75000   0.00000  Uiso   1.00
O1379  O     0.62706   0.77321   0.75000   0.00000  Uiso   1.00
O1380  O     0.37294   0.89346   0.74999   0.00000  Uiso   1.00
C1381  C     0.33378   0.75431   0.74892   0.00000  Uiso   1.00
C1382  C     0.66624   0.91237   0.75102   0.00000  Uiso   1.00
O1383  O     0.35186   0.83334   0.81491   0.00000  Uiso   1.00
O1384  O     0.64814   0.83332   0.68508   0.00000  Uiso   1.00
O1385  O     0.60600   0.83333   0.81492   0.00000  Uiso   1.00
O1386  O     0.39400   0.83333   0.68508   0.00000  Uiso   1.00
C1387  C     0.63944   0.83231   0.83621   0.00000  Uiso   1.00
C1388  C     0.36075   0.83397   0.66379   0.00000  Uiso   1.00
Cu1389 Cu    0.38022   0.83334   0.75000   0.00000  Uiso   1.00
Cu1390 Cu    0.61978   0.83333   0.75000   0.00000  Uiso   1.00
C1391  C     0.62489   0.82961   0.88601   0.00000  Uiso   1.00
C1392  C     0.37699   0.84084   0.61437   0.00000  Uiso   1.00
C1393  C     0.64195   0.81074   0.95685   0.00000  Uiso   1.00
C1394  C     0.37218   0.88086   0.54808   0.00000  Uiso   1.00
C1395  C     0.65760   0.81763   0.91019   0.00000  Uiso   1.00
C1396  C     0.35139   0.86681   0.59227   0.00000  Uiso   1.00
C1397  C     0.57747   0.83815   0.90971   0.00000  Uiso   1.00
C1398  C     0.42299   0.82779   0.59101   0.00000  Uiso   1.00
C1399  C     0.56285   0.83750   0.95740   0.00000  Uiso   1.00
C1400  C     0.44778   0.84624   0.54878   0.00000  Uiso   1.00
C1401  C     0.59392   0.81872   0.98067   0.00000  Uiso   1.00
C1402  C     0.42055   0.87177   0.52621   0.00000  Uiso   1.00
C1403  C     0.51713   0.85269   0.98187   0.00000  Uiso   1.00
C1404  C     0.49798   0.83937   0.52801   0.00000  Uiso   1.00
C1405  C     0.53032   0.82074   0.55126   0.00000  Uiso   1.00
C1406  C     0.49089   0.88216   0.96212   0.00000  Uiso   1.00
C1407  C     0.57724   0.80931   0.52721   0.00000  Uiso   1.00
C1408  C     0.44231   0.88983   0.98338   0.00000  Uiso   1.00
H1409  H     0.43843   0.80325   0.60703   0.00000  Uiso   1.00
H1410  H     0.55182   0.84478   0.89060   0.00000  Uiso   1.00
H1411  H     0.64913   0.87718   0.60941   0.00000  Uiso   1.00
H1412  H     0.36148   0.81190   0.89303   0.00000  Uiso   1.00
H1413  H     0.33460   0.79968   0.97408   0.00000  Uiso   1.00
H1414  H     0.35075   0.90084   0.53226   0.00000  Uiso   1.00
C1415  C     0.65222   0.68842   0.71491   0.00000  Uiso   1.00
C1416  C     0.34793   0.97829   0.78487   0.00000  Uiso   1.00
C1417  C     0.65137   0.97865   0.71768   0.00000  Uiso   1.00
C1418  C     0.34888   0.68805   0.78204   0.00000  Uiso   1.00
H1419  H     0.64134   0.96158   0.69185   0.00000  Uiso   1.00
H1420  H     0.35907   0.70510   0.80778   0.00000  Uiso   1.00
C1421  C     0.66563   0.95703   0.75206   0.00000  Uiso   1.00
C1422  C     0.33447   0.70966   0.74776   0.00000  Uiso   1.00
C1423  C     0.51909   0.80152   0.77053   0.00000  Uiso   1.00
C1424  C     0.48058   0.86597   0.73097   0.00000  Uiso   1.00
C1425  C     0.47010   0.80112   0.76969   0.00000  Uiso   1.00
C1426  C     0.52985   0.86564   0.73057   0.00000  Uiso   1.00
N1427  N     0.45069   0.83334   0.74999   0.00000  Uiso   1.00
N1428  N     0.54931   0.83332   0.75001   0.00000  Uiso   1.00
N1429  N     0.60722   0.78601   0.54971   0.00000  Uiso   1.00
O1430  O     0.61883   0.80084   0.58411   0.00000  Uiso   1.00
O1431  O     0.62134   0.74890   0.53682   0.00000  Uiso   1.00
N1432  N     0.41542   0.91762   0.96210   0.00000  Uiso   1.00
O1433  O     0.42115   0.95751   0.96285   0.00000  Uiso   1.00
O1434  O     0.38390   0.90302   0.94347   0.00000  Uiso   1.00
C1435  C     0.52012   0.81930   0.60112   0.00000  Uiso   1.00
O1436  O     0.51386   0.85160   0.62136   0.00000  Uiso   1.00
O1437  O     0.51919   0.78129   0.62471   0.00000  Uiso   1.00
H1438  H     0.51236   0.78460   0.65859   0.00000  Uiso   1.00
C1439  C     0.51511   0.91009   0.92306   0.00000  Uiso   1.00
O1440  O     0.55275   0.92722   0.92268   0.00000  Uiso   1.00
O1441  O     0.49505   0.91659   0.88677   0.00000  Uiso   1.00
H1442  H     0.51505   0.93594   0.86227   0.00000  Uiso   1.00
C1443  C     0.63827   0.70965   0.67660   0.00000  Uiso   1.00
O1444  O     0.65602   0.74302   0.66098   0.00000  Uiso   1.00
O1445  O     0.60562   0.69066   0.65738   0.00000  Uiso   1.00
H1446  H     0.59905   0.70792   0.63149   0.00000  Uiso   1.00
C1447  C     0.36198   0.95713   0.82314   0.00000  Uiso   1.00
O1448  O     0.34408   0.92387   0.83902   0.00000  Uiso   1.00
O1449  O     0.39499   0.97606   0.84197   0.00000  Uiso   1.00
H1450  H     0.40174   0.95886   0.86780   0.00000  Uiso   1.00
N1451  N     0.53564   0.76927   0.79566   0.00000  Uiso   1.00
O1452  O     0.54188   0.73204   0.78009   0.00000  Uiso   1.00
O1453  O     0.53330   0.77451   0.83799   0.00000  Uiso   1.00
N1454  N     0.46242   0.90205   0.71262   0.00000  Uiso   1.00
O1455  O     0.45932   0.93705   0.73302   0.00000  Uiso   1.00
O1456  O     0.45096   0.90086   0.67461   0.00000  Uiso   1.00
N1457  N     0.44103   0.76663   0.79070   0.00000  Uiso   1.00
O1458  O     0.44904   0.73058   0.77242   0.00000  Uiso   1.00
O1459  O     0.41482   0.76887   0.83226   0.00000  Uiso   1.00
N1460  N     0.55874   0.90032   0.70992   0.00000  Uiso   1.00
O1461  O     0.55356   0.93499   0.73111   0.00000  Uiso   1.00
O1462  O     0.57813   0.90112   0.66648   0.00000  Uiso   1.00
O1463  O     0.70625   0.77322   0.75000   0.00000  Uiso   1.00
O1464  O     0.96042   0.89345   0.75000   0.00000  Uiso   1.00
O1465  O     0.96039   0.77321   0.75000   0.00000  Uiso   1.00
O1466  O     0.70628   0.89346   0.74999   0.00000  Uiso   1.00
C1467  C     0.66712   0.75431   0.74892   0.00000  Uiso   1.00
C1468  C     0.99957   0.91237   0.75102   0.00000  Uiso   1.00
O1469  O     0.68519   0.83334   0.81491   0.00000  Uiso   1.00
O1470  O     0.98148   0.83332   0.68508   0.00000  Uiso   1.00
O1471  O     0.93933   0.83333   0.81492   0.00000  Uiso   1.00
O1472  O     0.72733   0.83333   0.68508   0.00000  Uiso   1.00
C1473  C     0.97277   0.83231   0.83621   0.00000  Uiso   1.00
C1474  C     0.69408   0.83397   0.66379   0.00000  Uiso   1.00
Cu1475 Cu    0.71355   0.83334   0.75000   0.00000  Uiso   1.00
Cu1476 Cu    0.95311   0.83333   0.75000   0.00000  Uiso   1.00
C1477  C     0.95822   0.82961   0.88601   0.00000  Uiso   1.00
C1478  C     0.71032   0.84084   0.61437   0.00000  Uiso   1.00
C1479  C     0.97529   0.81074   0.95685   0.00000  Uiso   1.00
C1480  C     0.70551   0.88086   0.54808   0.00000  Uiso   1.00
C1481  C     0.99094   0.81763   0.91019   0.00000  Uiso   1.00
C1482  C     0.68472   0.86681   0.59227   0.00000  Uiso   1.00
C1483  C     0.91080   0.83815   0.90971   0.00000  Uiso   1.00
C1484  C     0.75633   0.82779   0.59101   0.00000  Uiso   1.00
C1485  C     0.89619   0.83750   0.95740   0.00000  Uiso   1.00
C1486  C     0.78111   0.84624   0.54878   0.00000  Uiso   1.00
C1487  C     0.92725   0.81872   0.98067   0.00000  Uiso   1.00
C1488  C     0.75388   0.87177   0.52621   0.00000  Uiso   1.00
C1489  C     0.85046   0.85269   0.98187   0.00000  Uiso   1.00
C1490  C     0.83131   0.83937   0.52801   0.00000  Uiso   1.00
C1491  C     0.86365   0.82074   0.55126   0.00000  Uiso   1.00
C1492  C     0.82422   0.88216   0.96212   0.00000  Uiso   1.00
C1493  C     0.91057   0.80931   0.52721   0.00000  Uiso   1.00
C1494  C     0.77564   0.88983   0.98338   0.00000  Uiso   1.00
H1495  H     0.77176   0.80325   0.60703   0.00000  Uiso   1.00
H1496  H     0.88515   0.84478   0.89060   0.00000  Uiso   1.00
H1497  H     0.98247   0.87718   0.60941   0.00000  Uiso   1.00
H1498  H     0.69482   0.81190   0.89303   0.00000  Uiso   1.00
H1499  H     0.66793   0.79968   0.97408   0.00000  Uiso   1.00
H1500  H     0.68408   0.90084   0.53226   0.00000  Uiso   1.00
C1501  C     0.98555   0.68842   0.71491   0.00000  Uiso   1.00
C1502  C     0.68126   0.97829   0.78487   0.00000  Uiso   1.00
C1503  C     0.98471   0.97865   0.71768   0.00000  Uiso   1.00
C1504  C     0.68222   0.68805   0.78204   0.00000  Uiso   1.00
H1505  H     0.97467   0.96158   0.69185   0.00000  Uiso   1.00
H1506  H     0.69240   0.70510   0.80778   0.00000  Uiso   1.00
C1507  C     0.99896   0.95703   0.75206   0.00000  Uiso   1.00
C1508  C     0.66780   0.70966   0.74776   0.00000  Uiso   1.00
C1509  C     0.85242   0.80152   0.77053   0.00000  Uiso   1.00
C1510  C     0.81391   0.86597   0.73097   0.00000  Uiso   1.00
C1511  C     0.80344   0.80112   0.76969   0.00000  Uiso   1.00
C1512  C     0.86319   0.86564   0.73057   0.00000  Uiso   1.00
N1513  N     0.78403   0.83334   0.74999   0.00000  Uiso   1.00
N1514  N     0.88264   0.83332   0.75001   0.00000  Uiso   1.00
N1515  N     0.94056   0.78601   0.54971   0.00000  Uiso   1.00
O1516  O     0.95216   0.80084   0.58411   0.00000  Uiso   1.00
O1517  O     0.95467   0.74890   0.53682   0.00000  Uiso   1.00
N1518  N     0.74876   0.91762   0.96210   0.00000  Uiso   1.00
O1519  O     0.75449   0.95751   0.96285   0.00000  Uiso   1.00
O1520  O     0.71724   0.90302   0.94347   0.00000  Uiso   1.00
C1521  C     0.85346   0.81930   0.60112   0.00000  Uiso   1.00
O1522  O     0.84719   0.85160   0.62136   0.00000  Uiso   1.00
O1523  O     0.85252   0.78129   0.62471   0.00000  Uiso   1.00
H1524  H     0.84570   0.78460   0.65859   0.00000  Uiso   1.00
C1525  C     0.84844   0.91009   0.92306   0.00000  Uiso   1.00
O1526  O     0.88608   0.92722   0.92268   0.00000  Uiso   1.00
O1527  O     0.82838   0.91659   0.88677   0.00000  Uiso   1.00
H1528  H     0.84839   0.93594   0.86227   0.00000  Uiso   1.00
C1529  C     0.97161   0.70965   0.67660   0.00000  Uiso   1.00
O1530  O     0.98935   0.74302   0.66098   0.00000  Uiso   1.00
O1531  O     0.93896   0.69066   0.65738   0.00000  Uiso   1.00
H1532  H     0.93238   0.70792   0.63149   0.00000  Uiso   1.00
C1533  C     0.69531   0.95713   0.82314   0.00000  Uiso   1.00
O1534  O     0.67742   0.92387   0.83902   0.00000  Uiso   1.00
O1535  O     0.72832   0.97606   0.84197   0.00000  Uiso   1.00
H1536  H     0.73508   0.95886   0.86780   0.00000  Uiso   1.00
N1537  N     0.86897   0.76927   0.79566   0.00000  Uiso   1.00
O1538  O     0.87521   0.73204   0.78009   0.00000  Uiso   1.00
O1539  O     0.86663   0.77451   0.83799   0.00000  Uiso   1.00
N1540  N     0.79576   0.90205   0.71262   0.00000  Uiso   1.00
O1541  O     0.79266   0.93705   0.73302   0.00000  Uiso   1.00
O1542  O     0.78429   0.90086   0.67461   0.00000  Uiso   1.00
N1543  N     0.77436   0.76663   0.79070   0.00000  Uiso   1.00
O1544  O     0.78237   0.73058   0.77242   0.00000  Uiso   1.00
O1545  O     0.74815   0.76887   0.83226   0.00000  Uiso   1.00
N1546  N     0.89207   0.90032   0.70992   0.00000  Uiso   1.00
O1547  O     0.88689   0.93499   0.73111   0.00000  Uiso   1.00
O1548  O     0.91146   0.90112   0.66648   0.00000  Uiso   1.00
loop_
_geom_bond_atom_site_label_1
_geom_bond_atom_site_label_2
_geom_bond_distance
_geom_bond_site_symmetry_2
_ccdc_geom_bond_type
O1     C5      1.301   .     A
O1     Cu13    1.953   .     S
O2     C6      1.301   .     A
O2     Cu14    1.953   .     S
O3     Cu14    1.949   .     S
O3     C91     1.298   .     S
O4     Cu13    1.949   .     S
O4     C178    1.298   1_455 S
C5     C46     1.442   .     S
C5     O175    1.298   1_455 S
C6     C45     1.442   .     S
C6     O90     1.298   .     S
O7     Cu13    1.938   .     S
O7     C183    1.308   1_455 S
O8     Cu14    1.938   .     S
O8     C98     1.312   .     S
O9     Cu14    1.924   .     S
O9     C11     1.307   .     A
O10    C12     1.302   .     A
O10    Cu13    1.924   .     S
C11    C15     1.471   .     S
C11    O93     1.308   .     S
C12    C16     1.471   .     S
C12    O180    1.312   1_455 S
Cu13   N51     2.040   .     S
Cu13   Cu186   2.715   1_455 S
Cu14   N52     2.040   .     S
Cu14   Cu99    2.715   .     S
C15    C19     1.398   .     A
C15    C21     1.398   .     A
C16    C22     1.399   .     A
C16    C20     1.391   .     A
C17    C25     1.410   .     A
C17    C19     1.391   .     A
C17    H123    1.082   .     S
C18    C26     1.411   .     A
C18    H38     1.082   .     S
C18    C20     1.388   .     A
C19    H122    1.080   .     S
C20    H207    1.078   1_455 S
C21    H34     1.080   .     S
C21    C23     1.409   .     A
C22    C24     1.413   .     A
C22    H33     1.075   .     S
C23    C27     1.425   .     A
C23    C25     1.413   .     A
C24    C26     1.423   .     A
C24    C28     1.438   .     A
C25    C805    1.401   .     S
C26    C806    1.403   1_554 S
C27    C30     1.430   .     A
C27    C802    1.426   .     S
C28    C29     1.439   .     A
C28    C801    1.426   1_554 S
C29    C59     1.477   .     S
C29    C31     1.411   .     A
C30    C32     1.403   .     A
C30    C63     1.490   .     S
C31    N53     1.440   .     S
C31    C799    1.401   1_554 S
C32    N56     1.435   .     S
C32    C800    1.403   .     S
H35    C106    1.078   .     S
H36    C191    1.080   1_455 S
H37    C189    1.082   1_455 S
C39    C67     1.488   .     S
C39    C557    1.390   1_545 S
C39    C132    1.412   .     S
C40    C71     1.487   .     S
C40    C300    1.390   .     S
C40    C217    1.412   1_455 S
C41    H43     1.084   .     S
C41    C45     1.397   .     A
C41    C297    1.390   .     S
C42    C46     1.397   .     A
C42    H44     1.084   .     S
C42    C556    1.390   1_545 S
C45    C126    1.412   .     S
C46    C211    1.412   1_455 S
C47    C49     1.425   .     A
C47    N52     1.374   .     A
C47    N75     1.430   .     S
C48    N78     1.433   .     S
C48    N51     1.377   .     A
C48    C50     1.423   .     A
C49    N81     1.426   .     S
C49    N51     1.376   .     A
C50    N84     1.425   .     S
C50    N52     1.375   .     A
N53    O54     1.300   .     A
N53    O55     1.301   .     A
N56    O57     1.301   .     A
N56    O58     1.301   .     A
C59    O60     1.219   .     D
C59    O61     1.399   .     S
O61    H62     1.014   .     S
C63    O65     1.399   .     S
C63    O64     1.223   .     D
O65    H66     1.014   .     S
C67    O68     1.222   .     D
C67    O69     1.399   .     S
O69    H70     1.014   .     S
C71    O73     1.399   .     S
C71    O72     1.222   .     D
O73    H74     1.014   .     S
N75    O76     1.301   .     A
N75    O77     1.300   .     A
N78    O80     1.299   .     A
N78    O79     1.301   .     A
N81    O82     1.301   .     A
N81    O83     1.299   .     A
N84    O85     1.301   .     A
N84    O86     1.298   .     A
O87    C91     1.301   .     A
O87    Cu99    1.953   .     S
O88    C92     1.301   .     A
O88    Cu100   1.953   .     S
O89    Cu100   1.949   .     S
O89    C177    1.298   .     S
O90    Cu99    1.949   .     S
C91    C132    1.442   .     S
C92    C131    1.442   .     S
C92    O176    1.298   .     S
O93    Cu99    1.938   .     S
O94    Cu100   1.938   .     S
O94    C184    1.312   .     S
O95    Cu100   1.924   .     S
O95    C97     1.307   .     A
O96    C98     1.302   .     A
O96    Cu99    1.924   .     S
C97    C101    1.471   .     S
C97    O179    1.308   .     S
C98    C102    1.471   .     S
Cu99   N137    2.040   .     S
Cu100  N138    2.040   .     S
Cu100  Cu185   2.715   .     S
C101   C105    1.398   .     A
C101   C107    1.398   .     A
C102   C108    1.399   .     A
C102   C106    1.391   .     A
C103   C111    1.410   .     A
C103   C105    1.391   .     A
C103   H209    1.082   .     S
C104   C112    1.411   .     A
C104   H124    1.082   .     S
C104   C106    1.388   .     A
C105   H208    1.080   .     S
C107   H120    1.080   .     S
C107   C109    1.409   .     A
C108   C110    1.413   .     A
C108   H119    1.075   .     S
C109   C113    1.425   .     A
C109   C111    1.413   .     A
C110   C112    1.423   .     A
C110   C114    1.438   .     A
C111   C891    1.401   .     S
C112   C892    1.403   1_554 S
C113   C116    1.430   .     A
C113   C888    1.426   .     S
C114   C115    1.439   .     A
C114   C887    1.426   1_554 S
C115   C145    1.477   .     S
C115   C117    1.411   .     A
C116   C118    1.403   .     A
C116   C149    1.490   .     S
C117   N139    1.440   .     S
C117   C885    1.401   1_554 S
C118   N142    1.435   .     S
C118   C886    1.403   .     S
H121   C192    1.078   .     S
C125   C153    1.488   .     S
C125   C643    1.390   1_545 S
C125   C218    1.412   .     S
C126   C157    1.487   .     S
C126   C386    1.390   .     S
C127   H129    1.084   .     S
C127   C131    1.397   .     A
C127   C383    1.390   .     S
C128   C132    1.397   .     A
C128   H130    1.084   .     S
C128   C642    1.390   1_545 S
C131   C212    1.412   .     S
C133   C135    1.425   .     A
C133   N138    1.374   .     A
C133   N161    1.430   .     S
C134   N164    1.433   .     S
C134   N137    1.377   .     A
C134   C136    1.423   .     A
C135   N167    1.426   .     S
C135   N137    1.376   .     A
C136   N170    1.425   .     S
C136   N138    1.375   .     A
N139   O140    1.300   .     A
N139   O141    1.301   .     A
N142   O143    1.301   .     A
N142   O144    1.301   .     A
C145   O146    1.219   .     D
C145   O147    1.399   .     S
O147   H148    1.014   .     S
C149   O151    1.399   .     S
C149   O150    1.223   .     D
O151   H152    1.014   .     S
C153   O154    1.222   .     D
C153   O155    1.399   .     S
O155   H156    1.014   .     S
C157   O159    1.399   .     S
C157   O158    1.222   .     D
O159   H160    1.014   .     S
N161   O162    1.301   .     A
N161   O163    1.300   .     A
N164   O166    1.299   .     A
N164   O165    1.301   .     A
N167   O168    1.301   .     A
N167   O169    1.299   .     A
N170   O171    1.301   .     A
N170   O172    1.298   .     A
O173   C177    1.301   .     A
O173   Cu185   1.953   .     S
O174   C178    1.301   .     A
O174   Cu186   1.953   .     S
O175   Cu186   1.949   .     S
O175   C5      1.298   1_655 S
O176   Cu185   1.949   .     S
C177   C218    1.442   .     S
C178   C217    1.442   .     S
C178   O4      1.298   1_655 S
O179   Cu185   1.938   .     S
O180   Cu186   1.938   .     S
O180   C12     1.312   1_655 S
O181   Cu186   1.924   .     S
O181   C183    1.307   .     A
O182   C184    1.302   .     A
O182   Cu185   1.924   .     S
C183   C187    1.471   .     S
C183   O7      1.308   1_655 S
C184   C188    1.471   .     S
Cu185  N223    2.040   .     S
Cu186  N224    2.040   .     S
Cu186  Cu13    2.715   1_655 S
C187   C191    1.398   .     A
C187   C193    1.398   .     A
C188   C194    1.399   .     A
C188   C192    1.391   .     A
C189   C197    1.410   .     A
C189   C191    1.391   .     A
C189   H37     1.082   1_655 S
C190   C198    1.411   .     A
C190   H210    1.082   .     S
C190   C192    1.388   .     A
C191   H36     1.080   1_655 S
C193   H206    1.080   .     S
C193   C195    1.409   .     A
C194   C196    1.413   .     A
C194   H205    1.075   .     S
C195   C199    1.425   .     A
C195   C197    1.413   .     A
C196   C198    1.423   .     A
C196   C200    1.438   .     A
C197   C977    1.401   .     S
C198   C978    1.403   1_554 S
C199   C202    1.430   .     A
C199   C974    1.426   .     S
C200   C201    1.439   .     A
C200   C973    1.426   1_554 S
C201   C231    1.477   .     S
C201   C203    1.411   .     A
C202   C204    1.403   .     A
C202   C235    1.490   .     S
C203   N225    1.440   .     S
C203   C971    1.401   1_554 S
C204   N228    1.435   .     S
C204   C972    1.403   .     S
H207   C20     1.078   1_655 S
C211   C239    1.488   .     S
C211   C729    1.390   1_545 S
C211   C46     1.412   1_655 S
C212   C243    1.487   .     S
C212   C472    1.390   .     S
C213   H215    1.084   .     S
C213   C217    1.397   .     A
C213   C469    1.390   .     S
C214   C218    1.397   .     A
C214   H216    1.084   .     S
C214   C728    1.390   1_545 S
C217   C40     1.412   1_655 S
C219   C221    1.425   .     A
C219   N224    1.374   .     A
C219   N247    1.430   .     S
C220   N250    1.433   .     S
C220   N223    1.377   .     A
C220   C222    1.423   .     A
C221   N253    1.426   .     S
C221   N223    1.376   .     A
C222   N256    1.425   .     S
C222   N224    1.375   .     A
N225   O226    1.300   .     A
N225   O227    1.301   .     A
N228   O229    1.301   .     A
N228   O230    1.301   .     A
C231   O232    1.219   .     D
C231   O233    1.399   .     S
O233   H234    1.014   .     S
C235   O237    1.399   .     S
C235   O236    1.223   .     D
O237   H238    1.014   .     S
C239   O240    1.222   .     D
C239   O241    1.399   .     S
O241   H242    1.014   .     S
C243   O245    1.399   .     S
C243   O244    1.222   .     D
O245   H246    1.014   .     S
N247   O248    1.301   .     A
N247   O249    1.300   .     A
N250   O252    1.299   .     A
N250   O251    1.301   .     A
N253   O254    1.301   .     A
N253   O255    1.299   .     A
N256   O257    1.301   .     A
N256   O258    1.298   .     A
O259   C263    1.301   .     A
O259   Cu271   1.953   .     S
O260   C264    1.301   .     A
O260   Cu272   1.953   .     S
O261   Cu272   1.949   .     S
O261   C349    1.298   .     S
O262   Cu271   1.949   .     S
O262   C436    1.298   1_455 S
C263   C304    1.442   .     S
C263   O433    1.298   1_455 S
C264   C303    1.442   .     S
C264   O348    1.298   .     S
O265   Cu271   1.938   .     S
O265   C441    1.308   1_455 S
O266   Cu272   1.938   .     S
O266   C356    1.312   .     S
O267   Cu272   1.924   .     S
O267   C269    1.307   .     A
O268   C270    1.302   .     A
O268   Cu271   1.924   .     S
C269   C273    1.471   .     S
C269   O351    1.308   .     S
C270   C274    1.471   .     S
C270   O438    1.312   1_455 S
Cu271  N309    2.040   .     S
Cu271  Cu444   2.715   1_455 S
Cu272  N310    2.040   .     S
Cu272  Cu357   2.715   .     S
C273   C277    1.398   .     A
C273   C279    1.398   .     A
C274   C280    1.399   .     A
C274   C278    1.391   .     A
C275   C283    1.410   .     A
C275   C277    1.391   .     A
C275   H381    1.082   .     S
C276   C284    1.411   .     A
C276   H296    1.082   .     S
C276   C278    1.388   .     A
C277   H380    1.080   .     S
C278   H465    1.078   1_455 S
C279   H292    1.080   .     S
C279   C281    1.409   .     A
C280   C282    1.413   .     A
C280   H291    1.075   .     S
C281   C285    1.425   .     A
C281   C283    1.413   .     A
C282   C284    1.423   .     A
C282   C286    1.438   .     A
C283   C1063   1.401   .     S
C284   C1064   1.403   1_554 S
C285   C288    1.430   .     A
C285   C1060   1.426   .     S
C286   C287    1.439   .     A
C286   C1059   1.426   1_554 S
C287   C317    1.477   .     S
C287   C289    1.411   .     A
C288   C290    1.403   .     A
C288   C321    1.490   .     S
C289   N311    1.440   .     S
C289   C1057   1.401   1_554 S
C290   N314    1.435   .     S
C290   C1058   1.403   .     S
H293   C364    1.078   .     S
H294   C449    1.080   1_455 S
H295   C447    1.082   1_455 S
C297   C325    1.488   .     S
C297   C390    1.412   .     S
C298   C329    1.487   .     S
C298   C558    1.390   .     S
C298   C475    1.412   1_455 S
C299   H301    1.084   .     S
C299   C303    1.397   .     A
C299   C555    1.390   .     S
C300   C304    1.397   .     A
C300   H302    1.084   .     S
C303   C384    1.412   .     S
C304   C469    1.412   1_455 S
C305   C307    1.425   .     A
C305   N310    1.374   .     A
C305   N333    1.430   .     S
C306   N336    1.433   .     S
C306   N309    1.377   .     A
C306   C308    1.423   .     A
C307   N339    1.426   .     S
C307   N309    1.376   .     A
C308   N342    1.425   .     S
C308   N310    1.375   .     A
N311   O312    1.300   .     A
N311   O313    1.301   .     A
N314   O315    1.301   .     A
N314   O316    1.301   .     A
C317   O318    1.219   .     D
C317   O319    1.399   .     S
O319   H320    1.014   .     S
C321   O323    1.399   .     S
C321   O322    1.223   .     D
O323   H324    1.014   .     S
C325   O326    1.222   .     D
C325   O327    1.399   .     S
O327   H328    1.014   .     S
C329   O331    1.399   .     S
C329   O330    1.222   .     D
O331   H332    1.014   .     S
N333   O334    1.301   .     A
N333   O335    1.300   .     A
N336   O338    1.299   .     A
N336   O337    1.301   .     A
N339   O340    1.301   .     A
N339   O341    1.299   .     A
N342   O343    1.301   .     A
N342   O344    1.298   .     A
O345   C349    1.301   .     A
O345   Cu357   1.953   .     S
O346   C350    1.301   .     A
O346   Cu358   1.953   .     S
O347   Cu358   1.949   .     S
O347   C435    1.298   .     S
O348   Cu357   1.949   .     S
C349   C390    1.442   .     S
C350   C389    1.442   .     S
C350   O434    1.298   .     S
O351   Cu357   1.938   .     S
O352   Cu358   1.938   .     S
O352   C442    1.312   .     S
O353   Cu358   1.924   .     S
O353   C355    1.307   .     A
O354   C356    1.302   .     A
O354   Cu357   1.924   .     S
C355   C359    1.471   .     S
C355   O437    1.308   .     S
C356   C360    1.471   .     S
Cu357  N395    2.040   .     S
Cu358  N396    2.040   .     S
Cu358  Cu443   2.715   .     S
C359   C363    1.398   .     A
C359   C365    1.398   .     A
C360   C366    1.399   .     A
C360   C364    1.391   .     A
C361   C369    1.410   .     A
C361   C363    1.391   .     A
C361   H467    1.082   .     S
C362   C370    1.411   .     A
C362   H382    1.082   .     S
C362   C364    1.388   .     A
C363   H466    1.080   .     S
C365   H378    1.080   .     S
C365   C367    1.409   .     A
C366   C368    1.413   .     A
C366   H377    1.075   .     S
C367   C371    1.425   .     A
C367   C369    1.413   .     A
C368   C370    1.423   .     A
C368   C372    1.438   .     A
C369   C1149   1.401   .     S
C370   C1150   1.403   1_554 S
C371   C374    1.430   .     A
C371   C1146   1.426   .     S
C372   C373    1.439   .     A
C372   C1145   1.426   1_554 S
C373   C403    1.477   .     S
C373   C375    1.411   .     A
C374   C376    1.403   .     A
C374   C407    1.490   .     S
C375   N397    1.440   .     S
C375   C1143   1.401   1_554 S
C376   N400    1.435   .     S
C376   C1144   1.403   .     S
H379   C450    1.078   .     S
C383   C411    1.488   .     S
C383   C476    1.412   .     S
C384   C415    1.487   .     S
C384   C644    1.390   .     S
C385   H387    1.084   .     S
C385   C389    1.397   .     A
C385   C641    1.390   .     S
C386   C390    1.397   .     A
C386   H388    1.084   .     S
C389   C470    1.412   .     S
C391   C393    1.425   .     A
C391   N396    1.374   .     A
C391   N419    1.430   .     S
C392   N422    1.433   .     S
C392   N395    1.377   .     A
C392   C394    1.423   .     A
C393   N425    1.426   .     S
C393   N395    1.376   .     A
C394   N428    1.425   .     S
C394   N396    1.375   .     A
N397   O398    1.300   .     A
N397   O399    1.301   .     A
N400   O401    1.301   .     A
N400   O402    1.301   .     A
C403   O404    1.219   .     D
C403   O405    1.399   .     S
O405   H406    1.014   .     S
C407   O409    1.399   .     S
C407   O408    1.223   .     D
O409   H410    1.014   .     S
C411   O412    1.222   .     D
C411   O413    1.399   .     S
O413   H414    1.014   .     S
C415   O417    1.399   .     S
C415   O416    1.222   .     D
O417   H418    1.014   .     S
N419   O420    1.301   .     A
N419   O421    1.300   .     A
N422   O424    1.299   .     A
N422   O423    1.301   .     A
N425   O426    1.301   .     A
N425   O427    1.299   .     A
N428   O429    1.301   .     A
N428   O430    1.298   .     A
O431   C435    1.301   .     A
O431   Cu443   1.953   .     S
O432   C436    1.301   .     A
O432   Cu444   1.953   .     S
O433   Cu444   1.949   .     S
O433   C263    1.298   1_655 S
O434   Cu443   1.949   .     S
C435   C476    1.442   .     S
C436   C475    1.442   .     S
C436   O262    1.298   1_655 S
O437   Cu443   1.938   .     S
O438   Cu444   1.938   .     S
O438   C270    1.312   1_655 S
O439   Cu444   1.924   .     S
O439   C441    1.307   .     A
O440   C442    1.302   .     A
O440   Cu443   1.924   .     S
C441   C445    1.471   .     S
C441   O265    1.308   1_655 S
C442   C446    1.471   .     S
Cu443  N481    2.040   .     S
Cu444  N482    2.040   .     S
Cu444  Cu271   2.715   1_655 S
C445   C449    1.398   .     A
C445   C451    1.398   .     A
C446   C452    1.399   .     A
C446   C450    1.391   .     A
C447   C455    1.410   .     A
C447   C449    1.391   .     A
C447   H295    1.082   1_655 S
C448   C456    1.411   .     A
C448   H468    1.082   .     S
C448   C450    1.388   .     A
C449   H294    1.080   1_655 S
C451   H464    1.080   .     S
C451   C453    1.409   .     A
C452   C454    1.413   .     A
C452   H463    1.075   .     S
C453   C457    1.425   .     A
C453   C455    1.413   .     A
C454   C456    1.423   .     A
C454   C458    1.438   .     A
C455   C1235   1.401   .     S
C456   C1236   1.403   1_554 S
C457   C460    1.430   .     A
C457   C1232   1.426   .     S
C458   C459    1.439   .     A
C458   C1231   1.426   1_554 S
C459   C489    1.477   .     S
C459   C461    1.411   .     A
C460   C462    1.403   .     A
C460   C493    1.490   .     S
C461   N483    1.440   .     S
C461   C1229   1.401   1_554 S
C462   N486    1.435   .     S
C462   C1230   1.403   .     S
H465   C278    1.078   1_655 S
C469   C497    1.488   .     S
C469   C304    1.412   1_655 S
C470   C501    1.487   .     S
C470   C730    1.390   .     S
C471   H473    1.084   .     S
C471   C475    1.397   .     A
C471   C727    1.390   .     S
C472   C476    1.397   .     A
C472   H474    1.084   .     S
C475   C298    1.412   1_655 S
C477   C479    1.425   .     A
C477   N482    1.374   .     A
C477   N505    1.430   .     S
C478   N508    1.433   .     S
C478   N481    1.377   .     A
C478   C480    1.423   .     A
C479   N511    1.426   .     S
C479   N481    1.376   .     A
C480   N514    1.425   .     S
C480   N482    1.375   .     A
N483   O484    1.300   .     A
N483   O485    1.301   .     A
N486   O487    1.301   .     A
N486   O488    1.301   .     A
C489   O490    1.219   .     D
C489   O491    1.399   .     S
O491   H492    1.014   .     S
C493   O495    1.399   .     S
C493   O494    1.223   .     D
O495   H496    1.014   .     S
C497   O498    1.222   .     D
C497   O499    1.399   .     S
O499   H500    1.014   .     S
C501   O503    1.399   .     S
C501   O502    1.222   .     D
O503   H504    1.014   .     S
N505   O506    1.301   .     A
N505   O507    1.300   .     A
N508   O510    1.299   .     A
N508   O509    1.301   .     A
N511   O512    1.301   .     A
N511   O513    1.299   .     A
N514   O515    1.301   .     A
N514   O516    1.298   .     A
O517   C521    1.301   .     A
O517   Cu529   1.953   .     S
O518   C522    1.301   .     A
O518   Cu530   1.953   .     S
O519   Cu530   1.949   .     S
O519   C607    1.298   .     S
O520   Cu529   1.949   .     S
O520   C694    1.298   1_455 S
C521   C562    1.442   .     S
C521   O691    1.298   1_455 S
C522   C561    1.442   .     S
C522   O606    1.298   .     S
O523   Cu529   1.938   .     S
O523   C699    1.308   1_455 S
O524   Cu530   1.938   .     S
O524   C614    1.312   .     S
O525   Cu530   1.924   .     S
O525   C527    1.307   .     A
O526   C528    1.302   .     A
O526   Cu529   1.924   .     S
C527   C531    1.471   .     S
C527   O609    1.308   .     S
C528   C532    1.471   .     S
C528   O696    1.312   1_455 S
Cu529  N567    2.040   .     S
Cu529  Cu702   2.715   1_455 S
Cu530  N568    2.040   .     S
Cu530  Cu615   2.715   .     S
C531   C535    1.398   .     A
C531   C537    1.398   .     A
C532   C538    1.399   .     A
C532   C536    1.391   .     A
C533   C541    1.410   .     A
C533   C535    1.391   .     A
C533   H639    1.082   .     S
C534   C542    1.411   .     A
C534   H554    1.082   .     S
C534   C536    1.388   .     A
C535   H638    1.080   .     S
C536   H723    1.078   1_455 S
C537   H550    1.080   .     S
C537   C539    1.409   .     A
C538   C540    1.413   .     A
C538   H549    1.075   .     S
C539   C543    1.425   .     A
C539   C541    1.413   .     A
C540   C542    1.423   .     A
C540   C544    1.438   .     A
C541   C1321   1.401   .     S
C542   C1322   1.403   1_554 S
C543   C546    1.430   .     A
C543   C1318   1.426   .     S
C544   C545    1.439   .     A
C544   C1317   1.426   1_554 S
C545   C575    1.477   .     S
C545   C547    1.411   .     A
C546   C548    1.403   .     A
C546   C579    1.490   .     S
C547   N569    1.440   .     S
C547   C1315   1.401   1_554 S
C548   N572    1.435   .     S
C548   C1316   1.403   .     S
H551   C622    1.078   .     S
H552   C707    1.080   1_455 S
H553   C705    1.082   1_455 S
C555   C583    1.488   .     S
C555   C648    1.412   .     S
C556   C587    1.487   .     S
C556   C42     1.390   1_565 S
C556   C733    1.412   1_455 S
C557   H559    1.084   .     S
C557   C561    1.397   .     A
C557   C39     1.390   1_565 S
C558   C562    1.397   .     A
C558   H560    1.084   .     S
C561   C642    1.412   .     S
C562   C727    1.412   1_455 S
C563   C565    1.425   .     A
C563   N568    1.374   .     A
C563   N591    1.430   .     S
C564   N594    1.433   .     S
C564   N567    1.377   .     A
C564   C566    1.423   .     A
C565   N597    1.426   .     S
C565   N567    1.376   .     A
C566   N600    1.425   .     S
C566   N568    1.375   .     A
N569   O570    1.300   .     A
N569   O571    1.301   .     A
N572   O573    1.301   .     A
N572   O574    1.301   .     A
C575   O576    1.219   .     D
C575   O577    1.399   .     S
O577   H578    1.014   .     S
C579   O581    1.399   .     S
C579   O580    1.223   .     D
O581   H582    1.014   .     S
C583   O584    1.222   .     D
C583   O585    1.399   .     S
O585   H586    1.014   .     S
C587   O589    1.399   .     S
C587   O588    1.222   .     D
O589   H590    1.014   .     S
N591   O592    1.301   .     A
N591   O593    1.300   .     A
N594   O596    1.299   .     A
N594   O595    1.301   .     A
N597   O598    1.301   .     A
N597   O599    1.299   .     A
N600   O601    1.301   .     A
N600   O602    1.298   .     A
O603   C607    1.301   .     A
O603   Cu615   1.953   .     S
O604   C608    1.301   .     A
O604   Cu616   1.953   .     S
O605   Cu616   1.949   .     S
O605   C693    1.298   .     S
O606   Cu615   1.949   .     S
C607   C648    1.442   .     S
C608   C647    1.442   .     S
C608   O692    1.298   .     S
O609   Cu615   1.938   .     S
O610   Cu616   1.938   .     S
O610   C700    1.312   .     S
O611   Cu616   1.924   .     S
O611   C613    1.307   .     A
O612   C614    1.302   .     A
O612   Cu615   1.924   .     S
C613   C617    1.471   .     S
C613   O695    1.308   .     S
C614   C618    1.471   .     S
Cu615  N653    2.040   .     S
Cu616  N654    2.040   .     S
Cu616  Cu701   2.715   .     S
C617   C621    1.398   .     A
C617   C623    1.398   .     A
C618   C624    1.399   .     A
C618   C622    1.391   .     A
C619   C627    1.410   .     A
C619   C621    1.391   .     A
C619   H725    1.082   .     S
C620   C628    1.411   .     A
C620   H640    1.082   .     S
C620   C622    1.388   .     A
C621   H724    1.080   .     S
C623   H636    1.080   .     S
C623   C625    1.409   .     A
C624   C626    1.413   .     A
C624   H635    1.075   .     S
C625   C629    1.425   .     A
C625   C627    1.413   .     A
C626   C628    1.423   .     A
C626   C630    1.438   .     A
C627   C1407   1.401   .     S
C628   C1408   1.403   1_554 S
C629   C632    1.430   .     A
C629   C1404   1.426   .     S
C630   C631    1.439   .     A
C630   C1403   1.426   1_554 S
C631   C661    1.477   .     S
C631   C633    1.411   .     A
C632   C634    1.403   .     A
C632   C665    1.490   .     S
C633   N655    1.440   .     S
C633   C1401   1.401   1_554 S
C634   N658    1.435   .     S
C634   C1402   1.403   .     S
H637   C708    1.078   .     S
C641   C669    1.488   .     S
C641   C734    1.412   .     S
C642   C673    1.487   .     S
C642   C128    1.390   1_565 S
C643   H645    1.084   .     S
C643   C647    1.397   .     A
C643   C125    1.390   1_565 S
C644   C648    1.397   .     A
C644   H646    1.084   .     S
C647   C728    1.412   .     S
C649   C651    1.425   .     A
C649   N654    1.374   .     A
C649   N677    1.430   .     S
C650   N680    1.433   .     S
C650   N653    1.377   .     A
C650   C652    1.423   .     A
C651   N683    1.426   .     S
C651   N653    1.376   .     A
C652   N686    1.425   .     S
C652   N654    1.375   .     A
N655   O656    1.300   .     A
N655   O657    1.301   .     A
N658   O659    1.301   .     A
N658   O660    1.301   .     A
C661   O662    1.219   .     D
C661   O663    1.399   .     S
O663   H664    1.014   .     S
C665   O667    1.399   .     S
C665   O666    1.223   .     D
O667   H668    1.014   .     S
C669   O670    1.222   .     D
C669   O671    1.399   .     S
O671   H672    1.014   .     S
C673   O675    1.399   .     S
C673   O674    1.222   .     D
O675   H676    1.014   .     S
N677   O678    1.301   .     A
N677   O679    1.300   .     A
N680   O682    1.299   .     A
N680   O681    1.301   .     A
N683   O684    1.301   .     A
N683   O685    1.299   .     A
N686   O687    1.301   .     A
N686   O688    1.298   .     A
O689   C693    1.301   .     A
O689   Cu701   1.953   .     S
O690   C694    1.301   .     A
O690   Cu702   1.953   .     S
O691   Cu702   1.949   .     S
O691   C521    1.298   1_655 S
O692   Cu701   1.949   .     S
C693   C734    1.442   .     S
C694   C733    1.442   .     S
C694   O520    1.298   1_655 S
O695   Cu701   1.938   .     S
O696   Cu702   1.938   .     S
O696   C528    1.312   1_655 S
O697   Cu702   1.924   .     S
O697   C699    1.307   .     A
O698   C700    1.302   .     A
O698   Cu701   1.924   .     S
C699   C703    1.471   .     S
C699   O523    1.308   1_655 S
C700   C704    1.471   .     S
Cu701  N739    2.040   .     S
Cu702  N740    2.040   .     S
Cu702  Cu529   2.715   1_655 S
C703   C707    1.398   .     A
C703   C709    1.398   .     A
C704   C710    1.399   .     A
C704   C708    1.391   .     A
C705   C713    1.410   .     A
C705   C707    1.391   .     A
C705   H553    1.082   1_655 S
C706   C714    1.411   .     A
C706   H726    1.082   .     S
C706   C708    1.388   .     A
C707   H552    1.080   1_655 S
C709   H722    1.080   .     S
C709   C711    1.409   .     A
C710   C712    1.413   .     A
C710   H721    1.075   .     S
C711   C715    1.425   .     A
C711   C713    1.413   .     A
C712   C714    1.423   .     A
C712   C716    1.438   .     A
C713   C1493   1.401   .     S
C714   C1494   1.403   1_554 S
C715   C718    1.430   .     A
C715   C1490   1.426   .     S
C716   C717    1.439   .     A
C716   C1489   1.426   1_554 S
C717   C747    1.477   .     S
C717   C719    1.411   .     A
C718   C720    1.403   .     A
C718   C751    1.490   .     S
C719   N741    1.440   .     S
C719   C1487   1.401   1_554 S
C720   N744    1.435   .     S
C720   C1488   1.403   .     S
H723   C536    1.078   1_655 S
C727   C755    1.488   .     S
C727   C562    1.412   1_655 S
C728   C759    1.487   .     S
C728   C214    1.390   1_565 S
C729   H731    1.084   .     S
C729   C733    1.397   .     A
C729   C211    1.390   1_565 S
C730   C734    1.397   .     A
C730   H732    1.084   .     S
C733   C556    1.412   1_655 S
C735   C737    1.425   .     A
C735   N740    1.374   .     A
C735   N763    1.430   .     S
C736   N766    1.433   .     S
C736   N739    1.377   .     A
C736   C738    1.423   .     A
C737   N769    1.426   .     S
C737   N739    1.376   .     A
C738   N772    1.425   .     S
C738   N740    1.375   .     A
N741   O742    1.300   .     A
N741   O743    1.301   .     A
N744   O745    1.301   .     A
N744   O746    1.301   .     A
C747   O748    1.219   .     D
C747   O749    1.399   .     S
O749   H750    1.014   .     S
C751   O753    1.399   .     S
C751   O752    1.223   .     D
O753   H754    1.014   .     S
C755   O756    1.222   .     D
C755   O757    1.399   .     S
O757   H758    1.014   .     S
C759   O761    1.399   .     S
C759   O760    1.222   .     D
O761   H762    1.014   .     S
N763   O764    1.301   .     A
N763   O765    1.300   .     A
N766   O768    1.299   .     A
N766   O767    1.301   .     A
N769   O770    1.301   .     A
N769   O771    1.299   .     A
N772   O773    1.301   .     A
N772   O774    1.298   .     A
O775   C779    1.301   .     A
O775   Cu787   1.953   .     S
O776   C780    1.301   .     A
O776   Cu788   1.953   .     S
O777   Cu788   1.949   .     S
O777   C865    1.298   .     S
O778   Cu787   1.949   .     S
O778   C952    1.298   1_455 S
C779   C820    1.442   .     S
C779   O949    1.298   1_455 S
C780   C819    1.442   .     S
C780   O864    1.298   .     S
O781   Cu787   1.938   .     S
O781   C957    1.308   1_455 S
O782   Cu788   1.938   .     S
O782   C872    1.312   .     S
O783   Cu788   1.924   .     S
O783   C785    1.307   .     A
O784   C786    1.302   .     A
O784   Cu787   1.924   .     S
C785   C789    1.471   .     S
C785   O867    1.308   .     S
C786   C790    1.471   .     S
C786   O954    1.312   1_455 S
Cu787  N825    2.040   .     S
Cu787  Cu960   2.715   1_455 S
Cu788  N826    2.040   .     S
Cu788  Cu873   2.715   .     S
C789   C793    1.398   .     A
C789   C795    1.398   .     A
C790   C796    1.399   .     A
C790   C794    1.391   .     A
C791   C799    1.410   .     A
C791   C793    1.391   .     A
C791   H897    1.082   .     S
C792   C800    1.411   .     A
C792   H812    1.082   .     S
C792   C794    1.388   .     A
C793   H896    1.080   .     S
C794   H981    1.078   1_455 S
C795   H808    1.080   .     S
C795   C797    1.409   .     A
C796   C798    1.413   .     A
C796   H807    1.075   .     S
C797   C801    1.425   .     A
C797   C799    1.413   .     A
C798   C800    1.423   .     A
C798   C802    1.438   .     A
C799   C31     1.401   1_556 S
C801   C804    1.430   .     A
C801   C28     1.426   1_556 S
C802   C803    1.439   .     A
C803   C833    1.477   .     S
C803   C805    1.411   .     A
C804   C806    1.403   .     A
C804   C837    1.490   .     S
C805   N827    1.440   .     S
C806   N830    1.435   .     S
C806   C26     1.403   1_556 S
H809   C880    1.078   .     S
H810   C965    1.080   1_455 S
H811   C963    1.082   1_455 S
C813   C841    1.488   .     S
C813   C1331   1.390   1_545 S
C813   C906    1.412   .     S
C814   C845    1.487   .     S
C814   C1074   1.390   .     S
C814   C991    1.412   1_455 S
C815   H817    1.084   .     S
C815   C819    1.397   .     A
C815   C1071   1.390   .     S
C816   C820    1.397   .     A
C816   H818    1.084   .     S
C816   C1330   1.390   1_545 S
C819   C900    1.412   .     S
C820   C985    1.412   1_455 S
C821   C823    1.425   .     A
C821   N826    1.374   .     A
C821   N849    1.430   .     S
C822   N852    1.433   .     S
C822   N825    1.377   .     A
C822   C824    1.423   .     A
C823   N855    1.426   .     S
C823   N825    1.376   .     A
C824   N858    1.425   .     S
C824   N826    1.375   .     A
N827   O828    1.300   .     A
N827   O829    1.301   .     A
N830   O831    1.301   .     A
N830   O832    1.301   .     A
C833   O834    1.219   .     D
C833   O835    1.399   .     S
O835   H836    1.014   .     S
C837   O839    1.399   .     S
C837   O838    1.223   .     D
O839   H840    1.014   .     S
C841   O842    1.222   .     D
C841   O843    1.399   .     S
O843   H844    1.014   .     S
C845   O847    1.399   .     S
C845   O846    1.222   .     D
O847   H848    1.014   .     S
N849   O850    1.301   .     A
N849   O851    1.300   .     A
N852   O854    1.299   .     A
N852   O853    1.301   .     A
N855   O856    1.301   .     A
N855   O857    1.299   .     A
N858   O859    1.301   .     A
N858   O860    1.298   .     A
O861   C865    1.301   .     A
O861   Cu873   1.953   .     S
O862   C866    1.301   .     A
O862   Cu874   1.953   .     S
O863   Cu874   1.949   .     S
O863   C951    1.298   .     S
O864   Cu873   1.949   .     S
C865   C906    1.442   .     S
C866   C905    1.442   .     S
C866   O950    1.298   .     S
O867   Cu873   1.938   .     S
O868   Cu874   1.938   .     S
O868   C958    1.312   .     S
O869   Cu874   1.924   .     S
O869   C871    1.307   .     A
O870   C872    1.302   .     A
O870   Cu873   1.924   .     S
C871   C875    1.471   .     S
C871   O953    1.308   .     S
C872   C876    1.471   .     S
Cu873  N911    2.040   .     S
Cu874  N912    2.040   .     S
Cu874  Cu959   2.715   .     S
C875   C879    1.398   .     A
C875   C881    1.398   .     A
C876   C882    1.399   .     A
C876   C880    1.391   .     A
C877   C885    1.410   .     A
C877   C879    1.391   .     A
C877   H983    1.082   .     S
C878   C886    1.411   .     A
C878   H898    1.082   .     S
C878   C880    1.388   .     A
C879   H982    1.080   .     S
C881   H894    1.080   .     S
C881   C883    1.409   .     A
C882   C884    1.413   .     A
C882   H893    1.075   .     S
C883   C887    1.425   .     A
C883   C885    1.413   .     A
C884   C886    1.423   .     A
C884   C888    1.438   .     A
C885   C117    1.401   1_556 S
C887   C890    1.430   .     A
C887   C114    1.426   1_556 S
C888   C889    1.439   .     A
C889   C919    1.477   .     S
C889   C891    1.411   .     A
C890   C892    1.403   .     A
C890   C923    1.490   .     S
C891   N913    1.440   .     S
C892   N916    1.435   .     S
C892   C112    1.403   1_556 S
H895   C966    1.078   .     S
C899   C927    1.488   .     S
C899   C1417   1.390   1_545 S
C899   C992    1.412   .     S
C900   C931    1.487   .     S
C900   C1160   1.390   .     S
C901   H903    1.084   .     S
C901   C905    1.397   .     A
C901   C1157   1.390   .     S
C902   C906    1.397   .     A
C902   H904    1.084   .     S
C902   C1416   1.390   1_545 S
C905   C986    1.412   .     S
C907   C909    1.425   .     A
C907   N912    1.374   .     A
C907   N935    1.430   .     S
C908   N938    1.433   .     S
C908   N911    1.377   .     A
C908   C910    1.423   .     A
C909   N941    1.426   .     S
C909   N911    1.376   .     A
C910   N944    1.425   .     S
C910   N912    1.375   .     A
N913   O914    1.300   .     A
N913   O915    1.301   .     A
N916   O917    1.301   .     A
N916   O918    1.301   .     A
C919   O920    1.219   .     D
C919   O921    1.399   .     S
O921   H922    1.014   .     S
C923   O925    1.399   .     S
C923   O924    1.223   .     D
O925   H926    1.014   .     S
C927   O928    1.222   .     D
C927   O929    1.399   .     S
O929   H930    1.014   .     S
C931   O933    1.399   .     S
C931   O932    1.222   .     D
O933   H934    1.014   .     S
N935   O936    1.301   .     A
N935   O937    1.300   .     A
N938   O940    1.299   .     A
N938   O939    1.301   .     A
N941   O942    1.301   .     A
N941   O943    1.299   .     A
N944   O945    1.301   .     A
N944   O946    1.298   .     A
O947   C951    1.301   .     A
O947   Cu959   1.953   .     S
O948   C952    1.301   .     A
O948   Cu960   1.953   .     S
O949   Cu960   1.949   .     S
O949   C779    1.298   1_655 S
O950   Cu959   1.949   .     S
C951   C992    1.442   .     S
C952   C991    1.442   .     S
C952   O778    1.298   1_655 S
O953   Cu959   1.938   .     S
O954   Cu960   1.938   .     S
O954   C786    1.312   1_655 S
O955   Cu960   1.924   .     S
O955   C957    1.307   .     A
O956   C958    1.302   .     A
O956   Cu959   1.924   .     S
C957   C961    1.471   .     S
C957   O781    1.308   1_655 S
C958   C962    1.471   .     S
Cu959  N997    2.040   .     S
Cu960  N998    2.040   .     S
Cu960  Cu787   2.715   1_655 S
C961   C965    1.398   .     A
C961   C967    1.398   .     A
C962   C968    1.399   .     A
C962   C966    1.391   .     A
C963   C971    1.410   .     A
C963   C965    1.391   .     A
C963   H811    1.082   1_655 S
C964   C972    1.411   .     A
C964   H984    1.082   .     S
C964   C966    1.388   .     A
C965   H810    1.080   1_655 S
C967   H980    1.080   .     S
C967   C969    1.409   .     A
C968   C970    1.413   .     A
C968   H979    1.075   .     S
C969   C973    1.425   .     A
C969   C971    1.413   .     A
C970   C972    1.423   .     A
C970   C974    1.438   .     A
C971   C203    1.401   1_556 S
C973   C976    1.430   .     A
C973   C200    1.426   1_556 S
C974   C975    1.439   .     A
C975   C1005   1.477   .     S
C975   C977    1.411   .     A
C976   C978    1.403   .     A
C976   C1009   1.490   .     S
C977   N999    1.440   .     S
C978   N1002   1.435   .     S
C978   C198    1.403   1_556 S
H981   C794    1.078   1_655 S
C985   C1013   1.488   .     S
C985   C1503   1.390   1_545 S
C985   C820    1.412   1_655 S
C986   C1017   1.487   .     S
C986   C1246   1.390   .     S
C987   H989    1.084   .     S
C987   C991    1.397   .     A
C987   C1243   1.390   .     S
C988   C992    1.397   .     A
C988   H990    1.084   .     S
C988   C1502   1.390   1_545 S
C991   C814    1.412   1_655 S
C993   C995    1.425   .     A
C993   N998    1.374   .     A
C993   N1021   1.430   .     S
C994   N1024   1.433   .     S
C994   N997    1.377   .     A
C994   C996    1.423   .     A
C995   N1027   1.426   .     S
C995   N997    1.376   .     A
C996   N1030   1.425   .     S
C996   N998    1.375   .     A
N999   O1000   1.300   .     A
N999   O1001   1.301   .     A
N1002  O1003   1.301   .     A
N1002  O1004   1.301   .     A
C1005  O1006   1.219   .     D
C1005  O1007   1.399   .     S
O1007  H1008   1.014   .     S
C1009  O1011   1.399   .     S
C1009  O1010   1.223   .     D
O1011  H1012   1.014   .     S
C1013  O1014   1.222   .     D
C1013  O1015   1.399   .     S
O1015  H1016   1.014   .     S
C1017  O1019   1.399   .     S
C1017  O1018   1.222   .     D
O1019  H1020   1.014   .     S
N1021  O1022   1.301   .     A
N1021  O1023   1.300   .     A
N1024  O1026   1.299   .     A
N1024  O1025   1.301   .     A
N1027  O1028   1.301   .     A
N1027  O1029   1.299   .     A
N1030  O1031   1.301   .     A
N1030  O1032   1.298   .     A
O1033  C1037   1.301   .     A
O1033  Cu1045  1.953   .     S
O1034  C1038   1.301   .     A
O1034  Cu1046  1.953   .     S
O1035  Cu1046  1.949   .     S
O1035  C1123   1.298   .     S
O1036  Cu1045  1.949   .     S
O1036  C1210   1.298   1_455 S
C1037  C1078   1.442   .     S
C1037  O1207   1.298   1_455 S
C1038  C1077   1.442   .     S
C1038  O1122   1.298   .     S
O1039  Cu1045  1.938   .     S
O1039  C1215   1.308   1_455 S
O1040  Cu1046  1.938   .     S
O1040  C1130   1.312   .     S
O1041  Cu1046  1.924   .     S
O1041  C1043   1.307   .     A
O1042  C1044   1.302   .     A
O1042  Cu1045  1.924   .     S
C1043  C1047   1.471   .     S
C1043  O1125   1.308   .     S
C1044  C1048   1.471   .     S
C1044  O1212   1.312   1_455 S
Cu1045 N1083   2.040   .     S
Cu1045 Cu1218  2.715   1_455 S
Cu1046 N1084   2.040   .     S
Cu1046 Cu1131  2.715   .     S
C1047  C1051   1.398   .     A
C1047  C1053   1.398   .     A
C1048  C1054   1.399   .     A
C1048  C1052   1.391   .     A
C1049  C1057   1.410   .     A
C1049  C1051   1.391   .     A
C1049  H1155   1.082   .     S
C1050  C1058   1.411   .     A
C1050  H1070   1.082   .     S
C1050  C1052   1.388   .     A
C1051  H1154   1.080   .     S
C1052  H1239   1.078   1_455 S
C1053  H1066   1.080   .     S
C1053  C1055   1.409   .     A
C1054  C1056   1.413   .     A
C1054  H1065   1.075   .     S
C1055  C1059   1.425   .     A
C1055  C1057   1.413   .     A
C1056  C1058   1.423   .     A
C1056  C1060   1.438   .     A
C1057  C289    1.401   1_556 S
C1059  C1062   1.430   .     A
C1059  C286    1.426   1_556 S
C1060  C1061   1.439   .     A
C1061  C1091   1.477   .     S
C1061  C1063   1.411   .     A
C1062  C1064   1.403   .     A
C1062  C1095   1.490   .     S
C1063  N1085   1.440   .     S
C1064  N1088   1.435   .     S
C1064  C284    1.403   1_556 S
H1067  C1138   1.078   .     S
H1068  C1223   1.080   1_455 S
H1069  C1221   1.082   1_455 S
C1071  C1099   1.488   .     S
C1071  C1164   1.412   .     S
C1072  C1103   1.487   .     S
C1072  C1332   1.390   .     S
C1072  C1249   1.412   1_455 S
C1073  H1075   1.084   .     S
C1073  C1077   1.397   .     A
C1073  C1329   1.390   .     S
C1074  C1078   1.397   .     A
C1074  H1076   1.084   .     S
C1077  C1158   1.412   .     S
C1078  C1243   1.412   1_455 S
C1079  C1081   1.425   .     A
C1079  N1084   1.374   .     A
C1079  N1107   1.430   .     S
C1080  N1110   1.433   .     S
C1080  N1083   1.377   .     A
C1080  C1082   1.423   .     A
C1081  N1113   1.426   .     S
C1081  N1083   1.376   .     A
C1082  N1116   1.425   .     S
C1082  N1084   1.375   .     A
N1085  O1086   1.300   .     A
N1085  O1087   1.301   .     A
N1088  O1089   1.301   .     A
N1088  O1090   1.301   .     A
C1091  O1092   1.219   .     D
C1091  O1093   1.399   .     S
O1093  H1094   1.014   .     S
C1095  O1097   1.399   .     S
C1095  O1096   1.223   .     D
O1097  H1098   1.014   .     S
C1099  O1100   1.222   .     D
C1099  O1101   1.399   .     S
O1101  H1102   1.014   .     S
C1103  O1105   1.399   .     S
C1103  O1104   1.222   .     D
O1105  H1106   1.014   .     S
N1107  O1108   1.301   .     A
N1107  O1109   1.300   .     A
N1110  O1112   1.299   .     A
N1110  O1111   1.301   .     A
N1113  O1114   1.301   .     A
N1113  O1115   1.299   .     A
N1116  O1117   1.301   .     A
N1116  O1118   1.298   .     A
O1119  C1123   1.301   .     A
O1119  Cu1131  1.953   .     S
O1120  C1124   1.301   .     A
O1120  Cu1132  1.953   .     S
O1121  Cu1132  1.949   .     S
O1121  C1209   1.298   .     S
O1122  Cu1131  1.949   .     S
C1123  C1164   1.442   .     S
C1124  C1163   1.442   .     S
C1124  O1208   1.298   .     S
O1125  Cu1131  1.938   .     S
O1126  Cu1132  1.938   .     S
O1126  C1216   1.312   .     S
O1127  Cu1132  1.924   .     S
O1127  C1129   1.307   .     A
O1128  C1130   1.302   .     A
O1128  Cu1131  1.924   .     S
C1129  C1133   1.471   .     S
C1129  O1211   1.308   .     S
C1130  C1134   1.471   .     S
Cu1131 N1169   2.040   .     S
Cu1132 N1170   2.040   .     S
Cu1132 Cu1217  2.715   .     S
C1133  C1137   1.398   .     A
C1133  C1139   1.398   .     A
C1134  C1140   1.399   .     A
C1134  C1138   1.391   .     A
C1135  C1143   1.410   .     A
C1135  C1137   1.391   .     A
C1135  H1241   1.082   .     S
C1136  C1144   1.411   .     A
C1136  H1156   1.082   .     S
C1136  C1138   1.388   .     A
C1137  H1240   1.080   .     S
C1139  H1152   1.080   .     S
C1139  C1141   1.409   .     A
C1140  C1142   1.413   .     A
C1140  H1151   1.075   .     S
C1141  C1145   1.425   .     A
C1141  C1143   1.413   .     A
C1142  C1144   1.423   .     A
C1142  C1146   1.438   .     A
C1143  C375    1.401   1_556 S
C1145  C1148   1.430   .     A
C1145  C372    1.426   1_556 S
C1146  C1147   1.439   .     A
C1147  C1177   1.477   .     S
C1147  C1149   1.411   .     A
C1148  C1150   1.403   .     A
C1148  C1181   1.490   .     S
C1149  N1171   1.440   .     S
C1150  N1174   1.435   .     S
C1150  C370    1.403   1_556 S
H1153  C1224   1.078   .     S
C1157  C1185   1.488   .     S
C1157  C1250   1.412   .     S
C1158  C1189   1.487   .     S
C1158  C1418   1.390   .     S
C1159  H1161   1.084   .     S
C1159  C1163   1.397   .     A
C1159  C1415   1.390   .     S
C1160  C1164   1.397   .     A
C1160  H1162   1.084   .     S
C1163  C1244   1.412   .     S
C1165  C1167   1.425   .     A
C1165  N1170   1.374   .     A
C1165  N1193   1.430   .     S
C1166  N1196   1.433   .     S
C1166  N1169   1.377   .     A
C1166  C1168   1.423   .     A
C1167  N1199   1.426   .     S
C1167  N1169   1.376   .     A
C1168  N1202   1.425   .     S
C1168  N1170   1.375   .     A
N1171  O1172   1.300   .     A
N1171  O1173   1.301   .     A
N1174  O1175   1.301   .     A
N1174  O1176   1.301   .     A
C1177  O1178   1.219   .     D
C1177  O1179   1.399   .     S
O1179  H1180   1.014   .     S
C1181  O1183   1.399   .     S
C1181  O1182   1.223   .     D
O1183  H1184   1.014   .     S
C1185  O1186   1.222   .     D
C1185  O1187   1.399   .     S
O1187  H1188   1.014   .     S
C1189  O1191   1.399   .     S
C1189  O1190   1.222   .     D
O1191  H1192   1.014   .     S
N1193  O1194   1.301   .     A
N1193  O1195   1.300   .     A
N1196  O1198   1.299   .     A
N1196  O1197   1.301   .     A
N1199  O1200   1.301   .     A
N1199  O1201   1.299   .     A
N1202  O1203   1.301   .     A
N1202  O1204   1.298   .     A
O1205  C1209   1.301   .     A
O1205  Cu1217  1.953   .     S
O1206  C1210   1.301   .     A
O1206  Cu1218  1.953   .     S
O1207  Cu1218  1.949   .     S
O1207  C1037   1.298   1_655 S
O1208  Cu1217  1.949   .     S
C1209  C1250   1.442   .     S
C1210  C1249   1.442   .     S
C1210  O1036   1.298   1_655 S
O1211  Cu1217  1.938   .     S
O1212  Cu1218  1.938   .     S
O1212  C1044   1.312   1_655 S
O1213  Cu1218  1.924   .     S
O1213  C1215   1.307   .     A
O1214  C1216   1.302   .     A
O1214  Cu1217  1.924   .     S
C1215  C1219   1.471   .     S
C1215  O1039   1.308   1_655 S
C1216  C1220   1.471   .     S
Cu1217 N1255   2.040   .     S
Cu1218 N1256   2.040   .     S
Cu1218 Cu1045  2.715   1_655 S
C1219  C1223   1.398   .     A
C1219  C1225   1.398   .     A
C1220  C1226   1.399   .     A
C1220  C1224   1.391   .     A
C1221  C1229   1.410   .     A
C1221  C1223   1.391   .     A
C1221  H1069   1.082   1_655 S
C1222  C1230   1.411   .     A
C1222  H1242   1.082   .     S
C1222  C1224   1.388   .     A
C1223  H1068   1.080   1_655 S
C1225  H1238   1.080   .     S
C1225  C1227   1.409   .     A
C1226  C1228   1.413   .     A
C1226  H1237   1.075   .     S
C1227  C1231   1.425   .     A
C1227  C1229   1.413   .     A
C1228  C1230   1.423   .     A
C1228  C1232   1.438   .     A
C1229  C461    1.401   1_556 S
C1231  C1234   1.430   .     A
C1231  C458    1.426   1_556 S
C1232  C1233   1.439   .     A
C1233  C1263   1.477   .     S
C1233  C1235   1.411   .     A
C1234  C1236   1.403   .     A
C1234  C1267   1.490   .     S
C1235  N1257   1.440   .     S
C1236  N1260   1.435   .     S
C1236  C456    1.403   1_556 S
H1239  C1052   1.078   1_655 S
C1243  C1271   1.488   .     S
C1243  C1078   1.412   1_655 S
C1244  C1275   1.487   .     S
C1244  C1504   1.390   .     S
C1245  H1247   1.084   .     S
C1245  C1249   1.397   .     A
C1245  C1501   1.390   .     S
C1246  C1250   1.397   .     A
C1246  H1248   1.084   .     S
C1249  C1072   1.412   1_655 S
C1251  C1253   1.425   .     A
C1251  N1256   1.374   .     A
C1251  N1279   1.430   .     S
C1252  N1282   1.433   .     S
C1252  N1255   1.377   .     A
C1252  C1254   1.423   .     A
C1253  N1285   1.426   .     S
C1253  N1255   1.376   .     A
C1254  N1288   1.425   .     S
C1254  N1256   1.375   .     A
N1257  O1258   1.300   .     A
N1257  O1259   1.301   .     A
N1260  O1261   1.301   .     A
N1260  O1262   1.301   .     A
C1263  O1264   1.219   .     D
C1263  O1265   1.399   .     S
O1265  H1266   1.014   .     S
C1267  O1269   1.399   .     S
C1267  O1268   1.223   .     D
O1269  H1270   1.014   .     S
C1271  O1272   1.222   .     D
C1271  O1273   1.399   .     S
O1273  H1274   1.014   .     S
C1275  O1277   1.399   .     S
C1275  O1276   1.222   .     D
O1277  H1278   1.014   .     S
N1279  O1280   1.301   .     A
N1279  O1281   1.300   .     A
N1282  O1284   1.299   .     A
N1282  O1283   1.301   .     A
N1285  O1286   1.301   .     A
N1285  O1287   1.299   .     A
N1288  O1289   1.301   .     A
N1288  O1290   1.298   .     A
O1291  C1295   1.301   .     A
O1291  Cu1303  1.953   .     S
O1292  C1296   1.301   .     A
O1292  Cu1304  1.953   .     S
O1293  Cu1304  1.949   .     S
O1293  C1381   1.298   .     S
O1294  Cu1303  1.949   .     S
O1294  C1468   1.298   1_455 S
C1295  C1336   1.442   .     S
C1295  O1465   1.298   1_455 S
C1296  C1335   1.442   .     S
C1296  O1380   1.298   .     S
O1297  Cu1303  1.938   .     S
O1297  C1473   1.308   1_455 S
O1298  Cu1304  1.938   .     S
O1298  C1388   1.312   .     S
O1299  Cu1304  1.924   .     S
O1299  C1301   1.307   .     A
O1300  C1302   1.302   .     A
O1300  Cu1303  1.924   .     S
C1301  C1305   1.471   .     S
C1301  O1383   1.308   .     S
C1302  C1306   1.471   .     S
C1302  O1470   1.312   1_455 S
Cu1303 N1341   2.040   .     S
Cu1303 Cu1476  2.715   1_455 S
Cu1304 N1342   2.040   .     S
Cu1304 Cu1389  2.715   .     S
C1305  C1309   1.398   .     A
C1305  C1311   1.398   .     A
C1306  C1312   1.399   .     A
C1306  C1310   1.391   .     A
C1307  C1315   1.410   .     A
C1307  C1309   1.391   .     A
C1307  H1413   1.082   .     S
C1308  C1316   1.411   .     A
C1308  H1328   1.082   .     S
C1308  C1310   1.388   .     A
C1309  H1412   1.080   .     S
C1310  H1497   1.078   1_455 S
C1311  H1324   1.080   .     S
C1311  C1313   1.409   .     A
C1312  C1314   1.413   .     A
C1312  H1323   1.075   .     S
C1313  C1317   1.425   .     A
C1313  C1315   1.413   .     A
C1314  C1316   1.423   .     A
C1314  C1318   1.438   .     A
C1315  C547    1.401   1_556 S
C1317  C1320   1.430   .     A
C1317  C544    1.426   1_556 S
C1318  C1319   1.439   .     A
C1319  C1349   1.477   .     S
C1319  C1321   1.411   .     A
C1320  C1322   1.403   .     A
C1320  C1353   1.490   .     S
C1321  N1343   1.440   .     S
C1322  N1346   1.435   .     S
C1322  C542    1.403   1_556 S
H1325  C1396   1.078   .     S
H1326  C1481   1.080   1_455 S
H1327  C1479   1.082   1_455 S
C1329  C1357   1.488   .     S
C1329  C1422   1.412   .     S
C1330  C1361   1.487   .     S
C1330  C816    1.390   1_565 S
C1330  C1507   1.412   1_455 S
C1331  H1333   1.084   .     S
C1331  C1335   1.397   .     A
C1331  C813    1.390   1_565 S
C1332  C1336   1.397   .     A
C1332  H1334   1.084   .     S
C1335  C1416   1.412   .     S
C1336  C1501   1.412   1_455 S
C1337  C1339   1.425   .     A
C1337  N1342   1.374   .     A
C1337  N1365   1.430   .     S
C1338  N1368   1.433   .     S
C1338  N1341   1.377   .     A
C1338  C1340   1.423   .     A
C1339  N1371   1.426   .     S
C1339  N1341   1.376   .     A
C1340  N1374   1.425   .     S
C1340  N1342   1.375   .     A
N1343  O1344   1.300   .     A
N1343  O1345   1.301   .     A
N1346  O1347   1.301   .     A
N1346  O1348   1.301   .     A
C1349  O1350   1.219   .     D
C1349  O1351   1.399   .     S
O1351  H1352   1.014   .     S
C1353  O1355   1.399   .     S
C1353  O1354   1.223   .     D
O1355  H1356   1.014   .     S
C1357  O1358   1.222   .     D
C1357  O1359   1.399   .     S
O1359  H1360   1.014   .     S
C1361  O1363   1.399   .     S
C1361  O1362   1.222   .     D
O1363  H1364   1.014   .     S
N1365  O1366   1.301   .     A
N1365  O1367   1.300   .     A
N1368  O1370   1.299   .     A
N1368  O1369   1.301   .     A
N1371  O1372   1.301   .     A
N1371  O1373   1.299   .     A
N1374  O1375   1.301   .     A
N1374  O1376   1.298   .     A
O1377  C1381   1.301   .     A
O1377  Cu1389  1.953   .     S
O1378  C1382   1.301   .     A
O1378  Cu1390  1.953   .     S
O1379  Cu1390  1.949   .     S
O1379  C1467   1.298   .     S
O1380  Cu1389  1.949   .     S
C1381  C1422   1.442   .     S
C1382  C1421   1.442   .     S
C1382  O1466   1.298   .     S
O1383  Cu1389  1.938   .     S
O1384  Cu1390  1.938   .     S
O1384  C1474   1.312   .     S
O1385  Cu1390  1.924   .     S
O1385  C1387   1.307   .     A
O1386  C1388   1.302   .     A
O1386  Cu1389  1.924   .     S
C1387  C1391   1.471   .     S
C1387  O1469   1.308   .     S
C1388  C1392   1.471   .     S
Cu1389 N1427   2.040   .     S
Cu1390 N1428   2.040   .     S
Cu1390 Cu1475  2.715   .     S
C1391  C1395   1.398   .     A
C1391  C1397   1.398   .     A
C1392  C1398   1.399   .     A
C1392  C1396   1.391   .     A
C1393  C1401   1.410   .     A
C1393  C1395   1.391   .     A
C1393  H1499   1.082   .     S
C1394  C1402   1.411   .     A
C1394  H1414   1.082   .     S
C1394  C1396   1.388   .     A
C1395  H1498   1.080   .     S
C1397  H1410   1.080   .     S
C1397  C1399   1.409   .     A
C1398  C1400   1.413   .     A
C1398  H1409   1.075   .     S
C1399  C1403   1.425   .     A
C1399  C1401   1.413   .     A
C1400  C1402   1.423   .     A
C1400  C1404   1.438   .     A
C1401  C633    1.401   1_556 S
C1403  C1406   1.430   .     A
C1403  C630    1.426   1_556 S
C1404  C1405   1.439   .     A
C1405  C1435   1.477   .     S
C1405  C1407   1.411   .     A
C1406  C1408   1.403   .     A
C1406  C1439   1.490   .     S
C1407  N1429   1.440   .     S
C1408  N1432   1.435   .     S
C1408  C628    1.403   1_556 S
H1411  C1482   1.078   .     S
C1415  C1443   1.488   .     S
C1415  C1508   1.412   .     S
C1416  C1447   1.487   .     S
C1416  C902    1.390   1_565 S
C1417  H1419   1.084   .     S
C1417  C1421   1.397   .     A
C1417  C899    1.390   1_565 S
C1418  C1422   1.397   .     A
C1418  H1420   1.084   .     S
C1421  C1502   1.412   .     S
C1423  C1425   1.425   .     A
C1423  N1428   1.374   .     A
C1423  N1451   1.430   .     S
C1424  N1454   1.433   .     S
C1424  N1427   1.377   .     A
C1424  C1426   1.423   .     A
C1425  N1457   1.426   .     S
C1425  N1427   1.376   .     A
C1426  N1460   1.425   .     S
C1426  N1428   1.375   .     A
N1429  O1430   1.300   .     A
N1429  O1431   1.301   .     A
N1432  O1433   1.301   .     A
N1432  O1434   1.301   .     A
C1435  O1436   1.219   .     D
C1435  O1437   1.399   .     S
O1437  H1438   1.014   .     S
C1439  O1441   1.399   .     S
C1439  O1440   1.223   .     D
O1441  H1442   1.014   .     S
C1443  O1444   1.222   .     D
C1443  O1445   1.399   .     S
O1445  H1446   1.014   .     S
C1447  O1449   1.399   .     S
C1447  O1448   1.222   .     D
O1449  H1450   1.014   .     S
N1451  O1452   1.301   .     A
N1451  O1453   1.300   .     A
N1454  O1456   1.299   .     A
N1454  O1455   1.301   .     A
N1457  O1458   1.301   .     A
N1457  O1459   1.299   .     A
N1460  O1461   1.301   .     A
N1460  O1462   1.298   .     A
O1463  C1467   1.301   .     A
O1463  Cu1475  1.953   .     S
O1464  C1468   1.301   .     A
O1464  Cu1476  1.953   .     S
O1465  Cu1476  1.949   .     S
O1465  C1295   1.298   1_655 S
O1466  Cu1475  1.949   .     S
C1467  C1508   1.442   .     S
C1468  C1507   1.442   .     S
C1468  O1294   1.298   1_655 S
O1469  Cu1475  1.938   .     S
O1470  Cu1476  1.938   .     S
O1470  C1302   1.312   1_655 S
O1471  Cu1476  1.924   .     S
O1471  C1473   1.307   .     A
O1472  C1474   1.302   .     A
O1472  Cu1475  1.924   .     S
C1473  C1477   1.471   .     S
C1473  O1297   1.308   1_655 S
C1474  C1478   1.471   .     S
Cu1475 N1513   2.040   .     S
Cu1476 N1514   2.040   .     S
Cu1476 Cu1303  2.715   1_655 S
C1477  C1481   1.398   .     A
C1477  C1483   1.398   .     A
C1478  C1484   1.399   .     A
C1478  C1482   1.391   .     A
C1479  C1487   1.410   .     A
C1479  C1481   1.391   .     A
C1479  H1327   1.082   1_655 S
C1480  C1488   1.411   .     A
C1480  H1500   1.082   .     S
C1480  C1482   1.388   .     A
C1481  H1326   1.080   1_655 S
C1483  H1496   1.080   .     S
C1483  C1485   1.409   .     A
C1484  C1486   1.413   .     A
C1484  H1495   1.075   .     S
C1485  C1489   1.425   .     A
C1485  C1487   1.413   .     A
C1486  C1488   1.423   .     A
C1486  C1490   1.438   .     A
C1487  C719    1.401   1_556 S
C1489  C1492   1.430   .     A
C1489  C716    1.426   1_556 S
C1490  C1491   1.439   .     A
C1491  C1521   1.477   .     S
C1491  C1493   1.411   .     A
C1492  C1494   1.403   .     A
C1492  C1525   1.490   .     S
C1493  N1515   1.440   .     S
C1494  N1518   1.435   .     S
C1494  C714    1.403   1_556 S
H1497  C1310   1.078   1_655 S
C1501  C1529   1.488   .     S
C1501  C1336   1.412   1_655 S
C1502  C1533   1.487   .     S
C1502  C988    1.390   1_565 S
C1503  H1505   1.084   .     S
C1503  C1507   1.397   .     A
C1503  C985    1.390   1_565 S
C1504  C1508   1.397   .     A
C1504  H1506   1.084   .     S
C1507  C1330   1.412   1_655 S
C1509  C1511   1.425   .     A
C1509  N1514   1.374   .     A
C1509  N1537   1.430   .     S
C1510  N1540   1.433   .     S
C1510  N1513   1.377   .     A
C1510  C1512   1.423   .     A
C1511  N1543   1.426   .     S
C1511  N1513   1.376   .     A
C1512  N1546   1.425   .     S
C1512  N1514   1.375   .     A
N1515  O1516   1.300   .     A
N1515  O1517   1.301   .     A
N1518  O1519   1.301   .     A
N1518  O1520   1.301   .     A
C1521  O1522   1.219   .     D
C1521  O1523   1.399   .     S
O1523  H1524   1.014   .     S
C1525  O1527   1.399   .     S
C1525  O1526   1.223   .     D
O1527  H1528   1.014   .     S
C1529  O1530   1.222   .     D
C1529  O1531   1.399   .     S
O1531  H1532   1.014   .     S
C1533  O1535   1.399   .     S
C1533  O1534   1.222   .     D
O1535  H1536   1.014   .     S
N1537  O1538   1.301   .     A
N1537  O1539   1.300   .     A
N1540  O1542   1.299   .     A
N1540  O1541   1.301   .     A
N1543  O1544   1.301   .     A
N1543  O1545   1.299   .     A
N1546  O1547   1.301   .     A
N1546  O1548   1.298   .     A
