data_str_m2_o1_o1_pcu_sym.79
_audit_creation_date              2020-01-03
_audit_creation_method            'Materials Studio'
_symmetry_space_group_name_H-M    'P1'
_symmetry_Int_Tables_number       1
_symmetry_cell_setting            triclinic
loop_
_symmetry_equiv_pos_as_xyz
  x,y,z
_cell_length_a                    30.3236
_cell_length_b                    31.2447
_cell_length_c                    28.9463
_cell_angle_alpha                 89.1541
_cell_angle_beta                  89.0016
_cell_angle_gamma                 90.5164
loop_
_atom_site_label
_atom_site_type_symbol
_atom_site_fract_x
_atom_site_fract_y
_atom_site_fract_z
_atom_site_U_iso_or_equiv
_atom_site_adp_type
_atom_site_occupancy
C1     C     0.06215   0.19325   0.16681   0.00000  Uiso   1.00
C2     C     0.49851   0.28741   0.30819   0.00000  Uiso   1.00
C3     C     0.49779   0.28727   0.02390   0.00000  Uiso   1.00
C4     C     0.00061   0.21239   0.30921   0.00000  Uiso   1.00
C5     C     0.25044   0.46236   0.02512   0.00000  Uiso   1.00
C6     C     0.24866   0.03746   0.30825   0.00000  Uiso   1.00
C7     C     0.24904   0.03738   0.02399   0.00000  Uiso   1.00
C8     C     0.25022   0.46243   0.30921   0.00000  Uiso   1.00
C9     C     0.37823   0.15286   0.12687   0.00000  Uiso   1.00
C10    C     0.12268   0.34678   0.20228   0.00000  Uiso   1.00
C11    C     0.10602   0.36517   0.12256   0.00000  Uiso   1.00
C12    C     0.44118   0.31007   0.16686   0.00000  Uiso   1.00
C13    C     0.38605   0.14203   0.20936   0.00000  Uiso   1.00
C14    C     0.10230   0.13466   0.20660   0.00000  Uiso   1.00
C15    C     0.41989   0.38463   0.14359   0.00000  Uiso   1.00
C16    C     0.37345   0.34610   0.19911   0.00000  Uiso   1.00
C17    C     0.13490   0.16272   0.13535   0.00000  Uiso   1.00
C18    C     0.12618   0.40555   0.12817   0.00000  Uiso   1.00
C19    C     0.36909   0.10057   0.20559   0.00000  Uiso   1.00
C20    C     0.36101   0.11136   0.12284   0.00000  Uiso   1.00
C21    C     0.14137   0.38724   0.20840   0.00000  Uiso   1.00
C22    C     0.35272   0.38466   0.20740   0.00000  Uiso   1.00
C23    C     0.43730   0.19359   0.16723   0.00000  Uiso   1.00
C24    C     0.16975   0.13410   0.14333   0.00000  Uiso   1.00
C25    C     0.12208   0.09552   0.19786   0.00000  Uiso   1.00
C26    C     0.38452   0.41284   0.13613   0.00000  Uiso   1.00
C27    C     0.09906   0.33841   0.16227   0.00000  Uiso   1.00
C28    C     0.39798   0.16472   0.16848   0.00000  Uiso   1.00
C29    C     0.41000   0.34603   0.16793   0.00000  Uiso   1.00
C30    C     0.09978   0.16332   0.16864   0.00000  Uiso   1.00
C31    C     0.35023   0.08781   0.16392   0.00000  Uiso   1.00
C32    C     0.14919   0.41376   0.16911   0.00000  Uiso   1.00
C33    C     0.15937   0.09552   0.16757   0.00000  Uiso   1.00
C34    C     0.06221   0.30693   0.16553   0.00000  Uiso   1.00
C35    C     0.34931   0.41265   0.16910   0.00000  Uiso   1.00
C36    C     0.31152   0.44249   0.16697   0.00000  Uiso   1.00
C37    C     0.19072   0.05968   0.16684   0.00000  Uiso   1.00
C38    C     0.18780   0.44314   0.16739   0.00000  Uiso   1.00
C39    C     0.31287   0.05641   0.16586   0.00000  Uiso   1.00
C40    C     0.00106   0.21235   0.02512   0.00000  Uiso   1.00
Cl41   Cl    0.00095   0.16237   0.05442   0.00000  Uiso   1.00
Cl42   Cl    0.49707   0.33713   0.27914   0.00000  Uiso   1.00
Cl43   Cl    0.49240   0.33623   0.05135   0.00000  Uiso   1.00
Cl44   Cl    0.49769   0.16283   0.28101   0.00000  Uiso   1.00
Cl45   Cl    0.25091   0.41244   0.05441   0.00000  Uiso   1.00
Cl46   Cl    0.24704   0.08726   0.27928   0.00000  Uiso   1.00
Cl47   Cl    0.24929   0.08665   0.05175   0.00000  Uiso   1.00
Cl48   Cl    0.24898   0.41307   0.28083   0.00000  Uiso   1.00
Cu49   Cu    0.00000   0.25000   0.21355   0.00000  Uiso   1.00
Cu50   Cu    0.00000   0.25000   0.11978   0.00000  Uiso   1.00
Cu51   Cu    0.25000   0.00000   0.21355   0.00000  Uiso   1.00
Cu52   Cu    0.25000   0.00000   0.11978   0.00000  Uiso   1.00
H53    H     0.34941   0.25896   0.08180   0.00000  Uiso   1.00
H54    H     0.33903   0.06675   0.30124   0.00000  Uiso   1.00
H55    H     0.36435   0.02910   0.03359   0.00000  Uiso   1.00
H56    H     0.13532   0.46890   0.29962   0.00000  Uiso   1.00
H57    H     0.36734   0.46516   0.29799   0.00000  Uiso   1.00
H58    H     0.28166   0.14387   0.18786   0.00000  Uiso   1.00
H59    H     0.13179   0.49949   0.19400   0.00000  Uiso   1.00
H60    H     0.35198   0.41706   0.04551   0.00000  Uiso   1.00
H61    H     0.09183   0.32447   0.29018   0.00000  Uiso   1.00
H62    H     0.11367   0.28199   0.03353   0.00000  Uiso   1.00
H63    H     0.41381   0.19413   0.30230   0.00000  Uiso   1.00
H64    H     0.11579   0.21376   0.29926   0.00000  Uiso   1.00
H65    H     0.02936   0.39860   0.19316   0.00000  Uiso   1.00
H66    H     0.38244   0.24996   0.19335   0.00000  Uiso   1.00
H67    H     0.09678   0.17247   0.04339   0.00000  Uiso   1.00
H68    H     0.12668   0.01560   0.08001   0.00000  Uiso   1.00
N69    N     0.00000   0.25000   0.28402   0.00000  Uiso   1.00
N70    N     0.00000   0.25000   0.04931   0.00000  Uiso   1.00
N71    N     0.25000   0.00000   0.28402   0.00000  Uiso   1.00
N72    N     0.25000   0.00000   0.04931   0.00000  Uiso   1.00
O73    O     0.04509   0.20491   0.20625   0.00000  Uiso   1.00
O74    O     0.20492   0.04509   0.12709   0.00000  Uiso   1.00
O75    O     0.20492   0.04509   0.20625   0.00000  Uiso   1.00
O76    O     0.29509   0.45491   0.12709   0.00000  Uiso   1.00
O77    O     0.20492   0.45491   0.12709   0.00000  Uiso   1.00
O78    O     0.29509   0.04509   0.20625   0.00000  Uiso   1.00
O79    O     0.29509   0.04509   0.12709   0.00000  Uiso   1.00
O80    O     0.20492   0.45491   0.20625   0.00000  Uiso   1.00
O81    O     0.40541   0.19998   0.05277   0.00000  Uiso   1.00
O82    O     0.32841   0.17640   0.05488   0.00000  Uiso   1.00
O83    O     0.35155   0.23826   0.10790   0.00000  Uiso   1.00
O84    O     0.45492   0.29509   0.12709   0.00000  Uiso   1.00
O85    O     0.14101   0.26356   0.21017   0.00000  Uiso   1.00
O86    O     0.18354   0.31172   0.25800   0.00000  Uiso   1.00
O87    O     0.10192   0.29564   0.28175   0.00000  Uiso   1.00
O88    O     0.08404   0.36943   0.03254   0.00000  Uiso   1.00
O89    O     0.15861   0.34758   0.05188   0.00000  Uiso   1.00
O90    O     0.09607   0.29223   0.06019   0.00000  Uiso   1.00
O91    O     0.32288   0.19291   0.24193   0.00000  Uiso   1.00
O92    O     0.35154   0.14166   0.29614   0.00000  Uiso   1.00
O93    O     0.39962   0.20796   0.27566   0.00000  Uiso   1.00
O94    O     0.08806   0.12792   0.29896   0.00000  Uiso   1.00
O95    O     0.45492   0.29509   0.20625   0.00000  Uiso   1.00
O96    O     0.16155   0.14874   0.27153   0.00000  Uiso   1.00
O97    O     0.10103   0.20577   0.27036   0.00000  Uiso   1.00
O98    O     0.49743   0.41116   0.10413   0.00000  Uiso   1.00
O99    O     0.46808   0.45247   0.16817   0.00000  Uiso   1.00
O100   O     0.00377   0.37984   0.18664   0.00000  Uiso   1.00
O101   O     0.38534   0.29261   0.27058   0.00000  Uiso   1.00
O102   O     0.30916   0.30915   0.25092   0.00000  Uiso   1.00
O103   O     0.35184   0.25975   0.19620   0.00000  Uiso   1.00
O104   O     0.14588   0.24480   0.11301   0.00000  Uiso   1.00
O105   O     0.18091   0.19422   0.06070   0.00000  Uiso   1.00
O106   O     0.04509   0.20491   0.12709   0.00000  Uiso   1.00
O107   O     0.09722   0.20159   0.05638   0.00000  Uiso   1.00
O108   O     0.15141   0.44002   0.04624   0.00000  Uiso   1.00
O109   O     0.07330   0.44587   0.06726   0.00000  Uiso   1.00
O110   O     0.12814   0.49575   0.10694   0.00000  Uiso   1.00
O111   O     0.40497   0.02392   0.21913   0.00000  Uiso   1.00
O112   O     0.42288   0.07885   0.27511   0.00000  Uiso   1.00
O113   O     0.34515   0.04344   0.27956   0.00000  Uiso   1.00
O114   O     0.39456   0.11363   0.03519   0.00000  Uiso   1.00
O115   O     0.42373   0.06175   0.08877   0.00000  Uiso   1.00
O116   O     0.34646   0.04719   0.05436   0.00000  Uiso   1.00
O117   O     0.45492   0.20491   0.12709   0.00000  Uiso   1.00
O118   O     0.08391   0.40612   0.27481   0.00000  Uiso   1.00
O119   O     0.15654   0.38313   0.29948   0.00000  Uiso   1.00
O120   O     0.14789   0.46028   0.26944   0.00000  Uiso   1.00
O121   O     0.33854   0.38010   0.29953   0.00000  Uiso   1.00
O122   O     0.41256   0.39860   0.27179   0.00000  Uiso   1.00
O123   O     0.35372   0.45713   0.26847   0.00000  Uiso   1.00
O124   O     0.24742   0.16274   0.10493   0.00000  Uiso   1.00
O125   O     0.21770   0.20097   0.17101   0.00000  Uiso   1.00
O126   O     0.25352   0.12786   0.18576   0.00000  Uiso   1.00
O127   O     0.13368   0.04520   0.27141   0.00000  Uiso   1.00
O128   O     0.04509   0.29509   0.20625   0.00000  Uiso   1.00
O129   O     0.05762   0.05951   0.24996   0.00000  Uiso   1.00
O130   O     0.10077   0.00681   0.19980   0.00000  Uiso   1.00
O131   O     0.38118   0.49468   0.11942   0.00000  Uiso   1.00
O132   O     0.43272   0.45628   0.06937   0.00000  Uiso   1.00
O133   O     0.34970   0.44744   0.05436   0.00000  Uiso   1.00
O134   O     0.04509   0.29509   0.12709   0.00000  Uiso   1.00
O135   O     0.45492   0.20491   0.20625   0.00000  Uiso   1.00
O136   O     0.29509   0.45491   0.20625   0.00000  Uiso   1.00
S137   S     0.36596   0.19191   0.08362   0.00000  Uiso   1.00
S138   S     0.38696   0.06114   0.24554   0.00000  Uiso   1.00
S139   S     0.38216   0.08356   0.07414   0.00000  Uiso   1.00
S140   S     0.13255   0.40908   0.26421   0.00000  Uiso   1.00
S141   S     0.36429   0.40492   0.26319   0.00000  Uiso   1.00
S142   S     0.22307   0.15750   0.15015   0.00000  Uiso   1.00
S143   S     0.10331   0.05116   0.23144   0.00000  Uiso   1.00
S144   S     0.38880   0.45400   0.09400   0.00000  Uiso   1.00
S145   S     0.13874   0.30344   0.23842   0.00000  Uiso   1.00
S146   S     0.11073   0.34364   0.06577   0.00000  Uiso   1.00
S147   S     0.36425   0.17103   0.25675   0.00000  Uiso   1.00
S148   S     0.11311   0.15406   0.26315   0.00000  Uiso   1.00
S149   S     0.47328   0.40806   0.14960   0.00000  Uiso   1.00
S150   S     0.35463   0.30136   0.23146   0.00000  Uiso   1.00
S151   S     0.14106   0.20195   0.09081   0.00000  Uiso   1.00
S152   S     0.11935   0.44688   0.08541   0.00000  Uiso   1.00
C153   C     0.56215   0.19325   0.16681   0.00000  Uiso   1.00
C154   C     0.99851   0.28741   0.30819   0.00000  Uiso   1.00
C155   C     0.99779   0.28727   0.02390   0.00000  Uiso   1.00
C156   C     0.50061   0.21239   0.30921   0.00000  Uiso   1.00
C157   C     0.75044   0.46236   0.02512   0.00000  Uiso   1.00
C158   C     0.74866   0.03746   0.30825   0.00000  Uiso   1.00
C159   C     0.74904   0.03738   0.02399   0.00000  Uiso   1.00
C160   C     0.75022   0.46243   0.30921   0.00000  Uiso   1.00
C161   C     0.87823   0.15286   0.12687   0.00000  Uiso   1.00
C162   C     0.62268   0.34678   0.20228   0.00000  Uiso   1.00
C163   C     0.60602   0.36517   0.12256   0.00000  Uiso   1.00
C164   C     0.94118   0.31007   0.16686   0.00000  Uiso   1.00
C165   C     0.88605   0.14203   0.20936   0.00000  Uiso   1.00
C166   C     0.60230   0.13466   0.20660   0.00000  Uiso   1.00
C167   C     0.91989   0.38463   0.14359   0.00000  Uiso   1.00
C168   C     0.87345   0.34610   0.19911   0.00000  Uiso   1.00
C169   C     0.63490   0.16272   0.13535   0.00000  Uiso   1.00
C170   C     0.62618   0.40555   0.12817   0.00000  Uiso   1.00
C171   C     0.86909   0.10057   0.20559   0.00000  Uiso   1.00
C172   C     0.86101   0.11136   0.12284   0.00000  Uiso   1.00
C173   C     0.64137   0.38724   0.20840   0.00000  Uiso   1.00
C174   C     0.85272   0.38466   0.20740   0.00000  Uiso   1.00
C175   C     0.93730   0.19359   0.16723   0.00000  Uiso   1.00
C176   C     0.66975   0.13410   0.14333   0.00000  Uiso   1.00
C177   C     0.62208   0.09552   0.19786   0.00000  Uiso   1.00
C178   C     0.88452   0.41284   0.13613   0.00000  Uiso   1.00
C179   C     0.59906   0.33841   0.16227   0.00000  Uiso   1.00
C180   C     0.89798   0.16472   0.16848   0.00000  Uiso   1.00
C181   C     0.91000   0.34603   0.16793   0.00000  Uiso   1.00
C182   C     0.59978   0.16332   0.16864   0.00000  Uiso   1.00
C183   C     0.85023   0.08781   0.16392   0.00000  Uiso   1.00
C184   C     0.64919   0.41376   0.16911   0.00000  Uiso   1.00
C185   C     0.65937   0.09552   0.16757   0.00000  Uiso   1.00
C186   C     0.56221   0.30693   0.16553   0.00000  Uiso   1.00
C187   C     0.84931   0.41265   0.16910   0.00000  Uiso   1.00
C188   C     0.81152   0.44249   0.16697   0.00000  Uiso   1.00
C189   C     0.69072   0.05968   0.16684   0.00000  Uiso   1.00
C190   C     0.68780   0.44314   0.16739   0.00000  Uiso   1.00
C191   C     0.81287   0.05641   0.16586   0.00000  Uiso   1.00
C192   C     0.50106   0.21235   0.02512   0.00000  Uiso   1.00
Cl193  Cl    0.50095   0.16237   0.05442   0.00000  Uiso   1.00
Cl194  Cl    0.99707   0.33713   0.27914   0.00000  Uiso   1.00
Cl195  Cl    0.99240   0.33623   0.05135   0.00000  Uiso   1.00
Cl196  Cl    0.99769   0.16283   0.28101   0.00000  Uiso   1.00
Cl197  Cl    0.75091   0.41244   0.05441   0.00000  Uiso   1.00
Cl198  Cl    0.74704   0.08726   0.27928   0.00000  Uiso   1.00
Cl199  Cl    0.74929   0.08665   0.05175   0.00000  Uiso   1.00
Cl200  Cl    0.74898   0.41307   0.28083   0.00000  Uiso   1.00
Cu201  Cu    0.50000   0.25000   0.21355   0.00000  Uiso   1.00
Cu202  Cu    0.50000   0.25000   0.11978   0.00000  Uiso   1.00
Cu203  Cu    0.75000   0.00000   0.21355   0.00000  Uiso   1.00
Cu204  Cu    0.75000   0.00000   0.11978   0.00000  Uiso   1.00
H205   H     0.84941   0.25896   0.08180   0.00000  Uiso   1.00
H206   H     0.83903   0.06675   0.30124   0.00000  Uiso   1.00
H207   H     0.86435   0.02910   0.03359   0.00000  Uiso   1.00
H208   H     0.63532   0.46890   0.29962   0.00000  Uiso   1.00
H209   H     0.86734   0.46516   0.29799   0.00000  Uiso   1.00
H210   H     0.78166   0.14387   0.18786   0.00000  Uiso   1.00
H211   H     0.63179   0.49949   0.19400   0.00000  Uiso   1.00
H212   H     0.85198   0.41706   0.04551   0.00000  Uiso   1.00
H213   H     0.59183   0.32447   0.29018   0.00000  Uiso   1.00
H214   H     0.61367   0.28199   0.03353   0.00000  Uiso   1.00
H215   H     0.91381   0.19413   0.30230   0.00000  Uiso   1.00
H216   H     0.61579   0.21376   0.29926   0.00000  Uiso   1.00
H217   H     0.52936   0.39860   0.19316   0.00000  Uiso   1.00
H218   H     0.88244   0.24996   0.19335   0.00000  Uiso   1.00
H219   H     0.59678   0.17247   0.04339   0.00000  Uiso   1.00
H220   H     0.62668   0.01560   0.08001   0.00000  Uiso   1.00
N221   N     0.50000   0.25000   0.28402   0.00000  Uiso   1.00
N222   N     0.50000   0.25000   0.04931   0.00000  Uiso   1.00
N223   N     0.75000   0.00000   0.28402   0.00000  Uiso   1.00
N224   N     0.75000   0.00000   0.04931   0.00000  Uiso   1.00
O225   O     0.54509   0.20491   0.20625   0.00000  Uiso   1.00
O226   O     0.70492   0.04509   0.12709   0.00000  Uiso   1.00
O227   O     0.70492   0.04509   0.20625   0.00000  Uiso   1.00
O228   O     0.79509   0.45491   0.12709   0.00000  Uiso   1.00
O229   O     0.70492   0.45491   0.12709   0.00000  Uiso   1.00
O230   O     0.79509   0.04509   0.20625   0.00000  Uiso   1.00
O231   O     0.79509   0.04509   0.12709   0.00000  Uiso   1.00
O232   O     0.70492   0.45491   0.20625   0.00000  Uiso   1.00
O233   O     0.90541   0.19998   0.05277   0.00000  Uiso   1.00
O234   O     0.82841   0.17640   0.05488   0.00000  Uiso   1.00
O235   O     0.85155   0.23826   0.10790   0.00000  Uiso   1.00
O236   O     0.95492   0.29509   0.12709   0.00000  Uiso   1.00
O237   O     0.64101   0.26356   0.21017   0.00000  Uiso   1.00
O238   O     0.68354   0.31172   0.25800   0.00000  Uiso   1.00
O239   O     0.60192   0.29564   0.28175   0.00000  Uiso   1.00
O240   O     0.58404   0.36943   0.03254   0.00000  Uiso   1.00
O241   O     0.65861   0.34758   0.05188   0.00000  Uiso   1.00
O242   O     0.59607   0.29223   0.06019   0.00000  Uiso   1.00
O243   O     0.82288   0.19291   0.24193   0.00000  Uiso   1.00
O244   O     0.85154   0.14166   0.29614   0.00000  Uiso   1.00
O245   O     0.89962   0.20796   0.27566   0.00000  Uiso   1.00
O246   O     0.58806   0.12792   0.29896   0.00000  Uiso   1.00
O247   O     0.95492   0.29509   0.20625   0.00000  Uiso   1.00
O248   O     0.66155   0.14874   0.27153   0.00000  Uiso   1.00
O249   O     0.60103   0.20577   0.27036   0.00000  Uiso   1.00
O250   O     0.99743   0.41116   0.10413   0.00000  Uiso   1.00
O251   O     0.96808   0.45247   0.16817   0.00000  Uiso   1.00
O252   O     0.50377   0.37984   0.18664   0.00000  Uiso   1.00
O253   O     0.88534   0.29261   0.27058   0.00000  Uiso   1.00
O254   O     0.80916   0.30915   0.25092   0.00000  Uiso   1.00
O255   O     0.85184   0.25975   0.19620   0.00000  Uiso   1.00
O256   O     0.64588   0.24480   0.11301   0.00000  Uiso   1.00
O257   O     0.68091   0.19422   0.06070   0.00000  Uiso   1.00
O258   O     0.54509   0.20491   0.12709   0.00000  Uiso   1.00
O259   O     0.59722   0.20159   0.05638   0.00000  Uiso   1.00
O260   O     0.65141   0.44002   0.04624   0.00000  Uiso   1.00
O261   O     0.57330   0.44587   0.06726   0.00000  Uiso   1.00
O262   O     0.62814   0.49575   0.10694   0.00000  Uiso   1.00
O263   O     0.90497   0.02392   0.21913   0.00000  Uiso   1.00
O264   O     0.92288   0.07885   0.27511   0.00000  Uiso   1.00
O265   O     0.84515   0.04344   0.27956   0.00000  Uiso   1.00
O266   O     0.89456   0.11363   0.03519   0.00000  Uiso   1.00
O267   O     0.92373   0.06175   0.08877   0.00000  Uiso   1.00
O268   O     0.84646   0.04719   0.05436   0.00000  Uiso   1.00
O269   O     0.95492   0.20491   0.12709   0.00000  Uiso   1.00
O270   O     0.58391   0.40612   0.27481   0.00000  Uiso   1.00
O271   O     0.65654   0.38313   0.29948   0.00000  Uiso   1.00
O272   O     0.64789   0.46028   0.26944   0.00000  Uiso   1.00
O273   O     0.83854   0.38010   0.29953   0.00000  Uiso   1.00
O274   O     0.91256   0.39860   0.27179   0.00000  Uiso   1.00
O275   O     0.85372   0.45713   0.26847   0.00000  Uiso   1.00
O276   O     0.74742   0.16274   0.10493   0.00000  Uiso   1.00
O277   O     0.71770   0.20097   0.17101   0.00000  Uiso   1.00
O278   O     0.75352   0.12786   0.18576   0.00000  Uiso   1.00
O279   O     0.63368   0.04520   0.27141   0.00000  Uiso   1.00
O280   O     0.54509   0.29509   0.20625   0.00000  Uiso   1.00
O281   O     0.55762   0.05951   0.24996   0.00000  Uiso   1.00
O282   O     0.60077   0.00681   0.19980   0.00000  Uiso   1.00
O283   O     0.88118   0.49468   0.11942   0.00000  Uiso   1.00
O284   O     0.93272   0.45628   0.06937   0.00000  Uiso   1.00
O285   O     0.84970   0.44744   0.05436   0.00000  Uiso   1.00
O286   O     0.54509   0.29509   0.12709   0.00000  Uiso   1.00
O287   O     0.95492   0.20491   0.20625   0.00000  Uiso   1.00
O288   O     0.79509   0.45491   0.20625   0.00000  Uiso   1.00
S289   S     0.86596   0.19191   0.08362   0.00000  Uiso   1.00
S290   S     0.88696   0.06114   0.24554   0.00000  Uiso   1.00
S291   S     0.88216   0.08356   0.07414   0.00000  Uiso   1.00
S292   S     0.63255   0.40908   0.26421   0.00000  Uiso   1.00
S293   S     0.86429   0.40492   0.26319   0.00000  Uiso   1.00
S294   S     0.72307   0.15750   0.15015   0.00000  Uiso   1.00
S295   S     0.60331   0.05116   0.23144   0.00000  Uiso   1.00
S296   S     0.88880   0.45400   0.09400   0.00000  Uiso   1.00
S297   S     0.63874   0.30344   0.23842   0.00000  Uiso   1.00
S298   S     0.61073   0.34364   0.06577   0.00000  Uiso   1.00
S299   S     0.86425   0.17103   0.25675   0.00000  Uiso   1.00
S300   S     0.61311   0.15406   0.26315   0.00000  Uiso   1.00
S301   S     0.97328   0.40806   0.14960   0.00000  Uiso   1.00
S302   S     0.85463   0.30136   0.23146   0.00000  Uiso   1.00
S303   S     0.64106   0.20195   0.09081   0.00000  Uiso   1.00
S304   S     0.61935   0.44688   0.08541   0.00000  Uiso   1.00
C305   C     0.06215   0.69325   0.16681   0.00000  Uiso   1.00
C306   C     0.49851   0.78741   0.30819   0.00000  Uiso   1.00
C307   C     0.49779   0.78727   0.02390   0.00000  Uiso   1.00
C308   C     0.00061   0.71239   0.30921   0.00000  Uiso   1.00
C309   C     0.25044   0.96236   0.02512   0.00000  Uiso   1.00
C310   C     0.24866   0.53746   0.30825   0.00000  Uiso   1.00
C311   C     0.24904   0.53738   0.02399   0.00000  Uiso   1.00
C312   C     0.25022   0.96243   0.30921   0.00000  Uiso   1.00
C313   C     0.37823   0.65286   0.12687   0.00000  Uiso   1.00
C314   C     0.12268   0.84678   0.20228   0.00000  Uiso   1.00
C315   C     0.10602   0.86517   0.12256   0.00000  Uiso   1.00
C316   C     0.44118   0.81007   0.16686   0.00000  Uiso   1.00
C317   C     0.38605   0.64203   0.20936   0.00000  Uiso   1.00
C318   C     0.10230   0.63466   0.20660   0.00000  Uiso   1.00
C319   C     0.41989   0.88463   0.14359   0.00000  Uiso   1.00
C320   C     0.37345   0.84610   0.19911   0.00000  Uiso   1.00
C321   C     0.13490   0.66272   0.13535   0.00000  Uiso   1.00
C322   C     0.12618   0.90555   0.12817   0.00000  Uiso   1.00
C323   C     0.36909   0.60057   0.20559   0.00000  Uiso   1.00
C324   C     0.36101   0.61136   0.12284   0.00000  Uiso   1.00
C325   C     0.14137   0.88724   0.20840   0.00000  Uiso   1.00
C326   C     0.35272   0.88466   0.20740   0.00000  Uiso   1.00
C327   C     0.43730   0.69359   0.16723   0.00000  Uiso   1.00
C328   C     0.16975   0.63410   0.14333   0.00000  Uiso   1.00
C329   C     0.12208   0.59552   0.19786   0.00000  Uiso   1.00
C330   C     0.38452   0.91284   0.13613   0.00000  Uiso   1.00
C331   C     0.09906   0.83841   0.16227   0.00000  Uiso   1.00
C332   C     0.39798   0.66472   0.16848   0.00000  Uiso   1.00
C333   C     0.41000   0.84603   0.16793   0.00000  Uiso   1.00
C334   C     0.09978   0.66332   0.16864   0.00000  Uiso   1.00
C335   C     0.35023   0.58781   0.16392   0.00000  Uiso   1.00
C336   C     0.14919   0.91376   0.16911   0.00000  Uiso   1.00
C337   C     0.15937   0.59552   0.16757   0.00000  Uiso   1.00
C338   C     0.06221   0.80693   0.16553   0.00000  Uiso   1.00
C339   C     0.34931   0.91265   0.16910   0.00000  Uiso   1.00
C340   C     0.31152   0.94249   0.16697   0.00000  Uiso   1.00
C341   C     0.19072   0.55968   0.16684   0.00000  Uiso   1.00
C342   C     0.18780   0.94314   0.16739   0.00000  Uiso   1.00
C343   C     0.31287   0.55641   0.16586   0.00000  Uiso   1.00
C344   C     0.00106   0.71235   0.02512   0.00000  Uiso   1.00
Cl345  Cl    0.00095   0.66237   0.05442   0.00000  Uiso   1.00
Cl346  Cl    0.49707   0.83713   0.27914   0.00000  Uiso   1.00
Cl347  Cl    0.49240   0.83623   0.05135   0.00000  Uiso   1.00
Cl348  Cl    0.49769   0.66283   0.28101   0.00000  Uiso   1.00
Cl349  Cl    0.25091   0.91244   0.05441   0.00000  Uiso   1.00
Cl350  Cl    0.24704   0.58726   0.27928   0.00000  Uiso   1.00
Cl351  Cl    0.24929   0.58665   0.05175   0.00000  Uiso   1.00
Cl352  Cl    0.24898   0.91307   0.28083   0.00000  Uiso   1.00
Cu353  Cu    0.00000   0.75000   0.21355   0.00000  Uiso   1.00
Cu354  Cu    0.00000   0.75000   0.11978   0.00000  Uiso   1.00
Cu355  Cu    0.25000   0.50000   0.21355   0.00000  Uiso   1.00
Cu356  Cu    0.25000   0.50000   0.11978   0.00000  Uiso   1.00
H357   H     0.34941   0.75896   0.08180   0.00000  Uiso   1.00
H358   H     0.33903   0.56675   0.30124   0.00000  Uiso   1.00
H359   H     0.36435   0.52910   0.03359   0.00000  Uiso   1.00
H360   H     0.13532   0.96890   0.29962   0.00000  Uiso   1.00
H361   H     0.36734   0.96516   0.29799   0.00000  Uiso   1.00
H362   H     0.28166   0.64387   0.18786   0.00000  Uiso   1.00
H363   H     0.13179   0.99949   0.19400   0.00000  Uiso   1.00
H364   H     0.35198   0.91706   0.04551   0.00000  Uiso   1.00
H365   H     0.09183   0.82447   0.29018   0.00000  Uiso   1.00
H366   H     0.11367   0.78199   0.03353   0.00000  Uiso   1.00
H367   H     0.41381   0.69413   0.30230   0.00000  Uiso   1.00
H368   H     0.11579   0.71376   0.29926   0.00000  Uiso   1.00
H369   H     0.02936   0.89860   0.19316   0.00000  Uiso   1.00
H370   H     0.38244   0.74996   0.19335   0.00000  Uiso   1.00
H371   H     0.09678   0.67247   0.04339   0.00000  Uiso   1.00
H372   H     0.12668   0.51560   0.08001   0.00000  Uiso   1.00
N373   N     0.00000   0.75000   0.28402   0.00000  Uiso   1.00
N374   N     0.00000   0.75000   0.04931   0.00000  Uiso   1.00
N375   N     0.25000   0.50000   0.28402   0.00000  Uiso   1.00
N376   N     0.25000   0.50000   0.04931   0.00000  Uiso   1.00
O377   O     0.04509   0.70491   0.20625   0.00000  Uiso   1.00
O378   O     0.20492   0.54509   0.12709   0.00000  Uiso   1.00
O379   O     0.20492   0.54509   0.20625   0.00000  Uiso   1.00
O380   O     0.29509   0.95491   0.12709   0.00000  Uiso   1.00
O381   O     0.20492   0.95491   0.12709   0.00000  Uiso   1.00
O382   O     0.29509   0.54509   0.20625   0.00000  Uiso   1.00
O383   O     0.29509   0.54509   0.12709   0.00000  Uiso   1.00
O384   O     0.20492   0.95491   0.20625   0.00000  Uiso   1.00
O385   O     0.40541   0.69998   0.05277   0.00000  Uiso   1.00
O386   O     0.32841   0.67640   0.05488   0.00000  Uiso   1.00
O387   O     0.35155   0.73826   0.10790   0.00000  Uiso   1.00
O388   O     0.45492   0.79509   0.12709   0.00000  Uiso   1.00
O389   O     0.14101   0.76356   0.21017   0.00000  Uiso   1.00
O390   O     0.18354   0.81172   0.25800   0.00000  Uiso   1.00
O391   O     0.10192   0.79564   0.28175   0.00000  Uiso   1.00
O392   O     0.08404   0.86943   0.03254   0.00000  Uiso   1.00
O393   O     0.15861   0.84758   0.05188   0.00000  Uiso   1.00
O394   O     0.09607   0.79223   0.06019   0.00000  Uiso   1.00
O395   O     0.32288   0.69291   0.24193   0.00000  Uiso   1.00
O396   O     0.35154   0.64166   0.29614   0.00000  Uiso   1.00
O397   O     0.39962   0.70796   0.27566   0.00000  Uiso   1.00
O398   O     0.08806   0.62792   0.29896   0.00000  Uiso   1.00
O399   O     0.45492   0.79509   0.20625   0.00000  Uiso   1.00
O400   O     0.16155   0.64874   0.27153   0.00000  Uiso   1.00
O401   O     0.10103   0.70577   0.27036   0.00000  Uiso   1.00
O402   O     0.49743   0.91116   0.10413   0.00000  Uiso   1.00
O403   O     0.46808   0.95247   0.16817   0.00000  Uiso   1.00
O404   O     0.00377   0.87984   0.18664   0.00000  Uiso   1.00
O405   O     0.38534   0.79261   0.27058   0.00000  Uiso   1.00
O406   O     0.30916   0.80915   0.25092   0.00000  Uiso   1.00
O407   O     0.35184   0.75975   0.19620   0.00000  Uiso   1.00
O408   O     0.14588   0.74480   0.11301   0.00000  Uiso   1.00
O409   O     0.18091   0.69422   0.06070   0.00000  Uiso   1.00
O410   O     0.04509   0.70491   0.12709   0.00000  Uiso   1.00
O411   O     0.09722   0.70159   0.05638   0.00000  Uiso   1.00
O412   O     0.15141   0.94002   0.04624   0.00000  Uiso   1.00
O413   O     0.07330   0.94587   0.06726   0.00000  Uiso   1.00
O414   O     0.12814   0.99575   0.10694   0.00000  Uiso   1.00
O415   O     0.40497   0.52392   0.21913   0.00000  Uiso   1.00
O416   O     0.42288   0.57885   0.27511   0.00000  Uiso   1.00
O417   O     0.34515   0.54344   0.27956   0.00000  Uiso   1.00
O418   O     0.39456   0.61363   0.03519   0.00000  Uiso   1.00
O419   O     0.42373   0.56175   0.08877   0.00000  Uiso   1.00
O420   O     0.34646   0.54719   0.05436   0.00000  Uiso   1.00
O421   O     0.45492   0.70491   0.12709   0.00000  Uiso   1.00
O422   O     0.08391   0.90612   0.27481   0.00000  Uiso   1.00
O423   O     0.15654   0.88313   0.29948   0.00000  Uiso   1.00
O424   O     0.14789   0.96028   0.26944   0.00000  Uiso   1.00
O425   O     0.33854   0.88010   0.29953   0.00000  Uiso   1.00
O426   O     0.41256   0.89860   0.27179   0.00000  Uiso   1.00
O427   O     0.35372   0.95713   0.26847   0.00000  Uiso   1.00
O428   O     0.24742   0.66274   0.10493   0.00000  Uiso   1.00
O429   O     0.21770   0.70097   0.17101   0.00000  Uiso   1.00
O430   O     0.25352   0.62786   0.18576   0.00000  Uiso   1.00
O431   O     0.13368   0.54520   0.27141   0.00000  Uiso   1.00
O432   O     0.04509   0.79509   0.20625   0.00000  Uiso   1.00
O433   O     0.05762   0.55951   0.24996   0.00000  Uiso   1.00
O434   O     0.10077   0.50681   0.19980   0.00000  Uiso   1.00
O435   O     0.38118   0.99468   0.11942   0.00000  Uiso   1.00
O436   O     0.43272   0.95628   0.06937   0.00000  Uiso   1.00
O437   O     0.34970   0.94744   0.05436   0.00000  Uiso   1.00
O438   O     0.04509   0.79509   0.12709   0.00000  Uiso   1.00
O439   O     0.45492   0.70491   0.20625   0.00000  Uiso   1.00
O440   O     0.29509   0.95491   0.20625   0.00000  Uiso   1.00
S441   S     0.36596   0.69191   0.08362   0.00000  Uiso   1.00
S442   S     0.38696   0.56114   0.24554   0.00000  Uiso   1.00
S443   S     0.38216   0.58356   0.07414   0.00000  Uiso   1.00
S444   S     0.13255   0.90908   0.26421   0.00000  Uiso   1.00
S445   S     0.36429   0.90492   0.26319   0.00000  Uiso   1.00
S446   S     0.22307   0.65750   0.15015   0.00000  Uiso   1.00
S447   S     0.10331   0.55116   0.23144   0.00000  Uiso   1.00
S448   S     0.38880   0.95400   0.09400   0.00000  Uiso   1.00
S449   S     0.13874   0.80344   0.23842   0.00000  Uiso   1.00
S450   S     0.11073   0.84364   0.06577   0.00000  Uiso   1.00
S451   S     0.36425   0.67103   0.25675   0.00000  Uiso   1.00
S452   S     0.11311   0.65406   0.26315   0.00000  Uiso   1.00
S453   S     0.47328   0.90806   0.14960   0.00000  Uiso   1.00
S454   S     0.35463   0.80136   0.23146   0.00000  Uiso   1.00
S455   S     0.14106   0.70195   0.09081   0.00000  Uiso   1.00
S456   S     0.11935   0.94688   0.08541   0.00000  Uiso   1.00
C457   C     0.56215   0.69325   0.16681   0.00000  Uiso   1.00
C458   C     0.99851   0.78741   0.30819   0.00000  Uiso   1.00
C459   C     0.99779   0.78727   0.02390   0.00000  Uiso   1.00
C460   C     0.50061   0.71239   0.30921   0.00000  Uiso   1.00
C461   C     0.75044   0.96236   0.02512   0.00000  Uiso   1.00
C462   C     0.74866   0.53746   0.30825   0.00000  Uiso   1.00
C463   C     0.74904   0.53738   0.02399   0.00000  Uiso   1.00
C464   C     0.75022   0.96243   0.30921   0.00000  Uiso   1.00
C465   C     0.87823   0.65286   0.12687   0.00000  Uiso   1.00
C466   C     0.62268   0.84678   0.20228   0.00000  Uiso   1.00
C467   C     0.60602   0.86517   0.12256   0.00000  Uiso   1.00
C468   C     0.94118   0.81007   0.16686   0.00000  Uiso   1.00
C469   C     0.88605   0.64203   0.20936   0.00000  Uiso   1.00
C470   C     0.60230   0.63466   0.20660   0.00000  Uiso   1.00
C471   C     0.91989   0.88463   0.14359   0.00000  Uiso   1.00
C472   C     0.87345   0.84610   0.19911   0.00000  Uiso   1.00
C473   C     0.63490   0.66272   0.13535   0.00000  Uiso   1.00
C474   C     0.62618   0.90555   0.12817   0.00000  Uiso   1.00
C475   C     0.86909   0.60057   0.20559   0.00000  Uiso   1.00
C476   C     0.86101   0.61136   0.12284   0.00000  Uiso   1.00
C477   C     0.64137   0.88724   0.20840   0.00000  Uiso   1.00
C478   C     0.85272   0.88466   0.20740   0.00000  Uiso   1.00
C479   C     0.93730   0.69359   0.16723   0.00000  Uiso   1.00
C480   C     0.66975   0.63410   0.14333   0.00000  Uiso   1.00
C481   C     0.62208   0.59552   0.19786   0.00000  Uiso   1.00
C482   C     0.88452   0.91284   0.13613   0.00000  Uiso   1.00
C483   C     0.59906   0.83841   0.16227   0.00000  Uiso   1.00
C484   C     0.89798   0.66472   0.16848   0.00000  Uiso   1.00
C485   C     0.91000   0.84603   0.16793   0.00000  Uiso   1.00
C486   C     0.59978   0.66332   0.16864   0.00000  Uiso   1.00
C487   C     0.85023   0.58781   0.16392   0.00000  Uiso   1.00
C488   C     0.64919   0.91376   0.16911   0.00000  Uiso   1.00
C489   C     0.65937   0.59552   0.16757   0.00000  Uiso   1.00
C490   C     0.56221   0.80693   0.16553   0.00000  Uiso   1.00
C491   C     0.84931   0.91265   0.16910   0.00000  Uiso   1.00
C492   C     0.81152   0.94249   0.16697   0.00000  Uiso   1.00
C493   C     0.69072   0.55968   0.16684   0.00000  Uiso   1.00
C494   C     0.68780   0.94314   0.16739   0.00000  Uiso   1.00
C495   C     0.81287   0.55641   0.16586   0.00000  Uiso   1.00
C496   C     0.50106   0.71235   0.02512   0.00000  Uiso   1.00
Cl497  Cl    0.50095   0.66237   0.05442   0.00000  Uiso   1.00
Cl498  Cl    0.99707   0.83713   0.27914   0.00000  Uiso   1.00
Cl499  Cl    0.99240   0.83623   0.05135   0.00000  Uiso   1.00
Cl500  Cl    0.99769   0.66283   0.28101   0.00000  Uiso   1.00
Cl501  Cl    0.75091   0.91244   0.05441   0.00000  Uiso   1.00
Cl502  Cl    0.74704   0.58726   0.27928   0.00000  Uiso   1.00
Cl503  Cl    0.74929   0.58665   0.05175   0.00000  Uiso   1.00
Cl504  Cl    0.74898   0.91307   0.28083   0.00000  Uiso   1.00
Cu505  Cu    0.50000   0.75000   0.21355   0.00000  Uiso   1.00
Cu506  Cu    0.50000   0.75000   0.11978   0.00000  Uiso   1.00
Cu507  Cu    0.75000   0.50000   0.21355   0.00000  Uiso   1.00
Cu508  Cu    0.75000   0.50000   0.11978   0.00000  Uiso   1.00
H509   H     0.84941   0.75896   0.08180   0.00000  Uiso   1.00
H510   H     0.83903   0.56675   0.30124   0.00000  Uiso   1.00
H511   H     0.86435   0.52910   0.03359   0.00000  Uiso   1.00
H512   H     0.63532   0.96890   0.29962   0.00000  Uiso   1.00
H513   H     0.86734   0.96516   0.29799   0.00000  Uiso   1.00
H514   H     0.78166   0.64387   0.18786   0.00000  Uiso   1.00
H515   H     0.63179   0.99949   0.19400   0.00000  Uiso   1.00
H516   H     0.85198   0.91706   0.04551   0.00000  Uiso   1.00
H517   H     0.59183   0.82447   0.29018   0.00000  Uiso   1.00
H518   H     0.61367   0.78199   0.03353   0.00000  Uiso   1.00
H519   H     0.91381   0.69413   0.30230   0.00000  Uiso   1.00
H520   H     0.61579   0.71376   0.29926   0.00000  Uiso   1.00
H521   H     0.52936   0.89860   0.19316   0.00000  Uiso   1.00
H522   H     0.88244   0.74996   0.19335   0.00000  Uiso   1.00
H523   H     0.59678   0.67247   0.04339   0.00000  Uiso   1.00
H524   H     0.62668   0.51560   0.08001   0.00000  Uiso   1.00
N525   N     0.50000   0.75000   0.28402   0.00000  Uiso   1.00
N526   N     0.50000   0.75000   0.04931   0.00000  Uiso   1.00
N527   N     0.75000   0.50000   0.28402   0.00000  Uiso   1.00
N528   N     0.75000   0.50000   0.04931   0.00000  Uiso   1.00
O529   O     0.54509   0.70491   0.20625   0.00000  Uiso   1.00
O530   O     0.70492   0.54509   0.12709   0.00000  Uiso   1.00
O531   O     0.70492   0.54509   0.20625   0.00000  Uiso   1.00
O532   O     0.79509   0.95491   0.12709   0.00000  Uiso   1.00
O533   O     0.70492   0.95491   0.12709   0.00000  Uiso   1.00
O534   O     0.79509   0.54509   0.20625   0.00000  Uiso   1.00
O535   O     0.79509   0.54509   0.12709   0.00000  Uiso   1.00
O536   O     0.70492   0.95491   0.20625   0.00000  Uiso   1.00
O537   O     0.90541   0.69998   0.05277   0.00000  Uiso   1.00
O538   O     0.82841   0.67640   0.05488   0.00000  Uiso   1.00
O539   O     0.85155   0.73826   0.10790   0.00000  Uiso   1.00
O540   O     0.95492   0.79509   0.12709   0.00000  Uiso   1.00
O541   O     0.64101   0.76356   0.21017   0.00000  Uiso   1.00
O542   O     0.68354   0.81172   0.25800   0.00000  Uiso   1.00
O543   O     0.60192   0.79564   0.28175   0.00000  Uiso   1.00
O544   O     0.58404   0.86943   0.03254   0.00000  Uiso   1.00
O545   O     0.65861   0.84758   0.05188   0.00000  Uiso   1.00
O546   O     0.59607   0.79223   0.06019   0.00000  Uiso   1.00
O547   O     0.82288   0.69291   0.24193   0.00000  Uiso   1.00
O548   O     0.85154   0.64166   0.29614   0.00000  Uiso   1.00
O549   O     0.89962   0.70796   0.27566   0.00000  Uiso   1.00
O550   O     0.58806   0.62792   0.29896   0.00000  Uiso   1.00
O551   O     0.95492   0.79509   0.20625   0.00000  Uiso   1.00
O552   O     0.66155   0.64874   0.27153   0.00000  Uiso   1.00
O553   O     0.60103   0.70577   0.27036   0.00000  Uiso   1.00
O554   O     0.99743   0.91116   0.10413   0.00000  Uiso   1.00
O555   O     0.96808   0.95247   0.16817   0.00000  Uiso   1.00
O556   O     0.50377   0.87984   0.18664   0.00000  Uiso   1.00
O557   O     0.88534   0.79261   0.27058   0.00000  Uiso   1.00
O558   O     0.80916   0.80915   0.25092   0.00000  Uiso   1.00
O559   O     0.85184   0.75975   0.19620   0.00000  Uiso   1.00
O560   O     0.64588   0.74480   0.11301   0.00000  Uiso   1.00
O561   O     0.68091   0.69422   0.06070   0.00000  Uiso   1.00
O562   O     0.54509   0.70491   0.12709   0.00000  Uiso   1.00
O563   O     0.59722   0.70159   0.05638   0.00000  Uiso   1.00
O564   O     0.65141   0.94002   0.04624   0.00000  Uiso   1.00
O565   O     0.57330   0.94587   0.06726   0.00000  Uiso   1.00
O566   O     0.62814   0.99575   0.10694   0.00000  Uiso   1.00
O567   O     0.90497   0.52392   0.21913   0.00000  Uiso   1.00
O568   O     0.92288   0.57885   0.27511   0.00000  Uiso   1.00
O569   O     0.84515   0.54344   0.27956   0.00000  Uiso   1.00
O570   O     0.89456   0.61363   0.03519   0.00000  Uiso   1.00
O571   O     0.92373   0.56175   0.08877   0.00000  Uiso   1.00
O572   O     0.84646   0.54719   0.05436   0.00000  Uiso   1.00
O573   O     0.95492   0.70491   0.12709   0.00000  Uiso   1.00
O574   O     0.58391   0.90612   0.27481   0.00000  Uiso   1.00
O575   O     0.65654   0.88313   0.29948   0.00000  Uiso   1.00
O576   O     0.64789   0.96028   0.26944   0.00000  Uiso   1.00
O577   O     0.83854   0.88010   0.29953   0.00000  Uiso   1.00
O578   O     0.91256   0.89860   0.27179   0.00000  Uiso   1.00
O579   O     0.85372   0.95713   0.26847   0.00000  Uiso   1.00
O580   O     0.74742   0.66274   0.10493   0.00000  Uiso   1.00
O581   O     0.71770   0.70097   0.17101   0.00000  Uiso   1.00
O582   O     0.75352   0.62786   0.18576   0.00000  Uiso   1.00
O583   O     0.63368   0.54520   0.27141   0.00000  Uiso   1.00
O584   O     0.54509   0.79509   0.20625   0.00000  Uiso   1.00
O585   O     0.55762   0.55951   0.24996   0.00000  Uiso   1.00
O586   O     0.60077   0.50681   0.19980   0.00000  Uiso   1.00
O587   O     0.88118   0.99468   0.11942   0.00000  Uiso   1.00
O588   O     0.93272   0.95628   0.06937   0.00000  Uiso   1.00
O589   O     0.84970   0.94744   0.05436   0.00000  Uiso   1.00
O590   O     0.54509   0.79509   0.12709   0.00000  Uiso   1.00
O591   O     0.95492   0.70491   0.20625   0.00000  Uiso   1.00
O592   O     0.79509   0.95491   0.20625   0.00000  Uiso   1.00
S593   S     0.86596   0.69191   0.08362   0.00000  Uiso   1.00
S594   S     0.88696   0.56114   0.24554   0.00000  Uiso   1.00
S595   S     0.88216   0.58356   0.07414   0.00000  Uiso   1.00
S596   S     0.63255   0.90908   0.26421   0.00000  Uiso   1.00
S597   S     0.86429   0.90492   0.26319   0.00000  Uiso   1.00
S598   S     0.72307   0.65750   0.15015   0.00000  Uiso   1.00
S599   S     0.60331   0.55116   0.23144   0.00000  Uiso   1.00
S600   S     0.88880   0.95400   0.09400   0.00000  Uiso   1.00
S601   S     0.63874   0.80344   0.23842   0.00000  Uiso   1.00
S602   S     0.61073   0.84364   0.06577   0.00000  Uiso   1.00
S603   S     0.86425   0.67103   0.25675   0.00000  Uiso   1.00
S604   S     0.61311   0.65406   0.26315   0.00000  Uiso   1.00
S605   S     0.97328   0.90806   0.14960   0.00000  Uiso   1.00
S606   S     0.85463   0.80136   0.23146   0.00000  Uiso   1.00
S607   S     0.64106   0.70195   0.09081   0.00000  Uiso   1.00
S608   S     0.61935   0.94688   0.08541   0.00000  Uiso   1.00
C609   C     0.06215   0.19325   0.50015   0.00000  Uiso   1.00
C610   C     0.49851   0.28741   0.64152   0.00000  Uiso   1.00
C611   C     0.49779   0.28727   0.35723   0.00000  Uiso   1.00
C612   C     0.00061   0.21239   0.64254   0.00000  Uiso   1.00
C613   C     0.25044   0.46236   0.35846   0.00000  Uiso   1.00
C614   C     0.24866   0.03746   0.64158   0.00000  Uiso   1.00
C615   C     0.24904   0.03738   0.35732   0.00000  Uiso   1.00
C616   C     0.25022   0.46243   0.64254   0.00000  Uiso   1.00
C617   C     0.37823   0.15286   0.46021   0.00000  Uiso   1.00
C618   C     0.12268   0.34678   0.53561   0.00000  Uiso   1.00
C619   C     0.10602   0.36517   0.45590   0.00000  Uiso   1.00
C620   C     0.44118   0.31007   0.50019   0.00000  Uiso   1.00
C621   C     0.38605   0.14203   0.54269   0.00000  Uiso   1.00
C622   C     0.10230   0.13466   0.53993   0.00000  Uiso   1.00
C623   C     0.41989   0.38463   0.47693   0.00000  Uiso   1.00
C624   C     0.37345   0.34610   0.53244   0.00000  Uiso   1.00
C625   C     0.13490   0.16272   0.46868   0.00000  Uiso   1.00
C626   C     0.12618   0.40555   0.46150   0.00000  Uiso   1.00
C627   C     0.36909   0.10057   0.53892   0.00000  Uiso   1.00
C628   C     0.36101   0.11136   0.45618   0.00000  Uiso   1.00
C629   C     0.14137   0.38724   0.54173   0.00000  Uiso   1.00
C630   C     0.35272   0.38466   0.54073   0.00000  Uiso   1.00
C631   C     0.43730   0.19359   0.50056   0.00000  Uiso   1.00
C632   C     0.16975   0.13410   0.47666   0.00000  Uiso   1.00
C633   C     0.12208   0.09552   0.53119   0.00000  Uiso   1.00
C634   C     0.38452   0.41284   0.46946   0.00000  Uiso   1.00
C635   C     0.09906   0.33841   0.49560   0.00000  Uiso   1.00
C636   C     0.39798   0.16472   0.50181   0.00000  Uiso   1.00
C637   C     0.41000   0.34603   0.50126   0.00000  Uiso   1.00
C638   C     0.09978   0.16332   0.50197   0.00000  Uiso   1.00
C639   C     0.35023   0.08781   0.49725   0.00000  Uiso   1.00
C640   C     0.14919   0.41376   0.50244   0.00000  Uiso   1.00
C641   C     0.15937   0.09552   0.50090   0.00000  Uiso   1.00
C642   C     0.06221   0.30693   0.49886   0.00000  Uiso   1.00
C643   C     0.34931   0.41265   0.50243   0.00000  Uiso   1.00
C644   C     0.31152   0.44249   0.50030   0.00000  Uiso   1.00
C645   C     0.19072   0.05968   0.50017   0.00000  Uiso   1.00
C646   C     0.18780   0.44314   0.50072   0.00000  Uiso   1.00
C647   C     0.31287   0.05641   0.49919   0.00000  Uiso   1.00
C648   C     0.00106   0.21235   0.35846   0.00000  Uiso   1.00
Cl649  Cl    0.00095   0.16237   0.38776   0.00000  Uiso   1.00
Cl650  Cl    0.49707   0.33713   0.61247   0.00000  Uiso   1.00
Cl651  Cl    0.49240   0.33623   0.38468   0.00000  Uiso   1.00
Cl652  Cl    0.49769   0.16283   0.61434   0.00000  Uiso   1.00
Cl653  Cl    0.25091   0.41244   0.38774   0.00000  Uiso   1.00
Cl654  Cl    0.24704   0.08726   0.61262   0.00000  Uiso   1.00
Cl655  Cl    0.24929   0.08665   0.38509   0.00000  Uiso   1.00
Cl656  Cl    0.24898   0.41307   0.61417   0.00000  Uiso   1.00
Cu657  Cu    0.00000   0.25000   0.54689   0.00000  Uiso   1.00
Cu658  Cu    0.00000   0.25000   0.45311   0.00000  Uiso   1.00
Cu659  Cu    0.25000   0.00000   0.54689   0.00000  Uiso   1.00
Cu660  Cu    0.25000   0.00000   0.45311   0.00000  Uiso   1.00
H661   H     0.34941   0.25896   0.41513   0.00000  Uiso   1.00
H662   H     0.33903   0.06675   0.63457   0.00000  Uiso   1.00
H663   H     0.36435   0.02910   0.36693   0.00000  Uiso   1.00
H664   H     0.13532   0.46890   0.63296   0.00000  Uiso   1.00
H665   H     0.36734   0.46516   0.63132   0.00000  Uiso   1.00
H666   H     0.28166   0.14387   0.52119   0.00000  Uiso   1.00
H667   H     0.13179   0.49949   0.52734   0.00000  Uiso   1.00
H668   H     0.35198   0.41706   0.37885   0.00000  Uiso   1.00
H669   H     0.09183   0.32447   0.62351   0.00000  Uiso   1.00
H670   H     0.11367   0.28199   0.36687   0.00000  Uiso   1.00
H671   H     0.41381   0.19413   0.63564   0.00000  Uiso   1.00
H672   H     0.11579   0.21376   0.63260   0.00000  Uiso   1.00
H673   H     0.02936   0.39860   0.52650   0.00000  Uiso   1.00
H674   H     0.38244   0.24996   0.52668   0.00000  Uiso   1.00
H675   H     0.09678   0.17247   0.37673   0.00000  Uiso   1.00
H676   H     0.12668   0.01560   0.41335   0.00000  Uiso   1.00
N677   N     0.00000   0.25000   0.61736   0.00000  Uiso   1.00
N678   N     0.00000   0.25000   0.38264   0.00000  Uiso   1.00
N679   N     0.25000   0.00000   0.61736   0.00000  Uiso   1.00
N680   N     0.25000   0.00000   0.38264   0.00000  Uiso   1.00
O681   O     0.04509   0.20491   0.53958   0.00000  Uiso   1.00
O682   O     0.20492   0.04509   0.46042   0.00000  Uiso   1.00
O683   O     0.20492   0.04509   0.53958   0.00000  Uiso   1.00
O684   O     0.29509   0.45491   0.46042   0.00000  Uiso   1.00
O685   O     0.20492   0.45491   0.46042   0.00000  Uiso   1.00
O686   O     0.29509   0.04509   0.53958   0.00000  Uiso   1.00
O687   O     0.29509   0.04509   0.46042   0.00000  Uiso   1.00
O688   O     0.20492   0.45491   0.53958   0.00000  Uiso   1.00
O689   O     0.40541   0.19998   0.38610   0.00000  Uiso   1.00
O690   O     0.32841   0.17640   0.38821   0.00000  Uiso   1.00
O691   O     0.35155   0.23826   0.44123   0.00000  Uiso   1.00
O692   O     0.45492   0.29509   0.46042   0.00000  Uiso   1.00
O693   O     0.14101   0.26356   0.54350   0.00000  Uiso   1.00
O694   O     0.18354   0.31172   0.59134   0.00000  Uiso   1.00
O695   O     0.10192   0.29564   0.61508   0.00000  Uiso   1.00
O696   O     0.08404   0.36943   0.36587   0.00000  Uiso   1.00
O697   O     0.15861   0.34758   0.38522   0.00000  Uiso   1.00
O698   O     0.09607   0.29223   0.39353   0.00000  Uiso   1.00
O699   O     0.32288   0.19291   0.57527   0.00000  Uiso   1.00
O700   O     0.35154   0.14166   0.62947   0.00000  Uiso   1.00
O701   O     0.39962   0.20796   0.60900   0.00000  Uiso   1.00
O702   O     0.08806   0.12792   0.63229   0.00000  Uiso   1.00
O703   O     0.45492   0.29509   0.53958   0.00000  Uiso   1.00
O704   O     0.16155   0.14874   0.60487   0.00000  Uiso   1.00
O705   O     0.10103   0.20577   0.60369   0.00000  Uiso   1.00
O706   O     0.49743   0.41116   0.43747   0.00000  Uiso   1.00
O707   O     0.46808   0.45247   0.50151   0.00000  Uiso   1.00
O708   O     0.00377   0.37984   0.51997   0.00000  Uiso   1.00
O709   O     0.38534   0.29261   0.60391   0.00000  Uiso   1.00
O710   O     0.30916   0.30915   0.58425   0.00000  Uiso   1.00
O711   O     0.35184   0.25975   0.52954   0.00000  Uiso   1.00
O712   O     0.14588   0.24480   0.44634   0.00000  Uiso   1.00
O713   O     0.18091   0.19422   0.39403   0.00000  Uiso   1.00
O714   O     0.04509   0.20491   0.46042   0.00000  Uiso   1.00
O715   O     0.09722   0.20159   0.38972   0.00000  Uiso   1.00
O716   O     0.15141   0.44002   0.37957   0.00000  Uiso   1.00
O717   O     0.07330   0.44587   0.40060   0.00000  Uiso   1.00
O718   O     0.12814   0.49575   0.44027   0.00000  Uiso   1.00
O719   O     0.40497   0.02392   0.55246   0.00000  Uiso   1.00
O720   O     0.42288   0.07885   0.60845   0.00000  Uiso   1.00
O721   O     0.34515   0.04344   0.61289   0.00000  Uiso   1.00
O722   O     0.39456   0.11363   0.36852   0.00000  Uiso   1.00
O723   O     0.42373   0.06175   0.42210   0.00000  Uiso   1.00
O724   O     0.34646   0.04719   0.38770   0.00000  Uiso   1.00
O725   O     0.45492   0.20491   0.46042   0.00000  Uiso   1.00
O726   O     0.08391   0.40612   0.60815   0.00000  Uiso   1.00
O727   O     0.15654   0.38313   0.63282   0.00000  Uiso   1.00
O728   O     0.14789   0.46028   0.60277   0.00000  Uiso   1.00
O729   O     0.33854   0.38010   0.63286   0.00000  Uiso   1.00
O730   O     0.41256   0.39860   0.60512   0.00000  Uiso   1.00
O731   O     0.35372   0.45713   0.60180   0.00000  Uiso   1.00
O732   O     0.24742   0.16274   0.43826   0.00000  Uiso   1.00
O733   O     0.21770   0.20097   0.50434   0.00000  Uiso   1.00
O734   O     0.25352   0.12786   0.51909   0.00000  Uiso   1.00
O735   O     0.13368   0.04520   0.60474   0.00000  Uiso   1.00
O736   O     0.04509   0.29509   0.53958   0.00000  Uiso   1.00
O737   O     0.05762   0.05951   0.58329   0.00000  Uiso   1.00
O738   O     0.10077   0.00681   0.53314   0.00000  Uiso   1.00
O739   O     0.38118   0.49468   0.45275   0.00000  Uiso   1.00
O740   O     0.43272   0.45628   0.40271   0.00000  Uiso   1.00
O741   O     0.34970   0.44744   0.38770   0.00000  Uiso   1.00
O742   O     0.04509   0.29509   0.46042   0.00000  Uiso   1.00
O743   O     0.45492   0.20491   0.53958   0.00000  Uiso   1.00
O744   O     0.29509   0.45491   0.53958   0.00000  Uiso   1.00
S745   S     0.36596   0.19191   0.41696   0.00000  Uiso   1.00
S746   S     0.38696   0.06114   0.57887   0.00000  Uiso   1.00
S747   S     0.38216   0.08356   0.40747   0.00000  Uiso   1.00
S748   S     0.13255   0.40908   0.59754   0.00000  Uiso   1.00
S749   S     0.36429   0.40492   0.59653   0.00000  Uiso   1.00
S750   S     0.22307   0.15750   0.48348   0.00000  Uiso   1.00
S751   S     0.10331   0.05116   0.56477   0.00000  Uiso   1.00
S752   S     0.38880   0.45400   0.42733   0.00000  Uiso   1.00
S753   S     0.13874   0.30344   0.57175   0.00000  Uiso   1.00
S754   S     0.11073   0.34364   0.39911   0.00000  Uiso   1.00
S755   S     0.36425   0.17103   0.59009   0.00000  Uiso   1.00
S756   S     0.11311   0.15406   0.59649   0.00000  Uiso   1.00
S757   S     0.47328   0.40806   0.48293   0.00000  Uiso   1.00
S758   S     0.35463   0.30136   0.56479   0.00000  Uiso   1.00
S759   S     0.14106   0.20195   0.42414   0.00000  Uiso   1.00
S760   S     0.11935   0.44688   0.41874   0.00000  Uiso   1.00
C761   C     0.56215   0.19325   0.50015   0.00000  Uiso   1.00
C762   C     0.99851   0.28741   0.64152   0.00000  Uiso   1.00
C763   C     0.99779   0.28727   0.35723   0.00000  Uiso   1.00
C764   C     0.50061   0.21239   0.64254   0.00000  Uiso   1.00
C765   C     0.75044   0.46236   0.35846   0.00000  Uiso   1.00
C766   C     0.74866   0.03746   0.64158   0.00000  Uiso   1.00
C767   C     0.74904   0.03738   0.35732   0.00000  Uiso   1.00
C768   C     0.75022   0.46243   0.64254   0.00000  Uiso   1.00
C769   C     0.87823   0.15286   0.46021   0.00000  Uiso   1.00
C770   C     0.62268   0.34678   0.53561   0.00000  Uiso   1.00
C771   C     0.60602   0.36517   0.45590   0.00000  Uiso   1.00
C772   C     0.94118   0.31007   0.50019   0.00000  Uiso   1.00
C773   C     0.88605   0.14203   0.54269   0.00000  Uiso   1.00
C774   C     0.60230   0.13466   0.53993   0.00000  Uiso   1.00
C775   C     0.91989   0.38463   0.47693   0.00000  Uiso   1.00
C776   C     0.87345   0.34610   0.53244   0.00000  Uiso   1.00
C777   C     0.63490   0.16272   0.46868   0.00000  Uiso   1.00
C778   C     0.62618   0.40555   0.46150   0.00000  Uiso   1.00
C779   C     0.86909   0.10057   0.53892   0.00000  Uiso   1.00
C780   C     0.86101   0.11136   0.45618   0.00000  Uiso   1.00
C781   C     0.64137   0.38724   0.54173   0.00000  Uiso   1.00
C782   C     0.85272   0.38466   0.54073   0.00000  Uiso   1.00
C783   C     0.93730   0.19359   0.50056   0.00000  Uiso   1.00
C784   C     0.66975   0.13410   0.47666   0.00000  Uiso   1.00
C785   C     0.62208   0.09552   0.53119   0.00000  Uiso   1.00
C786   C     0.88452   0.41284   0.46946   0.00000  Uiso   1.00
C787   C     0.59906   0.33841   0.49560   0.00000  Uiso   1.00
C788   C     0.89798   0.16472   0.50181   0.00000  Uiso   1.00
C789   C     0.91000   0.34603   0.50126   0.00000  Uiso   1.00
C790   C     0.59978   0.16332   0.50197   0.00000  Uiso   1.00
C791   C     0.85023   0.08781   0.49725   0.00000  Uiso   1.00
C792   C     0.64919   0.41376   0.50244   0.00000  Uiso   1.00
C793   C     0.65937   0.09552   0.50090   0.00000  Uiso   1.00
C794   C     0.56221   0.30693   0.49886   0.00000  Uiso   1.00
C795   C     0.84931   0.41265   0.50243   0.00000  Uiso   1.00
C796   C     0.81152   0.44249   0.50030   0.00000  Uiso   1.00
C797   C     0.69072   0.05968   0.50017   0.00000  Uiso   1.00
C798   C     0.68780   0.44314   0.50072   0.00000  Uiso   1.00
C799   C     0.81287   0.05641   0.49919   0.00000  Uiso   1.00
C800   C     0.50106   0.21235   0.35846   0.00000  Uiso   1.00
Cl801  Cl    0.50095   0.16237   0.38776   0.00000  Uiso   1.00
Cl802  Cl    0.99707   0.33713   0.61247   0.00000  Uiso   1.00
Cl803  Cl    0.99240   0.33623   0.38468   0.00000  Uiso   1.00
Cl804  Cl    0.99769   0.16283   0.61434   0.00000  Uiso   1.00
Cl805  Cl    0.75091   0.41244   0.38774   0.00000  Uiso   1.00
Cl806  Cl    0.74704   0.08726   0.61262   0.00000  Uiso   1.00
Cl807  Cl    0.74929   0.08665   0.38509   0.00000  Uiso   1.00
Cl808  Cl    0.74898   0.41307   0.61417   0.00000  Uiso   1.00
Cu809  Cu    0.50000   0.25000   0.54689   0.00000  Uiso   1.00
Cu810  Cu    0.50000   0.25000   0.45311   0.00000  Uiso   1.00
Cu811  Cu    0.75000   0.00000   0.54689   0.00000  Uiso   1.00
Cu812  Cu    0.75000   0.00000   0.45311   0.00000  Uiso   1.00
H813   H     0.84941   0.25896   0.41513   0.00000  Uiso   1.00
H814   H     0.83903   0.06675   0.63457   0.00000  Uiso   1.00
H815   H     0.86435   0.02910   0.36693   0.00000  Uiso   1.00
H816   H     0.63532   0.46890   0.63296   0.00000  Uiso   1.00
H817   H     0.86734   0.46516   0.63132   0.00000  Uiso   1.00
H818   H     0.78166   0.14387   0.52119   0.00000  Uiso   1.00
H819   H     0.63179   0.49949   0.52734   0.00000  Uiso   1.00
H820   H     0.85198   0.41706   0.37885   0.00000  Uiso   1.00
H821   H     0.59183   0.32447   0.62351   0.00000  Uiso   1.00
H822   H     0.61367   0.28199   0.36687   0.00000  Uiso   1.00
H823   H     0.91381   0.19413   0.63564   0.00000  Uiso   1.00
H824   H     0.61579   0.21376   0.63260   0.00000  Uiso   1.00
H825   H     0.52936   0.39860   0.52650   0.00000  Uiso   1.00
H826   H     0.88244   0.24996   0.52668   0.00000  Uiso   1.00
H827   H     0.59678   0.17247   0.37673   0.00000  Uiso   1.00
H828   H     0.62668   0.01560   0.41335   0.00000  Uiso   1.00
N829   N     0.50000   0.25000   0.61736   0.00000  Uiso   1.00
N830   N     0.50000   0.25000   0.38264   0.00000  Uiso   1.00
N831   N     0.75000   0.00000   0.61736   0.00000  Uiso   1.00
N832   N     0.75000   0.00000   0.38264   0.00000  Uiso   1.00
O833   O     0.54509   0.20491   0.53958   0.00000  Uiso   1.00
O834   O     0.70492   0.04509   0.46042   0.00000  Uiso   1.00
O835   O     0.70492   0.04509   0.53958   0.00000  Uiso   1.00
O836   O     0.79509   0.45491   0.46042   0.00000  Uiso   1.00
O837   O     0.70492   0.45491   0.46042   0.00000  Uiso   1.00
O838   O     0.79509   0.04509   0.53958   0.00000  Uiso   1.00
O839   O     0.79509   0.04509   0.46042   0.00000  Uiso   1.00
O840   O     0.70492   0.45491   0.53958   0.00000  Uiso   1.00
O841   O     0.90541   0.19998   0.38610   0.00000  Uiso   1.00
O842   O     0.82841   0.17640   0.38821   0.00000  Uiso   1.00
O843   O     0.85155   0.23826   0.44123   0.00000  Uiso   1.00
O844   O     0.95492   0.29509   0.46042   0.00000  Uiso   1.00
O845   O     0.64101   0.26356   0.54350   0.00000  Uiso   1.00
O846   O     0.68354   0.31172   0.59134   0.00000  Uiso   1.00
O847   O     0.60192   0.29564   0.61508   0.00000  Uiso   1.00
O848   O     0.58404   0.36943   0.36587   0.00000  Uiso   1.00
O849   O     0.65861   0.34758   0.38522   0.00000  Uiso   1.00
O850   O     0.59607   0.29223   0.39353   0.00000  Uiso   1.00
O851   O     0.82288   0.19291   0.57527   0.00000  Uiso   1.00
O852   O     0.85154   0.14166   0.62947   0.00000  Uiso   1.00
O853   O     0.89962   0.20796   0.60900   0.00000  Uiso   1.00
O854   O     0.58806   0.12792   0.63229   0.00000  Uiso   1.00
O855   O     0.95492   0.29509   0.53958   0.00000  Uiso   1.00
O856   O     0.66155   0.14874   0.60487   0.00000  Uiso   1.00
O857   O     0.60103   0.20577   0.60369   0.00000  Uiso   1.00
O858   O     0.99743   0.41116   0.43747   0.00000  Uiso   1.00
O859   O     0.96808   0.45247   0.50151   0.00000  Uiso   1.00
O860   O     0.50377   0.37984   0.51997   0.00000  Uiso   1.00
O861   O     0.88534   0.29261   0.60391   0.00000  Uiso   1.00
O862   O     0.80916   0.30915   0.58425   0.00000  Uiso   1.00
O863   O     0.85184   0.25975   0.52954   0.00000  Uiso   1.00
O864   O     0.64588   0.24480   0.44634   0.00000  Uiso   1.00
O865   O     0.68091   0.19422   0.39403   0.00000  Uiso   1.00
O866   O     0.54509   0.20491   0.46042   0.00000  Uiso   1.00
O867   O     0.59722   0.20159   0.38972   0.00000  Uiso   1.00
O868   O     0.65141   0.44002   0.37957   0.00000  Uiso   1.00
O869   O     0.57330   0.44587   0.40060   0.00000  Uiso   1.00
O870   O     0.62814   0.49575   0.44027   0.00000  Uiso   1.00
O871   O     0.90497   0.02392   0.55246   0.00000  Uiso   1.00
O872   O     0.92288   0.07885   0.60845   0.00000  Uiso   1.00
O873   O     0.84515   0.04344   0.61289   0.00000  Uiso   1.00
O874   O     0.89456   0.11363   0.36852   0.00000  Uiso   1.00
O875   O     0.92373   0.06175   0.42210   0.00000  Uiso   1.00
O876   O     0.84646   0.04719   0.38770   0.00000  Uiso   1.00
O877   O     0.95492   0.20491   0.46042   0.00000  Uiso   1.00
O878   O     0.58391   0.40612   0.60815   0.00000  Uiso   1.00
O879   O     0.65654   0.38313   0.63282   0.00000  Uiso   1.00
O880   O     0.64789   0.46028   0.60277   0.00000  Uiso   1.00
O881   O     0.83854   0.38010   0.63286   0.00000  Uiso   1.00
O882   O     0.91256   0.39860   0.60512   0.00000  Uiso   1.00
O883   O     0.85372   0.45713   0.60180   0.00000  Uiso   1.00
O884   O     0.74742   0.16274   0.43826   0.00000  Uiso   1.00
O885   O     0.71770   0.20097   0.50434   0.00000  Uiso   1.00
O886   O     0.75352   0.12786   0.51909   0.00000  Uiso   1.00
O887   O     0.63368   0.04520   0.60474   0.00000  Uiso   1.00
O888   O     0.54509   0.29509   0.53958   0.00000  Uiso   1.00
O889   O     0.55762   0.05951   0.58329   0.00000  Uiso   1.00
O890   O     0.60077   0.00681   0.53314   0.00000  Uiso   1.00
O891   O     0.88118   0.49468   0.45275   0.00000  Uiso   1.00
O892   O     0.93272   0.45628   0.40271   0.00000  Uiso   1.00
O893   O     0.84970   0.44744   0.38770   0.00000  Uiso   1.00
O894   O     0.54509   0.29509   0.46042   0.00000  Uiso   1.00
O895   O     0.95492   0.20491   0.53958   0.00000  Uiso   1.00
O896   O     0.79509   0.45491   0.53958   0.00000  Uiso   1.00
S897   S     0.86596   0.19191   0.41696   0.00000  Uiso   1.00
S898   S     0.88696   0.06114   0.57887   0.00000  Uiso   1.00
S899   S     0.88216   0.08356   0.40747   0.00000  Uiso   1.00
S900   S     0.63255   0.40908   0.59754   0.00000  Uiso   1.00
S901   S     0.86429   0.40492   0.59653   0.00000  Uiso   1.00
S902   S     0.72307   0.15750   0.48348   0.00000  Uiso   1.00
S903   S     0.60331   0.05116   0.56477   0.00000  Uiso   1.00
S904   S     0.88880   0.45400   0.42733   0.00000  Uiso   1.00
S905   S     0.63874   0.30344   0.57175   0.00000  Uiso   1.00
S906   S     0.61073   0.34364   0.39911   0.00000  Uiso   1.00
S907   S     0.86425   0.17103   0.59009   0.00000  Uiso   1.00
S908   S     0.61311   0.15406   0.59649   0.00000  Uiso   1.00
S909   S     0.97328   0.40806   0.48293   0.00000  Uiso   1.00
S910   S     0.85463   0.30136   0.56479   0.00000  Uiso   1.00
S911   S     0.64106   0.20195   0.42414   0.00000  Uiso   1.00
S912   S     0.61935   0.44688   0.41874   0.00000  Uiso   1.00
C913   C     0.06215   0.69325   0.50015   0.00000  Uiso   1.00
C914   C     0.49851   0.78741   0.64152   0.00000  Uiso   1.00
C915   C     0.49779   0.78727   0.35723   0.00000  Uiso   1.00
C916   C     0.00061   0.71239   0.64254   0.00000  Uiso   1.00
C917   C     0.25044   0.96236   0.35846   0.00000  Uiso   1.00
C918   C     0.24866   0.53746   0.64158   0.00000  Uiso   1.00
C919   C     0.24904   0.53738   0.35732   0.00000  Uiso   1.00
C920   C     0.25022   0.96243   0.64254   0.00000  Uiso   1.00
C921   C     0.37823   0.65286   0.46021   0.00000  Uiso   1.00
C922   C     0.12268   0.84678   0.53561   0.00000  Uiso   1.00
C923   C     0.10602   0.86517   0.45590   0.00000  Uiso   1.00
C924   C     0.44118   0.81007   0.50019   0.00000  Uiso   1.00
C925   C     0.38605   0.64203   0.54269   0.00000  Uiso   1.00
C926   C     0.10230   0.63466   0.53993   0.00000  Uiso   1.00
C927   C     0.41989   0.88463   0.47693   0.00000  Uiso   1.00
C928   C     0.37345   0.84610   0.53244   0.00000  Uiso   1.00
C929   C     0.13490   0.66272   0.46868   0.00000  Uiso   1.00
C930   C     0.12618   0.90555   0.46150   0.00000  Uiso   1.00
C931   C     0.36909   0.60057   0.53892   0.00000  Uiso   1.00
C932   C     0.36101   0.61136   0.45618   0.00000  Uiso   1.00
C933   C     0.14137   0.88724   0.54173   0.00000  Uiso   1.00
C934   C     0.35272   0.88466   0.54073   0.00000  Uiso   1.00
C935   C     0.43730   0.69359   0.50056   0.00000  Uiso   1.00
C936   C     0.16975   0.63410   0.47666   0.00000  Uiso   1.00
C937   C     0.12208   0.59552   0.53119   0.00000  Uiso   1.00
C938   C     0.38452   0.91284   0.46946   0.00000  Uiso   1.00
C939   C     0.09906   0.83841   0.49560   0.00000  Uiso   1.00
C940   C     0.39798   0.66472   0.50181   0.00000  Uiso   1.00
C941   C     0.41000   0.84603   0.50126   0.00000  Uiso   1.00
C942   C     0.09978   0.66332   0.50197   0.00000  Uiso   1.00
C943   C     0.35023   0.58781   0.49725   0.00000  Uiso   1.00
C944   C     0.14919   0.91376   0.50244   0.00000  Uiso   1.00
C945   C     0.15937   0.59552   0.50090   0.00000  Uiso   1.00
C946   C     0.06221   0.80693   0.49886   0.00000  Uiso   1.00
C947   C     0.34931   0.91265   0.50243   0.00000  Uiso   1.00
C948   C     0.31152   0.94249   0.50030   0.00000  Uiso   1.00
C949   C     0.19072   0.55968   0.50017   0.00000  Uiso   1.00
C950   C     0.18780   0.94314   0.50072   0.00000  Uiso   1.00
C951   C     0.31287   0.55641   0.49919   0.00000  Uiso   1.00
C952   C     0.00106   0.71235   0.35846   0.00000  Uiso   1.00
Cl953  Cl    0.00095   0.66237   0.38776   0.00000  Uiso   1.00
Cl954  Cl    0.49707   0.83713   0.61247   0.00000  Uiso   1.00
Cl955  Cl    0.49240   0.83623   0.38468   0.00000  Uiso   1.00
Cl956  Cl    0.49769   0.66283   0.61434   0.00000  Uiso   1.00
Cl957  Cl    0.25091   0.91244   0.38774   0.00000  Uiso   1.00
Cl958  Cl    0.24704   0.58726   0.61262   0.00000  Uiso   1.00
Cl959  Cl    0.24929   0.58665   0.38509   0.00000  Uiso   1.00
Cl960  Cl    0.24898   0.91307   0.61417   0.00000  Uiso   1.00
Cu961  Cu    0.00000   0.75000   0.54689   0.00000  Uiso   1.00
Cu962  Cu    0.00000   0.75000   0.45311   0.00000  Uiso   1.00
Cu963  Cu    0.25000   0.50000   0.54689   0.00000  Uiso   1.00
Cu964  Cu    0.25000   0.50000   0.45311   0.00000  Uiso   1.00
H965   H     0.34941   0.75896   0.41513   0.00000  Uiso   1.00
H966   H     0.33903   0.56675   0.63457   0.00000  Uiso   1.00
H967   H     0.36435   0.52910   0.36693   0.00000  Uiso   1.00
H968   H     0.13532   0.96890   0.63296   0.00000  Uiso   1.00
H969   H     0.36734   0.96516   0.63132   0.00000  Uiso   1.00
H970   H     0.28166   0.64387   0.52119   0.00000  Uiso   1.00
H971   H     0.13179   0.99949   0.52734   0.00000  Uiso   1.00
H972   H     0.35198   0.91706   0.37885   0.00000  Uiso   1.00
H973   H     0.09183   0.82447   0.62351   0.00000  Uiso   1.00
H974   H     0.11367   0.78199   0.36687   0.00000  Uiso   1.00
H975   H     0.41381   0.69413   0.63564   0.00000  Uiso   1.00
H976   H     0.11579   0.71376   0.63260   0.00000  Uiso   1.00
H977   H     0.02936   0.89860   0.52650   0.00000  Uiso   1.00
H978   H     0.38244   0.74996   0.52668   0.00000  Uiso   1.00
H979   H     0.09678   0.67247   0.37673   0.00000  Uiso   1.00
H980   H     0.12668   0.51560   0.41335   0.00000  Uiso   1.00
N981   N     0.00000   0.75000   0.61736   0.00000  Uiso   1.00
N982   N     0.00000   0.75000   0.38264   0.00000  Uiso   1.00
N983   N     0.25000   0.50000   0.61736   0.00000  Uiso   1.00
N984   N     0.25000   0.50000   0.38264   0.00000  Uiso   1.00
O985   O     0.04509   0.70491   0.53958   0.00000  Uiso   1.00
O986   O     0.20492   0.54509   0.46042   0.00000  Uiso   1.00
O987   O     0.20492   0.54509   0.53958   0.00000  Uiso   1.00
O988   O     0.29509   0.95491   0.46042   0.00000  Uiso   1.00
O989   O     0.20492   0.95491   0.46042   0.00000  Uiso   1.00
O990   O     0.29509   0.54509   0.53958   0.00000  Uiso   1.00
O991   O     0.29509   0.54509   0.46042   0.00000  Uiso   1.00
O992   O     0.20492   0.95491   0.53958   0.00000  Uiso   1.00
O993   O     0.40541   0.69998   0.38610   0.00000  Uiso   1.00
O994   O     0.32841   0.67640   0.38821   0.00000  Uiso   1.00
O995   O     0.35155   0.73826   0.44123   0.00000  Uiso   1.00
O996   O     0.45492   0.79509   0.46042   0.00000  Uiso   1.00
O997   O     0.14101   0.76356   0.54350   0.00000  Uiso   1.00
O998   O     0.18354   0.81172   0.59134   0.00000  Uiso   1.00
O999   O     0.10192   0.79564   0.61508   0.00000  Uiso   1.00
O1000  O     0.08404   0.86943   0.36587   0.00000  Uiso   1.00
O1001  O     0.15861   0.84758   0.38522   0.00000  Uiso   1.00
O1002  O     0.09607   0.79223   0.39353   0.00000  Uiso   1.00
O1003  O     0.32288   0.69291   0.57527   0.00000  Uiso   1.00
O1004  O     0.35154   0.64166   0.62947   0.00000  Uiso   1.00
O1005  O     0.39962   0.70796   0.60900   0.00000  Uiso   1.00
O1006  O     0.08806   0.62792   0.63229   0.00000  Uiso   1.00
O1007  O     0.45492   0.79509   0.53958   0.00000  Uiso   1.00
O1008  O     0.16155   0.64874   0.60487   0.00000  Uiso   1.00
O1009  O     0.10103   0.70577   0.60369   0.00000  Uiso   1.00
O1010  O     0.49743   0.91116   0.43747   0.00000  Uiso   1.00
O1011  O     0.46808   0.95247   0.50151   0.00000  Uiso   1.00
O1012  O     0.00377   0.87984   0.51997   0.00000  Uiso   1.00
O1013  O     0.38534   0.79261   0.60391   0.00000  Uiso   1.00
O1014  O     0.30916   0.80915   0.58425   0.00000  Uiso   1.00
O1015  O     0.35184   0.75975   0.52954   0.00000  Uiso   1.00
O1016  O     0.14588   0.74480   0.44634   0.00000  Uiso   1.00
O1017  O     0.18091   0.69422   0.39403   0.00000  Uiso   1.00
O1018  O     0.04509   0.70491   0.46042   0.00000  Uiso   1.00
O1019  O     0.09722   0.70159   0.38972   0.00000  Uiso   1.00
O1020  O     0.15141   0.94002   0.37957   0.00000  Uiso   1.00
O1021  O     0.07330   0.94587   0.40060   0.00000  Uiso   1.00
O1022  O     0.12814   0.99575   0.44027   0.00000  Uiso   1.00
O1023  O     0.40497   0.52392   0.55246   0.00000  Uiso   1.00
O1024  O     0.42288   0.57885   0.60845   0.00000  Uiso   1.00
O1025  O     0.34515   0.54344   0.61289   0.00000  Uiso   1.00
O1026  O     0.39456   0.61363   0.36852   0.00000  Uiso   1.00
O1027  O     0.42373   0.56175   0.42210   0.00000  Uiso   1.00
O1028  O     0.34646   0.54719   0.38770   0.00000  Uiso   1.00
O1029  O     0.45492   0.70491   0.46042   0.00000  Uiso   1.00
O1030  O     0.08391   0.90612   0.60815   0.00000  Uiso   1.00
O1031  O     0.15654   0.88313   0.63282   0.00000  Uiso   1.00
O1032  O     0.14789   0.96028   0.60277   0.00000  Uiso   1.00
O1033  O     0.33854   0.88010   0.63286   0.00000  Uiso   1.00
O1034  O     0.41256   0.89860   0.60512   0.00000  Uiso   1.00
O1035  O     0.35372   0.95713   0.60180   0.00000  Uiso   1.00
O1036  O     0.24742   0.66274   0.43826   0.00000  Uiso   1.00
O1037  O     0.21770   0.70097   0.50434   0.00000  Uiso   1.00
O1038  O     0.25352   0.62786   0.51909   0.00000  Uiso   1.00
O1039  O     0.13368   0.54520   0.60474   0.00000  Uiso   1.00
O1040  O     0.04509   0.79509   0.53958   0.00000  Uiso   1.00
O1041  O     0.05762   0.55951   0.58329   0.00000  Uiso   1.00
O1042  O     0.10077   0.50681   0.53314   0.00000  Uiso   1.00
O1043  O     0.38118   0.99468   0.45275   0.00000  Uiso   1.00
O1044  O     0.43272   0.95628   0.40271   0.00000  Uiso   1.00
O1045  O     0.34970   0.94744   0.38770   0.00000  Uiso   1.00
O1046  O     0.04509   0.79509   0.46042   0.00000  Uiso   1.00
O1047  O     0.45492   0.70491   0.53958   0.00000  Uiso   1.00
O1048  O     0.29509   0.95491   0.53958   0.00000  Uiso   1.00
S1049  S     0.36596   0.69191   0.41696   0.00000  Uiso   1.00
S1050  S     0.38696   0.56114   0.57887   0.00000  Uiso   1.00
S1051  S     0.38216   0.58356   0.40747   0.00000  Uiso   1.00
S1052  S     0.13255   0.90908   0.59754   0.00000  Uiso   1.00
S1053  S     0.36429   0.90492   0.59653   0.00000  Uiso   1.00
S1054  S     0.22307   0.65750   0.48348   0.00000  Uiso   1.00
S1055  S     0.10331   0.55116   0.56477   0.00000  Uiso   1.00
S1056  S     0.38880   0.95400   0.42733   0.00000  Uiso   1.00
S1057  S     0.13874   0.80344   0.57175   0.00000  Uiso   1.00
S1058  S     0.11073   0.84364   0.39911   0.00000  Uiso   1.00
S1059  S     0.36425   0.67103   0.59009   0.00000  Uiso   1.00
S1060  S     0.11311   0.65406   0.59649   0.00000  Uiso   1.00
S1061  S     0.47328   0.90806   0.48293   0.00000  Uiso   1.00
S1062  S     0.35463   0.80136   0.56479   0.00000  Uiso   1.00
S1063  S     0.14106   0.70195   0.42414   0.00000  Uiso   1.00
S1064  S     0.11935   0.94688   0.41874   0.00000  Uiso   1.00
C1065  C     0.56215   0.69325   0.50015   0.00000  Uiso   1.00
C1066  C     0.99851   0.78741   0.64152   0.00000  Uiso   1.00
C1067  C     0.99779   0.78727   0.35723   0.00000  Uiso   1.00
C1068  C     0.50061   0.71239   0.64254   0.00000  Uiso   1.00
C1069  C     0.75044   0.96236   0.35846   0.00000  Uiso   1.00
C1070  C     0.74866   0.53746   0.64158   0.00000  Uiso   1.00
C1071  C     0.74904   0.53738   0.35732   0.00000  Uiso   1.00
C1072  C     0.75022   0.96243   0.64254   0.00000  Uiso   1.00
C1073  C     0.87823   0.65286   0.46021   0.00000  Uiso   1.00
C1074  C     0.62268   0.84678   0.53561   0.00000  Uiso   1.00
C1075  C     0.60602   0.86517   0.45590   0.00000  Uiso   1.00
C1076  C     0.94118   0.81007   0.50019   0.00000  Uiso   1.00
C1077  C     0.88605   0.64203   0.54269   0.00000  Uiso   1.00
C1078  C     0.60230   0.63466   0.53993   0.00000  Uiso   1.00
C1079  C     0.91989   0.88463   0.47693   0.00000  Uiso   1.00
C1080  C     0.87345   0.84610   0.53244   0.00000  Uiso   1.00
C1081  C     0.63490   0.66272   0.46868   0.00000  Uiso   1.00
C1082  C     0.62618   0.90555   0.46150   0.00000  Uiso   1.00
C1083  C     0.86909   0.60057   0.53892   0.00000  Uiso   1.00
C1084  C     0.86101   0.61136   0.45618   0.00000  Uiso   1.00
C1085  C     0.64137   0.88724   0.54173   0.00000  Uiso   1.00
C1086  C     0.85272   0.88466   0.54073   0.00000  Uiso   1.00
C1087  C     0.93730   0.69359   0.50056   0.00000  Uiso   1.00
C1088  C     0.66975   0.63410   0.47666   0.00000  Uiso   1.00
C1089  C     0.62208   0.59552   0.53119   0.00000  Uiso   1.00
C1090  C     0.88452   0.91284   0.46946   0.00000  Uiso   1.00
C1091  C     0.59906   0.83841   0.49560   0.00000  Uiso   1.00
C1092  C     0.89798   0.66472   0.50181   0.00000  Uiso   1.00
C1093  C     0.91000   0.84603   0.50126   0.00000  Uiso   1.00
C1094  C     0.59978   0.66332   0.50197   0.00000  Uiso   1.00
C1095  C     0.85023   0.58781   0.49725   0.00000  Uiso   1.00
C1096  C     0.64919   0.91376   0.50244   0.00000  Uiso   1.00
C1097  C     0.65937   0.59552   0.50090   0.00000  Uiso   1.00
C1098  C     0.56221   0.80693   0.49886   0.00000  Uiso   1.00
C1099  C     0.84931   0.91265   0.50243   0.00000  Uiso   1.00
C1100  C     0.81152   0.94249   0.50030   0.00000  Uiso   1.00
C1101  C     0.69072   0.55968   0.50017   0.00000  Uiso   1.00
C1102  C     0.68780   0.94314   0.50072   0.00000  Uiso   1.00
C1103  C     0.81287   0.55641   0.49919   0.00000  Uiso   1.00
C1104  C     0.50106   0.71235   0.35846   0.00000  Uiso   1.00
Cl1105 Cl    0.50095   0.66237   0.38776   0.00000  Uiso   1.00
Cl1106 Cl    0.99707   0.83713   0.61247   0.00000  Uiso   1.00
Cl1107 Cl    0.99240   0.83623   0.38468   0.00000  Uiso   1.00
Cl1108 Cl    0.99769   0.66283   0.61434   0.00000  Uiso   1.00
Cl1109 Cl    0.75091   0.91244   0.38774   0.00000  Uiso   1.00
Cl1110 Cl    0.74704   0.58726   0.61262   0.00000  Uiso   1.00
Cl1111 Cl    0.74929   0.58665   0.38509   0.00000  Uiso   1.00
Cl1112 Cl    0.74898   0.91307   0.61417   0.00000  Uiso   1.00
Cu1113 Cu    0.50000   0.75000   0.54689   0.00000  Uiso   1.00
Cu1114 Cu    0.50000   0.75000   0.45311   0.00000  Uiso   1.00
Cu1115 Cu    0.75000   0.50000   0.54689   0.00000  Uiso   1.00
Cu1116 Cu    0.75000   0.50000   0.45311   0.00000  Uiso   1.00
H1117  H     0.84941   0.75896   0.41513   0.00000  Uiso   1.00
H1118  H     0.83903   0.56675   0.63457   0.00000  Uiso   1.00
H1119  H     0.86435   0.52910   0.36693   0.00000  Uiso   1.00
H1120  H     0.63532   0.96890   0.63296   0.00000  Uiso   1.00
H1121  H     0.86734   0.96516   0.63132   0.00000  Uiso   1.00
H1122  H     0.78166   0.64387   0.52119   0.00000  Uiso   1.00
H1123  H     0.63179   0.99949   0.52734   0.00000  Uiso   1.00
H1124  H     0.85198   0.91706   0.37885   0.00000  Uiso   1.00
H1125  H     0.59183   0.82447   0.62351   0.00000  Uiso   1.00
H1126  H     0.61367   0.78199   0.36687   0.00000  Uiso   1.00
H1127  H     0.91381   0.69413   0.63564   0.00000  Uiso   1.00
H1128  H     0.61579   0.71376   0.63260   0.00000  Uiso   1.00
H1129  H     0.52936   0.89860   0.52650   0.00000  Uiso   1.00
H1130  H     0.88244   0.74996   0.52668   0.00000  Uiso   1.00
H1131  H     0.59678   0.67247   0.37673   0.00000  Uiso   1.00
H1132  H     0.62668   0.51560   0.41335   0.00000  Uiso   1.00
N1133  N     0.50000   0.75000   0.61736   0.00000  Uiso   1.00
N1134  N     0.50000   0.75000   0.38264   0.00000  Uiso   1.00
N1135  N     0.75000   0.50000   0.61736   0.00000  Uiso   1.00
N1136  N     0.75000   0.50000   0.38264   0.00000  Uiso   1.00
O1137  O     0.54509   0.70491   0.53958   0.00000  Uiso   1.00
O1138  O     0.70492   0.54509   0.46042   0.00000  Uiso   1.00
O1139  O     0.70492   0.54509   0.53958   0.00000  Uiso   1.00
O1140  O     0.79509   0.95491   0.46042   0.00000  Uiso   1.00
O1141  O     0.70492   0.95491   0.46042   0.00000  Uiso   1.00
O1142  O     0.79509   0.54509   0.53958   0.00000  Uiso   1.00
O1143  O     0.79509   0.54509   0.46042   0.00000  Uiso   1.00
O1144  O     0.70492   0.95491   0.53958   0.00000  Uiso   1.00
O1145  O     0.90541   0.69998   0.38610   0.00000  Uiso   1.00
O1146  O     0.82841   0.67640   0.38821   0.00000  Uiso   1.00
O1147  O     0.85155   0.73826   0.44123   0.00000  Uiso   1.00
O1148  O     0.95492   0.79509   0.46042   0.00000  Uiso   1.00
O1149  O     0.64101   0.76356   0.54350   0.00000  Uiso   1.00
O1150  O     0.68354   0.81172   0.59134   0.00000  Uiso   1.00
O1151  O     0.60192   0.79564   0.61508   0.00000  Uiso   1.00
O1152  O     0.58404   0.86943   0.36587   0.00000  Uiso   1.00
O1153  O     0.65861   0.84758   0.38522   0.00000  Uiso   1.00
O1154  O     0.59607   0.79223   0.39353   0.00000  Uiso   1.00
O1155  O     0.82288   0.69291   0.57527   0.00000  Uiso   1.00
O1156  O     0.85154   0.64166   0.62947   0.00000  Uiso   1.00
O1157  O     0.89962   0.70796   0.60900   0.00000  Uiso   1.00
O1158  O     0.58806   0.62792   0.63229   0.00000  Uiso   1.00
O1159  O     0.95492   0.79509   0.53958   0.00000  Uiso   1.00
O1160  O     0.66155   0.64874   0.60487   0.00000  Uiso   1.00
O1161  O     0.60103   0.70577   0.60369   0.00000  Uiso   1.00
O1162  O     0.99743   0.91116   0.43747   0.00000  Uiso   1.00
O1163  O     0.96808   0.95247   0.50151   0.00000  Uiso   1.00
O1164  O     0.50377   0.87984   0.51997   0.00000  Uiso   1.00
O1165  O     0.88534   0.79261   0.60391   0.00000  Uiso   1.00
O1166  O     0.80916   0.80915   0.58425   0.00000  Uiso   1.00
O1167  O     0.85184   0.75975   0.52954   0.00000  Uiso   1.00
O1168  O     0.64588   0.74480   0.44634   0.00000  Uiso   1.00
O1169  O     0.68091   0.69422   0.39403   0.00000  Uiso   1.00
O1170  O     0.54509   0.70491   0.46042   0.00000  Uiso   1.00
O1171  O     0.59722   0.70159   0.38972   0.00000  Uiso   1.00
O1172  O     0.65141   0.94002   0.37957   0.00000  Uiso   1.00
O1173  O     0.57330   0.94587   0.40060   0.00000  Uiso   1.00
O1174  O     0.62814   0.99575   0.44027   0.00000  Uiso   1.00
O1175  O     0.90497   0.52392   0.55246   0.00000  Uiso   1.00
O1176  O     0.92288   0.57885   0.60845   0.00000  Uiso   1.00
O1177  O     0.84515   0.54344   0.61289   0.00000  Uiso   1.00
O1178  O     0.89456   0.61363   0.36852   0.00000  Uiso   1.00
O1179  O     0.92373   0.56175   0.42210   0.00000  Uiso   1.00
O1180  O     0.84646   0.54719   0.38770   0.00000  Uiso   1.00
O1181  O     0.95492   0.70491   0.46042   0.00000  Uiso   1.00
O1182  O     0.58391   0.90612   0.60815   0.00000  Uiso   1.00
O1183  O     0.65654   0.88313   0.63282   0.00000  Uiso   1.00
O1184  O     0.64789   0.96028   0.60277   0.00000  Uiso   1.00
O1185  O     0.83854   0.88010   0.63286   0.00000  Uiso   1.00
O1186  O     0.91256   0.89860   0.60512   0.00000  Uiso   1.00
O1187  O     0.85372   0.95713   0.60180   0.00000  Uiso   1.00
O1188  O     0.74742   0.66274   0.43826   0.00000  Uiso   1.00
O1189  O     0.71770   0.70097   0.50434   0.00000  Uiso   1.00
O1190  O     0.75352   0.62786   0.51909   0.00000  Uiso   1.00
O1191  O     0.63368   0.54520   0.60474   0.00000  Uiso   1.00
O1192  O     0.54509   0.79509   0.53958   0.00000  Uiso   1.00
O1193  O     0.55762   0.55951   0.58329   0.00000  Uiso   1.00
O1194  O     0.60077   0.50681   0.53314   0.00000  Uiso   1.00
O1195  O     0.88118   0.99468   0.45275   0.00000  Uiso   1.00
O1196  O     0.93272   0.95628   0.40271   0.00000  Uiso   1.00
O1197  O     0.84970   0.94744   0.38770   0.00000  Uiso   1.00
O1198  O     0.54509   0.79509   0.46042   0.00000  Uiso   1.00
O1199  O     0.95492   0.70491   0.53958   0.00000  Uiso   1.00
O1200  O     0.79509   0.95491   0.53958   0.00000  Uiso   1.00
S1201  S     0.86596   0.69191   0.41696   0.00000  Uiso   1.00
S1202  S     0.88696   0.56114   0.57887   0.00000  Uiso   1.00
S1203  S     0.88216   0.58356   0.40747   0.00000  Uiso   1.00
S1204  S     0.63255   0.90908   0.59754   0.00000  Uiso   1.00
S1205  S     0.86429   0.90492   0.59653   0.00000  Uiso   1.00
S1206  S     0.72307   0.65750   0.48348   0.00000  Uiso   1.00
S1207  S     0.60331   0.55116   0.56477   0.00000  Uiso   1.00
S1208  S     0.88880   0.95400   0.42733   0.00000  Uiso   1.00
S1209  S     0.63874   0.80344   0.57175   0.00000  Uiso   1.00
S1210  S     0.61073   0.84364   0.39911   0.00000  Uiso   1.00
S1211  S     0.86425   0.67103   0.59009   0.00000  Uiso   1.00
S1212  S     0.61311   0.65406   0.59649   0.00000  Uiso   1.00
S1213  S     0.97328   0.90806   0.48293   0.00000  Uiso   1.00
S1214  S     0.85463   0.80136   0.56479   0.00000  Uiso   1.00
S1215  S     0.64106   0.70195   0.42414   0.00000  Uiso   1.00
S1216  S     0.61935   0.94688   0.41874   0.00000  Uiso   1.00
C1217  C     0.06215   0.19325   0.83348   0.00000  Uiso   1.00
C1218  C     0.49851   0.28741   0.97486   0.00000  Uiso   1.00
C1219  C     0.49779   0.28727   0.69056   0.00000  Uiso   1.00
C1220  C     0.00061   0.21239   0.97587   0.00000  Uiso   1.00
C1221  C     0.25044   0.46236   0.69179   0.00000  Uiso   1.00
C1222  C     0.24866   0.03746   0.97492   0.00000  Uiso   1.00
C1223  C     0.24904   0.03738   0.69066   0.00000  Uiso   1.00
C1224  C     0.25022   0.46243   0.97587   0.00000  Uiso   1.00
C1225  C     0.37823   0.15286   0.79354   0.00000  Uiso   1.00
C1226  C     0.12268   0.34678   0.86895   0.00000  Uiso   1.00
C1227  C     0.10602   0.36517   0.78923   0.00000  Uiso   1.00
C1228  C     0.44118   0.31007   0.83352   0.00000  Uiso   1.00
C1229  C     0.38605   0.14203   0.87603   0.00000  Uiso   1.00
C1230  C     0.10230   0.13466   0.87326   0.00000  Uiso   1.00
C1231  C     0.41989   0.38463   0.81026   0.00000  Uiso   1.00
C1232  C     0.37345   0.34610   0.86578   0.00000  Uiso   1.00
C1233  C     0.13490   0.16272   0.80202   0.00000  Uiso   1.00
C1234  C     0.12618   0.40555   0.79483   0.00000  Uiso   1.00
C1235  C     0.36909   0.10057   0.87226   0.00000  Uiso   1.00
C1236  C     0.36101   0.11136   0.78951   0.00000  Uiso   1.00
C1237  C     0.14137   0.38724   0.87507   0.00000  Uiso   1.00
C1238  C     0.35272   0.38466   0.87407   0.00000  Uiso   1.00
C1239  C     0.43730   0.19359   0.83390   0.00000  Uiso   1.00
C1240  C     0.16975   0.13410   0.80999   0.00000  Uiso   1.00
C1241  C     0.12208   0.09552   0.86453   0.00000  Uiso   1.00
C1242  C     0.38452   0.41284   0.80280   0.00000  Uiso   1.00
C1243  C     0.09906   0.33841   0.82894   0.00000  Uiso   1.00
C1244  C     0.39798   0.16472   0.83514   0.00000  Uiso   1.00
C1245  C     0.41000   0.34603   0.83460   0.00000  Uiso   1.00
C1246  C     0.09978   0.16332   0.83530   0.00000  Uiso   1.00
C1247  C     0.35023   0.08781   0.83059   0.00000  Uiso   1.00
C1248  C     0.14919   0.41376   0.83577   0.00000  Uiso   1.00
C1249  C     0.15937   0.09552   0.83424   0.00000  Uiso   1.00
C1250  C     0.06221   0.30693   0.83220   0.00000  Uiso   1.00
C1251  C     0.34931   0.41265   0.83577   0.00000  Uiso   1.00
C1252  C     0.31152   0.44249   0.83363   0.00000  Uiso   1.00
C1253  C     0.19072   0.05968   0.83351   0.00000  Uiso   1.00
C1254  C     0.18780   0.44314   0.83406   0.00000  Uiso   1.00
C1255  C     0.31287   0.05641   0.83252   0.00000  Uiso   1.00
C1256  C     0.00106   0.21235   0.69179   0.00000  Uiso   1.00
Cl1257 Cl    0.00095   0.16237   0.72109   0.00000  Uiso   1.00
Cl1258 Cl    0.49707   0.33713   0.94580   0.00000  Uiso   1.00
Cl1259 Cl    0.49240   0.33623   0.71802   0.00000  Uiso   1.00
Cl1260 Cl    0.49769   0.16283   0.94767   0.00000  Uiso   1.00
Cl1261 Cl    0.25091   0.41244   0.72107   0.00000  Uiso   1.00
Cl1262 Cl    0.24704   0.08726   0.94595   0.00000  Uiso   1.00
Cl1263 Cl    0.24929   0.08665   0.71842   0.00000  Uiso   1.00
Cl1264 Cl    0.24898   0.41307   0.94750   0.00000  Uiso   1.00
Cu1265 Cu    0.00000   0.25000   0.88022   0.00000  Uiso   1.00
Cu1266 Cu    0.00000   0.25000   0.78645   0.00000  Uiso   1.00
Cu1267 Cu    0.25000   0.00000   0.88022   0.00000  Uiso   1.00
Cu1268 Cu    0.25000   0.00000   0.78645   0.00000  Uiso   1.00
H1269  H     0.34941   0.25896   0.74847   0.00000  Uiso   1.00
H1270  H     0.33903   0.06675   0.96791   0.00000  Uiso   1.00
H1271  H     0.36435   0.02910   0.70026   0.00000  Uiso   1.00
H1272  H     0.13532   0.46890   0.96629   0.00000  Uiso   1.00
H1273  H     0.36734   0.46516   0.96465   0.00000  Uiso   1.00
H1274  H     0.28166   0.14387   0.85453   0.00000  Uiso   1.00
H1275  H     0.13179   0.49949   0.86067   0.00000  Uiso   1.00
H1276  H     0.35198   0.41706   0.71218   0.00000  Uiso   1.00
H1277  H     0.09183   0.32447   0.95685   0.00000  Uiso   1.00
H1278  H     0.11367   0.28199   0.70020   0.00000  Uiso   1.00
H1279  H     0.41381   0.19413   0.96897   0.00000  Uiso   1.00
H1280  H     0.11579   0.21376   0.96593   0.00000  Uiso   1.00
H1281  H     0.02936   0.39860   0.85983   0.00000  Uiso   1.00
H1282  H     0.38244   0.24996   0.86001   0.00000  Uiso   1.00
H1283  H     0.09678   0.17247   0.71006   0.00000  Uiso   1.00
H1284  H     0.12668   0.01560   0.74668   0.00000  Uiso   1.00
N1285  N     0.00000   0.25000   0.95069   0.00000  Uiso   1.00
N1286  N     0.00000   0.25000   0.71598   0.00000  Uiso   1.00
N1287  N     0.25000   0.00000   0.95069   0.00000  Uiso   1.00
N1288  N     0.25000   0.00000   0.71598   0.00000  Uiso   1.00
O1289  O     0.04509   0.20491   0.87291   0.00000  Uiso   1.00
O1290  O     0.20492   0.04509   0.79375   0.00000  Uiso   1.00
O1291  O     0.20492   0.04509   0.87291   0.00000  Uiso   1.00
O1292  O     0.29509   0.45491   0.79375   0.00000  Uiso   1.00
O1293  O     0.20492   0.45491   0.79375   0.00000  Uiso   1.00
O1294  O     0.29509   0.04509   0.87291   0.00000  Uiso   1.00
O1295  O     0.29509   0.04509   0.79375   0.00000  Uiso   1.00
O1296  O     0.20492   0.45491   0.87291   0.00000  Uiso   1.00
O1297  O     0.40541   0.19998   0.71944   0.00000  Uiso   1.00
O1298  O     0.32841   0.17640   0.72154   0.00000  Uiso   1.00
O1299  O     0.35155   0.23826   0.77456   0.00000  Uiso   1.00
O1300  O     0.45492   0.29509   0.79375   0.00000  Uiso   1.00
O1301  O     0.14101   0.26356   0.87684   0.00000  Uiso   1.00
O1302  O     0.18354   0.31172   0.92467   0.00000  Uiso   1.00
O1303  O     0.10192   0.29564   0.94841   0.00000  Uiso   1.00
O1304  O     0.08404   0.36943   0.69921   0.00000  Uiso   1.00
O1305  O     0.15861   0.34758   0.71855   0.00000  Uiso   1.00
O1306  O     0.09607   0.29223   0.72686   0.00000  Uiso   1.00
O1307  O     0.32288   0.19291   0.90860   0.00000  Uiso   1.00
O1308  O     0.35154   0.14166   0.96281   0.00000  Uiso   1.00
O1309  O     0.39962   0.20796   0.94233   0.00000  Uiso   1.00
O1310  O     0.08806   0.12792   0.96562   0.00000  Uiso   1.00
O1311  O     0.45492   0.29509   0.87291   0.00000  Uiso   1.00
O1312  O     0.16155   0.14874   0.93820   0.00000  Uiso   1.00
O1313  O     0.10103   0.20577   0.93703   0.00000  Uiso   1.00
O1314  O     0.49743   0.41116   0.77080   0.00000  Uiso   1.00
O1315  O     0.46808   0.45247   0.83484   0.00000  Uiso   1.00
O1316  O     0.00377   0.37984   0.85331   0.00000  Uiso   1.00
O1317  O     0.38534   0.29261   0.93725   0.00000  Uiso   1.00
O1318  O     0.30916   0.30915   0.91758   0.00000  Uiso   1.00
O1319  O     0.35184   0.25975   0.86287   0.00000  Uiso   1.00
O1320  O     0.14588   0.24480   0.77968   0.00000  Uiso   1.00
O1321  O     0.18091   0.19422   0.72737   0.00000  Uiso   1.00
O1322  O     0.04509   0.20491   0.79375   0.00000  Uiso   1.00
O1323  O     0.09722   0.20159   0.72305   0.00000  Uiso   1.00
O1324  O     0.15141   0.44002   0.71291   0.00000  Uiso   1.00
O1325  O     0.07330   0.44587   0.73393   0.00000  Uiso   1.00
O1326  O     0.12814   0.49575   0.77360   0.00000  Uiso   1.00
O1327  O     0.40497   0.02392   0.88579   0.00000  Uiso   1.00
O1328  O     0.42288   0.07885   0.94178   0.00000  Uiso   1.00
O1329  O     0.34515   0.04344   0.94623   0.00000  Uiso   1.00
O1330  O     0.39456   0.11363   0.70186   0.00000  Uiso   1.00
O1331  O     0.42373   0.06175   0.75543   0.00000  Uiso   1.00
O1332  O     0.34646   0.04719   0.72103   0.00000  Uiso   1.00
O1333  O     0.45492   0.20491   0.79375   0.00000  Uiso   1.00
O1334  O     0.08391   0.40612   0.94148   0.00000  Uiso   1.00
O1335  O     0.15654   0.38313   0.96615   0.00000  Uiso   1.00
O1336  O     0.14789   0.46028   0.93611   0.00000  Uiso   1.00
O1337  O     0.33854   0.38010   0.96620   0.00000  Uiso   1.00
O1338  O     0.41256   0.39860   0.93845   0.00000  Uiso   1.00
O1339  O     0.35372   0.45713   0.93514   0.00000  Uiso   1.00
O1340  O     0.24742   0.16274   0.77160   0.00000  Uiso   1.00
O1341  O     0.21770   0.20097   0.83767   0.00000  Uiso   1.00
O1342  O     0.25352   0.12786   0.85242   0.00000  Uiso   1.00
O1343  O     0.13368   0.04520   0.93808   0.00000  Uiso   1.00
O1344  O     0.04509   0.29509   0.87291   0.00000  Uiso   1.00
O1345  O     0.05762   0.05951   0.91662   0.00000  Uiso   1.00
O1346  O     0.10077   0.00681   0.86647   0.00000  Uiso   1.00
O1347  O     0.38118   0.49468   0.78609   0.00000  Uiso   1.00
O1348  O     0.43272   0.45628   0.73604   0.00000  Uiso   1.00
O1349  O     0.34970   0.44744   0.72103   0.00000  Uiso   1.00
O1350  O     0.04509   0.29509   0.79375   0.00000  Uiso   1.00
O1351  O     0.45492   0.20491   0.87291   0.00000  Uiso   1.00
O1352  O     0.29509   0.45491   0.87291   0.00000  Uiso   1.00
S1353  S     0.36596   0.19191   0.75029   0.00000  Uiso   1.00
S1354  S     0.38696   0.06114   0.91220   0.00000  Uiso   1.00
S1355  S     0.38216   0.08356   0.74080   0.00000  Uiso   1.00
S1356  S     0.13255   0.40908   0.93087   0.00000  Uiso   1.00
S1357  S     0.36429   0.40492   0.92986   0.00000  Uiso   1.00
S1358  S     0.22307   0.15750   0.81682   0.00000  Uiso   1.00
S1359  S     0.10331   0.05116   0.89811   0.00000  Uiso   1.00
S1360  S     0.38880   0.45400   0.76066   0.00000  Uiso   1.00
S1361  S     0.13874   0.30344   0.90508   0.00000  Uiso   1.00
S1362  S     0.11073   0.34364   0.73244   0.00000  Uiso   1.00
S1363  S     0.36425   0.17103   0.92342   0.00000  Uiso   1.00
S1364  S     0.11311   0.15406   0.92982   0.00000  Uiso   1.00
S1365  S     0.47328   0.40806   0.81626   0.00000  Uiso   1.00
S1366  S     0.35463   0.30136   0.89813   0.00000  Uiso   1.00
S1367  S     0.14106   0.20195   0.75748   0.00000  Uiso   1.00
S1368  S     0.11935   0.44688   0.75207   0.00000  Uiso   1.00
C1369  C     0.56215   0.19325   0.83348   0.00000  Uiso   1.00
C1370  C     0.99851   0.28741   0.97486   0.00000  Uiso   1.00
C1371  C     0.99779   0.28727   0.69056   0.00000  Uiso   1.00
C1372  C     0.50061   0.21239   0.97587   0.00000  Uiso   1.00
C1373  C     0.75044   0.46236   0.69179   0.00000  Uiso   1.00
C1374  C     0.74866   0.03746   0.97492   0.00000  Uiso   1.00
C1375  C     0.74904   0.03738   0.69066   0.00000  Uiso   1.00
C1376  C     0.75022   0.46243   0.97587   0.00000  Uiso   1.00
C1377  C     0.87823   0.15286   0.79354   0.00000  Uiso   1.00
C1378  C     0.62268   0.34678   0.86895   0.00000  Uiso   1.00
C1379  C     0.60602   0.36517   0.78923   0.00000  Uiso   1.00
C1380  C     0.94118   0.31007   0.83352   0.00000  Uiso   1.00
C1381  C     0.88605   0.14203   0.87603   0.00000  Uiso   1.00
C1382  C     0.60230   0.13466   0.87326   0.00000  Uiso   1.00
C1383  C     0.91989   0.38463   0.81026   0.00000  Uiso   1.00
C1384  C     0.87345   0.34610   0.86578   0.00000  Uiso   1.00
C1385  C     0.63490   0.16272   0.80202   0.00000  Uiso   1.00
C1386  C     0.62618   0.40555   0.79483   0.00000  Uiso   1.00
C1387  C     0.86909   0.10057   0.87226   0.00000  Uiso   1.00
C1388  C     0.86101   0.11136   0.78951   0.00000  Uiso   1.00
C1389  C     0.64137   0.38724   0.87507   0.00000  Uiso   1.00
C1390  C     0.85272   0.38466   0.87407   0.00000  Uiso   1.00
C1391  C     0.93730   0.19359   0.83390   0.00000  Uiso   1.00
C1392  C     0.66975   0.13410   0.80999   0.00000  Uiso   1.00
C1393  C     0.62208   0.09552   0.86453   0.00000  Uiso   1.00
C1394  C     0.88452   0.41284   0.80280   0.00000  Uiso   1.00
C1395  C     0.59906   0.33841   0.82894   0.00000  Uiso   1.00
C1396  C     0.89798   0.16472   0.83514   0.00000  Uiso   1.00
C1397  C     0.91000   0.34603   0.83460   0.00000  Uiso   1.00
C1398  C     0.59978   0.16332   0.83530   0.00000  Uiso   1.00
C1399  C     0.85023   0.08781   0.83059   0.00000  Uiso   1.00
C1400  C     0.64919   0.41376   0.83577   0.00000  Uiso   1.00
C1401  C     0.65937   0.09552   0.83424   0.00000  Uiso   1.00
C1402  C     0.56221   0.30693   0.83220   0.00000  Uiso   1.00
C1403  C     0.84931   0.41265   0.83577   0.00000  Uiso   1.00
C1404  C     0.81152   0.44249   0.83363   0.00000  Uiso   1.00
C1405  C     0.69072   0.05968   0.83351   0.00000  Uiso   1.00
C1406  C     0.68780   0.44314   0.83406   0.00000  Uiso   1.00
C1407  C     0.81287   0.05641   0.83252   0.00000  Uiso   1.00
C1408  C     0.50106   0.21235   0.69179   0.00000  Uiso   1.00
Cl1409 Cl    0.50095   0.16237   0.72109   0.00000  Uiso   1.00
Cl1410 Cl    0.99707   0.33713   0.94580   0.00000  Uiso   1.00
Cl1411 Cl    0.99240   0.33623   0.71802   0.00000  Uiso   1.00
Cl1412 Cl    0.99769   0.16283   0.94767   0.00000  Uiso   1.00
Cl1413 Cl    0.75091   0.41244   0.72107   0.00000  Uiso   1.00
Cl1414 Cl    0.74704   0.08726   0.94595   0.00000  Uiso   1.00
Cl1415 Cl    0.74929   0.08665   0.71842   0.00000  Uiso   1.00
Cl1416 Cl    0.74898   0.41307   0.94750   0.00000  Uiso   1.00
Cu1417 Cu    0.50000   0.25000   0.88022   0.00000  Uiso   1.00
Cu1418 Cu    0.50000   0.25000   0.78645   0.00000  Uiso   1.00
Cu1419 Cu    0.75000   0.00000   0.88022   0.00000  Uiso   1.00
Cu1420 Cu    0.75000   0.00000   0.78645   0.00000  Uiso   1.00
H1421  H     0.84941   0.25896   0.74847   0.00000  Uiso   1.00
H1422  H     0.83903   0.06675   0.96791   0.00000  Uiso   1.00
H1423  H     0.86435   0.02910   0.70026   0.00000  Uiso   1.00
H1424  H     0.63532   0.46890   0.96629   0.00000  Uiso   1.00
H1425  H     0.86734   0.46516   0.96465   0.00000  Uiso   1.00
H1426  H     0.78166   0.14387   0.85453   0.00000  Uiso   1.00
H1427  H     0.63179   0.49949   0.86067   0.00000  Uiso   1.00
H1428  H     0.85198   0.41706   0.71218   0.00000  Uiso   1.00
H1429  H     0.59183   0.32447   0.95685   0.00000  Uiso   1.00
H1430  H     0.61367   0.28199   0.70020   0.00000  Uiso   1.00
H1431  H     0.91381   0.19413   0.96897   0.00000  Uiso   1.00
H1432  H     0.61579   0.21376   0.96593   0.00000  Uiso   1.00
H1433  H     0.52936   0.39860   0.85983   0.00000  Uiso   1.00
H1434  H     0.88244   0.24996   0.86001   0.00000  Uiso   1.00
H1435  H     0.59678   0.17247   0.71006   0.00000  Uiso   1.00
H1436  H     0.62668   0.01560   0.74668   0.00000  Uiso   1.00
N1437  N     0.50000   0.25000   0.95069   0.00000  Uiso   1.00
N1438  N     0.50000   0.25000   0.71598   0.00000  Uiso   1.00
N1439  N     0.75000   0.00000   0.95069   0.00000  Uiso   1.00
N1440  N     0.75000   0.00000   0.71598   0.00000  Uiso   1.00
O1441  O     0.54509   0.20491   0.87291   0.00000  Uiso   1.00
O1442  O     0.70492   0.04509   0.79375   0.00000  Uiso   1.00
O1443  O     0.70492   0.04509   0.87291   0.00000  Uiso   1.00
O1444  O     0.79509   0.45491   0.79375   0.00000  Uiso   1.00
O1445  O     0.70492   0.45491   0.79375   0.00000  Uiso   1.00
O1446  O     0.79509   0.04509   0.87291   0.00000  Uiso   1.00
O1447  O     0.79509   0.04509   0.79375   0.00000  Uiso   1.00
O1448  O     0.70492   0.45491   0.87291   0.00000  Uiso   1.00
O1449  O     0.90541   0.19998   0.71944   0.00000  Uiso   1.00
O1450  O     0.82841   0.17640   0.72154   0.00000  Uiso   1.00
O1451  O     0.85155   0.23826   0.77456   0.00000  Uiso   1.00
O1452  O     0.95492   0.29509   0.79375   0.00000  Uiso   1.00
O1453  O     0.64101   0.26356   0.87684   0.00000  Uiso   1.00
O1454  O     0.68354   0.31172   0.92467   0.00000  Uiso   1.00
O1455  O     0.60192   0.29564   0.94841   0.00000  Uiso   1.00
O1456  O     0.58404   0.36943   0.69921   0.00000  Uiso   1.00
O1457  O     0.65861   0.34758   0.71855   0.00000  Uiso   1.00
O1458  O     0.59607   0.29223   0.72686   0.00000  Uiso   1.00
O1459  O     0.82288   0.19291   0.90860   0.00000  Uiso   1.00
O1460  O     0.85154   0.14166   0.96281   0.00000  Uiso   1.00
O1461  O     0.89962   0.20796   0.94233   0.00000  Uiso   1.00
O1462  O     0.58806   0.12792   0.96562   0.00000  Uiso   1.00
O1463  O     0.95492   0.29509   0.87291   0.00000  Uiso   1.00
O1464  O     0.66155   0.14874   0.93820   0.00000  Uiso   1.00
O1465  O     0.60103   0.20577   0.93703   0.00000  Uiso   1.00
O1466  O     0.99743   0.41116   0.77080   0.00000  Uiso   1.00
O1467  O     0.96808   0.45247   0.83484   0.00000  Uiso   1.00
O1468  O     0.50377   0.37984   0.85331   0.00000  Uiso   1.00
O1469  O     0.88534   0.29261   0.93725   0.00000  Uiso   1.00
O1470  O     0.80916   0.30915   0.91758   0.00000  Uiso   1.00
O1471  O     0.85184   0.25975   0.86287   0.00000  Uiso   1.00
O1472  O     0.64588   0.24480   0.77968   0.00000  Uiso   1.00
O1473  O     0.68091   0.19422   0.72737   0.00000  Uiso   1.00
O1474  O     0.54509   0.20491   0.79375   0.00000  Uiso   1.00
O1475  O     0.59722   0.20159   0.72305   0.00000  Uiso   1.00
O1476  O     0.65141   0.44002   0.71291   0.00000  Uiso   1.00
O1477  O     0.57330   0.44587   0.73393   0.00000  Uiso   1.00
O1478  O     0.62814   0.49575   0.77360   0.00000  Uiso   1.00
O1479  O     0.90497   0.02392   0.88579   0.00000  Uiso   1.00
O1480  O     0.92288   0.07885   0.94178   0.00000  Uiso   1.00
O1481  O     0.84515   0.04344   0.94623   0.00000  Uiso   1.00
O1482  O     0.89456   0.11363   0.70186   0.00000  Uiso   1.00
O1483  O     0.92373   0.06175   0.75543   0.00000  Uiso   1.00
O1484  O     0.84646   0.04719   0.72103   0.00000  Uiso   1.00
O1485  O     0.95492   0.20491   0.79375   0.00000  Uiso   1.00
O1486  O     0.58391   0.40612   0.94148   0.00000  Uiso   1.00
O1487  O     0.65654   0.38313   0.96615   0.00000  Uiso   1.00
O1488  O     0.64789   0.46028   0.93611   0.00000  Uiso   1.00
O1489  O     0.83854   0.38010   0.96620   0.00000  Uiso   1.00
O1490  O     0.91256   0.39860   0.93845   0.00000  Uiso   1.00
O1491  O     0.85372   0.45713   0.93514   0.00000  Uiso   1.00
O1492  O     0.74742   0.16274   0.77160   0.00000  Uiso   1.00
O1493  O     0.71770   0.20097   0.83767   0.00000  Uiso   1.00
O1494  O     0.75352   0.12786   0.85242   0.00000  Uiso   1.00
O1495  O     0.63368   0.04520   0.93808   0.00000  Uiso   1.00
O1496  O     0.54509   0.29509   0.87291   0.00000  Uiso   1.00
O1497  O     0.55762   0.05951   0.91662   0.00000  Uiso   1.00
O1498  O     0.60077   0.00681   0.86647   0.00000  Uiso   1.00
O1499  O     0.88118   0.49468   0.78609   0.00000  Uiso   1.00
O1500  O     0.93272   0.45628   0.73604   0.00000  Uiso   1.00
O1501  O     0.84970   0.44744   0.72103   0.00000  Uiso   1.00
O1502  O     0.54509   0.29509   0.79375   0.00000  Uiso   1.00
O1503  O     0.95492   0.20491   0.87291   0.00000  Uiso   1.00
O1504  O     0.79509   0.45491   0.87291   0.00000  Uiso   1.00
S1505  S     0.86596   0.19191   0.75029   0.00000  Uiso   1.00
S1506  S     0.88696   0.06114   0.91220   0.00000  Uiso   1.00
S1507  S     0.88216   0.08356   0.74080   0.00000  Uiso   1.00
S1508  S     0.63255   0.40908   0.93087   0.00000  Uiso   1.00
S1509  S     0.86429   0.40492   0.92986   0.00000  Uiso   1.00
S1510  S     0.72307   0.15750   0.81682   0.00000  Uiso   1.00
S1511  S     0.60331   0.05116   0.89811   0.00000  Uiso   1.00
S1512  S     0.88880   0.45400   0.76066   0.00000  Uiso   1.00
S1513  S     0.63874   0.30344   0.90508   0.00000  Uiso   1.00
S1514  S     0.61073   0.34364   0.73244   0.00000  Uiso   1.00
S1515  S     0.86425   0.17103   0.92342   0.00000  Uiso   1.00
S1516  S     0.61311   0.15406   0.92982   0.00000  Uiso   1.00
S1517  S     0.97328   0.40806   0.81626   0.00000  Uiso   1.00
S1518  S     0.85463   0.30136   0.89813   0.00000  Uiso   1.00
S1519  S     0.64106   0.20195   0.75748   0.00000  Uiso   1.00
S1520  S     0.61935   0.44688   0.75207   0.00000  Uiso   1.00
C1521  C     0.06215   0.69325   0.83348   0.00000  Uiso   1.00
C1522  C     0.49851   0.78741   0.97486   0.00000  Uiso   1.00
C1523  C     0.49779   0.78727   0.69056   0.00000  Uiso   1.00
C1524  C     0.00061   0.71239   0.97587   0.00000  Uiso   1.00
C1525  C     0.25044   0.96236   0.69179   0.00000  Uiso   1.00
C1526  C     0.24866   0.53746   0.97492   0.00000  Uiso   1.00
C1527  C     0.24904   0.53738   0.69066   0.00000  Uiso   1.00
C1528  C     0.25022   0.96243   0.97587   0.00000  Uiso   1.00
C1529  C     0.37823   0.65286   0.79354   0.00000  Uiso   1.00
C1530  C     0.12268   0.84678   0.86895   0.00000  Uiso   1.00
C1531  C     0.10602   0.86517   0.78923   0.00000  Uiso   1.00
C1532  C     0.44118   0.81007   0.83352   0.00000  Uiso   1.00
C1533  C     0.38605   0.64203   0.87603   0.00000  Uiso   1.00
C1534  C     0.10230   0.63466   0.87326   0.00000  Uiso   1.00
C1535  C     0.41989   0.88463   0.81026   0.00000  Uiso   1.00
C1536  C     0.37345   0.84610   0.86578   0.00000  Uiso   1.00
C1537  C     0.13490   0.66272   0.80202   0.00000  Uiso   1.00
C1538  C     0.12618   0.90555   0.79483   0.00000  Uiso   1.00
C1539  C     0.36909   0.60057   0.87226   0.00000  Uiso   1.00
C1540  C     0.36101   0.61136   0.78951   0.00000  Uiso   1.00
C1541  C     0.14137   0.88724   0.87507   0.00000  Uiso   1.00
C1542  C     0.35272   0.88466   0.87407   0.00000  Uiso   1.00
C1543  C     0.43730   0.69359   0.83390   0.00000  Uiso   1.00
C1544  C     0.16975   0.63410   0.80999   0.00000  Uiso   1.00
C1545  C     0.12208   0.59552   0.86453   0.00000  Uiso   1.00
C1546  C     0.38452   0.91284   0.80280   0.00000  Uiso   1.00
C1547  C     0.09906   0.83841   0.82894   0.00000  Uiso   1.00
C1548  C     0.39798   0.66472   0.83514   0.00000  Uiso   1.00
C1549  C     0.41000   0.84603   0.83460   0.00000  Uiso   1.00
C1550  C     0.09978   0.66332   0.83530   0.00000  Uiso   1.00
C1551  C     0.35023   0.58781   0.83059   0.00000  Uiso   1.00
C1552  C     0.14919   0.91376   0.83577   0.00000  Uiso   1.00
C1553  C     0.15937   0.59552   0.83424   0.00000  Uiso   1.00
C1554  C     0.06221   0.80693   0.83220   0.00000  Uiso   1.00
C1555  C     0.34931   0.91265   0.83577   0.00000  Uiso   1.00
C1556  C     0.31152   0.94249   0.83363   0.00000  Uiso   1.00
C1557  C     0.19072   0.55968   0.83351   0.00000  Uiso   1.00
C1558  C     0.18780   0.94314   0.83406   0.00000  Uiso   1.00
C1559  C     0.31287   0.55641   0.83252   0.00000  Uiso   1.00
C1560  C     0.00106   0.71235   0.69179   0.00000  Uiso   1.00
Cl1561 Cl    0.00095   0.66237   0.72109   0.00000  Uiso   1.00
Cl1562 Cl    0.49707   0.83713   0.94580   0.00000  Uiso   1.00
Cl1563 Cl    0.49240   0.83623   0.71802   0.00000  Uiso   1.00
Cl1564 Cl    0.49769   0.66283   0.94767   0.00000  Uiso   1.00
Cl1565 Cl    0.25091   0.91244   0.72107   0.00000  Uiso   1.00
Cl1566 Cl    0.24704   0.58726   0.94595   0.00000  Uiso   1.00
Cl1567 Cl    0.24929   0.58665   0.71842   0.00000  Uiso   1.00
Cl1568 Cl    0.24898   0.91307   0.94750   0.00000  Uiso   1.00
Cu1569 Cu    0.00000   0.75000   0.88022   0.00000  Uiso   1.00
Cu1570 Cu    0.00000   0.75000   0.78645   0.00000  Uiso   1.00
Cu1571 Cu    0.25000   0.50000   0.88022   0.00000  Uiso   1.00
Cu1572 Cu    0.25000   0.50000   0.78645   0.00000  Uiso   1.00
H1573  H     0.34941   0.75896   0.74847   0.00000  Uiso   1.00
H1574  H     0.33903   0.56675   0.96791   0.00000  Uiso   1.00
H1575  H     0.36435   0.52910   0.70026   0.00000  Uiso   1.00
H1576  H     0.13532   0.96890   0.96629   0.00000  Uiso   1.00
H1577  H     0.36734   0.96516   0.96465   0.00000  Uiso   1.00
H1578  H     0.28166   0.64387   0.85453   0.00000  Uiso   1.00
H1579  H     0.13179   0.99949   0.86067   0.00000  Uiso   1.00
H1580  H     0.35198   0.91706   0.71218   0.00000  Uiso   1.00
H1581  H     0.09183   0.82447   0.95685   0.00000  Uiso   1.00
H1582  H     0.11367   0.78199   0.70020   0.00000  Uiso   1.00
H1583  H     0.41381   0.69413   0.96897   0.00000  Uiso   1.00
H1584  H     0.11579   0.71376   0.96593   0.00000  Uiso   1.00
H1585  H     0.02936   0.89860   0.85983   0.00000  Uiso   1.00
H1586  H     0.38244   0.74996   0.86001   0.00000  Uiso   1.00
H1587  H     0.09678   0.67247   0.71006   0.00000  Uiso   1.00
H1588  H     0.12668   0.51560   0.74668   0.00000  Uiso   1.00
N1589  N     0.00000   0.75000   0.95069   0.00000  Uiso   1.00
N1590  N     0.00000   0.75000   0.71598   0.00000  Uiso   1.00
N1591  N     0.25000   0.50000   0.95069   0.00000  Uiso   1.00
N1592  N     0.25000   0.50000   0.71598   0.00000  Uiso   1.00
O1593  O     0.04509   0.70491   0.87291   0.00000  Uiso   1.00
O1594  O     0.20492   0.54509   0.79375   0.00000  Uiso   1.00
O1595  O     0.20492   0.54509   0.87291   0.00000  Uiso   1.00
O1596  O     0.29509   0.95491   0.79375   0.00000  Uiso   1.00
O1597  O     0.20492   0.95491   0.79375   0.00000  Uiso   1.00
O1598  O     0.29509   0.54509   0.87291   0.00000  Uiso   1.00
O1599  O     0.29509   0.54509   0.79375   0.00000  Uiso   1.00
O1600  O     0.20492   0.95491   0.87291   0.00000  Uiso   1.00
O1601  O     0.40541   0.69998   0.71944   0.00000  Uiso   1.00
O1602  O     0.32841   0.67640   0.72154   0.00000  Uiso   1.00
O1603  O     0.35155   0.73826   0.77456   0.00000  Uiso   1.00
O1604  O     0.45492   0.79509   0.79375   0.00000  Uiso   1.00
O1605  O     0.14101   0.76356   0.87684   0.00000  Uiso   1.00
O1606  O     0.18354   0.81172   0.92467   0.00000  Uiso   1.00
O1607  O     0.10192   0.79564   0.94841   0.00000  Uiso   1.00
O1608  O     0.08404   0.86943   0.69921   0.00000  Uiso   1.00
O1609  O     0.15861   0.84758   0.71855   0.00000  Uiso   1.00
O1610  O     0.09607   0.79223   0.72686   0.00000  Uiso   1.00
O1611  O     0.32288   0.69291   0.90860   0.00000  Uiso   1.00
O1612  O     0.35154   0.64166   0.96281   0.00000  Uiso   1.00
O1613  O     0.39962   0.70796   0.94233   0.00000  Uiso   1.00
O1614  O     0.08806   0.62792   0.96562   0.00000  Uiso   1.00
O1615  O     0.45492   0.79509   0.87291   0.00000  Uiso   1.00
O1616  O     0.16155   0.64874   0.93820   0.00000  Uiso   1.00
O1617  O     0.10103   0.70577   0.93703   0.00000  Uiso   1.00
O1618  O     0.49743   0.91116   0.77080   0.00000  Uiso   1.00
O1619  O     0.46808   0.95247   0.83484   0.00000  Uiso   1.00
O1620  O     0.00377   0.87984   0.85331   0.00000  Uiso   1.00
O1621  O     0.38534   0.79261   0.93725   0.00000  Uiso   1.00
O1622  O     0.30916   0.80915   0.91758   0.00000  Uiso   1.00
O1623  O     0.35184   0.75975   0.86287   0.00000  Uiso   1.00
O1624  O     0.14588   0.74480   0.77968   0.00000  Uiso   1.00
O1625  O     0.18091   0.69422   0.72737   0.00000  Uiso   1.00
O1626  O     0.04509   0.70491   0.79375   0.00000  Uiso   1.00
O1627  O     0.09722   0.70159   0.72305   0.00000  Uiso   1.00
O1628  O     0.15141   0.94002   0.71291   0.00000  Uiso   1.00
O1629  O     0.07330   0.94587   0.73393   0.00000  Uiso   1.00
O1630  O     0.12814   0.99575   0.77360   0.00000  Uiso   1.00
O1631  O     0.40497   0.52392   0.88579   0.00000  Uiso   1.00
O1632  O     0.42288   0.57885   0.94178   0.00000  Uiso   1.00
O1633  O     0.34515   0.54344   0.94623   0.00000  Uiso   1.00
O1634  O     0.39456   0.61363   0.70186   0.00000  Uiso   1.00
O1635  O     0.42373   0.56175   0.75543   0.00000  Uiso   1.00
O1636  O     0.34646   0.54719   0.72103   0.00000  Uiso   1.00
O1637  O     0.45492   0.70491   0.79375   0.00000  Uiso   1.00
O1638  O     0.08391   0.90612   0.94148   0.00000  Uiso   1.00
O1639  O     0.15654   0.88313   0.96615   0.00000  Uiso   1.00
O1640  O     0.14789   0.96028   0.93611   0.00000  Uiso   1.00
O1641  O     0.33854   0.88010   0.96620   0.00000  Uiso   1.00
O1642  O     0.41256   0.89860   0.93845   0.00000  Uiso   1.00
O1643  O     0.35372   0.95713   0.93514   0.00000  Uiso   1.00
O1644  O     0.24742   0.66274   0.77160   0.00000  Uiso   1.00
O1645  O     0.21770   0.70097   0.83767   0.00000  Uiso   1.00
O1646  O     0.25352   0.62786   0.85242   0.00000  Uiso   1.00
O1647  O     0.13368   0.54520   0.93808   0.00000  Uiso   1.00
O1648  O     0.04509   0.79509   0.87291   0.00000  Uiso   1.00
O1649  O     0.05762   0.55951   0.91662   0.00000  Uiso   1.00
O1650  O     0.10077   0.50681   0.86647   0.00000  Uiso   1.00
O1651  O     0.38118   0.99468   0.78609   0.00000  Uiso   1.00
O1652  O     0.43272   0.95628   0.73604   0.00000  Uiso   1.00
O1653  O     0.34970   0.94744   0.72103   0.00000  Uiso   1.00
O1654  O     0.04509   0.79509   0.79375   0.00000  Uiso   1.00
O1655  O     0.45492   0.70491   0.87291   0.00000  Uiso   1.00
O1656  O     0.29509   0.95491   0.87291   0.00000  Uiso   1.00
S1657  S     0.36596   0.69191   0.75029   0.00000  Uiso   1.00
S1658  S     0.38696   0.56114   0.91220   0.00000  Uiso   1.00
S1659  S     0.38216   0.58356   0.74080   0.00000  Uiso   1.00
S1660  S     0.13255   0.90908   0.93087   0.00000  Uiso   1.00
S1661  S     0.36429   0.90492   0.92986   0.00000  Uiso   1.00
S1662  S     0.22307   0.65750   0.81682   0.00000  Uiso   1.00
S1663  S     0.10331   0.55116   0.89811   0.00000  Uiso   1.00
S1664  S     0.38880   0.95400   0.76066   0.00000  Uiso   1.00
S1665  S     0.13874   0.80344   0.90508   0.00000  Uiso   1.00
S1666  S     0.11073   0.84364   0.73244   0.00000  Uiso   1.00
S1667  S     0.36425   0.67103   0.92342   0.00000  Uiso   1.00
S1668  S     0.11311   0.65406   0.92982   0.00000  Uiso   1.00
S1669  S     0.47328   0.90806   0.81626   0.00000  Uiso   1.00
S1670  S     0.35463   0.80136   0.89813   0.00000  Uiso   1.00
S1671  S     0.14106   0.70195   0.75748   0.00000  Uiso   1.00
S1672  S     0.11935   0.94688   0.75207   0.00000  Uiso   1.00
C1673  C     0.56215   0.69325   0.83348   0.00000  Uiso   1.00
C1674  C     0.99851   0.78741   0.97486   0.00000  Uiso   1.00
C1675  C     0.99779   0.78727   0.69056   0.00000  Uiso   1.00
C1676  C     0.50061   0.71239   0.97587   0.00000  Uiso   1.00
C1677  C     0.75044   0.96236   0.69179   0.00000  Uiso   1.00
C1678  C     0.74866   0.53746   0.97492   0.00000  Uiso   1.00
C1679  C     0.74904   0.53738   0.69066   0.00000  Uiso   1.00
C1680  C     0.75022   0.96243   0.97587   0.00000  Uiso   1.00
C1681  C     0.87823   0.65286   0.79354   0.00000  Uiso   1.00
C1682  C     0.62268   0.84678   0.86895   0.00000  Uiso   1.00
C1683  C     0.60602   0.86517   0.78923   0.00000  Uiso   1.00
C1684  C     0.94118   0.81007   0.83352   0.00000  Uiso   1.00
C1685  C     0.88605   0.64203   0.87603   0.00000  Uiso   1.00
C1686  C     0.60230   0.63466   0.87326   0.00000  Uiso   1.00
C1687  C     0.91989   0.88463   0.81026   0.00000  Uiso   1.00
C1688  C     0.87345   0.84610   0.86578   0.00000  Uiso   1.00
C1689  C     0.63490   0.66272   0.80202   0.00000  Uiso   1.00
C1690  C     0.62618   0.90555   0.79483   0.00000  Uiso   1.00
C1691  C     0.86909   0.60057   0.87226   0.00000  Uiso   1.00
C1692  C     0.86101   0.61136   0.78951   0.00000  Uiso   1.00
C1693  C     0.64137   0.88724   0.87507   0.00000  Uiso   1.00
C1694  C     0.85272   0.88466   0.87407   0.00000  Uiso   1.00
C1695  C     0.93730   0.69359   0.83390   0.00000  Uiso   1.00
C1696  C     0.66975   0.63410   0.80999   0.00000  Uiso   1.00
C1697  C     0.62208   0.59552   0.86453   0.00000  Uiso   1.00
C1698  C     0.88452   0.91284   0.80280   0.00000  Uiso   1.00
C1699  C     0.59906   0.83841   0.82894   0.00000  Uiso   1.00
C1700  C     0.89798   0.66472   0.83514   0.00000  Uiso   1.00
C1701  C     0.91000   0.84603   0.83460   0.00000  Uiso   1.00
C1702  C     0.59978   0.66332   0.83530   0.00000  Uiso   1.00
C1703  C     0.85023   0.58781   0.83059   0.00000  Uiso   1.00
C1704  C     0.64919   0.91376   0.83577   0.00000  Uiso   1.00
C1705  C     0.65937   0.59552   0.83424   0.00000  Uiso   1.00
C1706  C     0.56221   0.80693   0.83220   0.00000  Uiso   1.00
C1707  C     0.84931   0.91265   0.83577   0.00000  Uiso   1.00
C1708  C     0.81152   0.94249   0.83363   0.00000  Uiso   1.00
C1709  C     0.69072   0.55968   0.83351   0.00000  Uiso   1.00
C1710  C     0.68780   0.94314   0.83406   0.00000  Uiso   1.00
C1711  C     0.81287   0.55641   0.83252   0.00000  Uiso   1.00
C1712  C     0.50106   0.71235   0.69179   0.00000  Uiso   1.00
Cl1713 Cl    0.50095   0.66237   0.72109   0.00000  Uiso   1.00
Cl1714 Cl    0.99707   0.83713   0.94580   0.00000  Uiso   1.00
Cl1715 Cl    0.99240   0.83623   0.71802   0.00000  Uiso   1.00
Cl1716 Cl    0.99769   0.66283   0.94767   0.00000  Uiso   1.00
Cl1717 Cl    0.75091   0.91244   0.72107   0.00000  Uiso   1.00
Cl1718 Cl    0.74704   0.58726   0.94595   0.00000  Uiso   1.00
Cl1719 Cl    0.74929   0.58665   0.71842   0.00000  Uiso   1.00
Cl1720 Cl    0.74898   0.91307   0.94750   0.00000  Uiso   1.00
Cu1721 Cu    0.50000   0.75000   0.88022   0.00000  Uiso   1.00
Cu1722 Cu    0.50000   0.75000   0.78645   0.00000  Uiso   1.00
Cu1723 Cu    0.75000   0.50000   0.88022   0.00000  Uiso   1.00
Cu1724 Cu    0.75000   0.50000   0.78645   0.00000  Uiso   1.00
H1725  H     0.84941   0.75896   0.74847   0.00000  Uiso   1.00
H1726  H     0.83903   0.56675   0.96791   0.00000  Uiso   1.00
H1727  H     0.86435   0.52910   0.70026   0.00000  Uiso   1.00
H1728  H     0.63532   0.96890   0.96629   0.00000  Uiso   1.00
H1729  H     0.86734   0.96516   0.96465   0.00000  Uiso   1.00
H1730  H     0.78166   0.64387   0.85453   0.00000  Uiso   1.00
H1731  H     0.63179   0.99949   0.86067   0.00000  Uiso   1.00
H1732  H     0.85198   0.91706   0.71218   0.00000  Uiso   1.00
H1733  H     0.59183   0.82447   0.95685   0.00000  Uiso   1.00
H1734  H     0.61367   0.78199   0.70020   0.00000  Uiso   1.00
H1735  H     0.91381   0.69413   0.96897   0.00000  Uiso   1.00
H1736  H     0.61579   0.71376   0.96593   0.00000  Uiso   1.00
H1737  H     0.52936   0.89860   0.85983   0.00000  Uiso   1.00
H1738  H     0.88244   0.74996   0.86001   0.00000  Uiso   1.00
H1739  H     0.59678   0.67247   0.71006   0.00000  Uiso   1.00
H1740  H     0.62668   0.51560   0.74668   0.00000  Uiso   1.00
N1741  N     0.50000   0.75000   0.95069   0.00000  Uiso   1.00
N1742  N     0.50000   0.75000   0.71598   0.00000  Uiso   1.00
N1743  N     0.75000   0.50000   0.95069   0.00000  Uiso   1.00
N1744  N     0.75000   0.50000   0.71598   0.00000  Uiso   1.00
O1745  O     0.54509   0.70491   0.87291   0.00000  Uiso   1.00
O1746  O     0.70492   0.54509   0.79375   0.00000  Uiso   1.00
O1747  O     0.70492   0.54509   0.87291   0.00000  Uiso   1.00
O1748  O     0.79509   0.95491   0.79375   0.00000  Uiso   1.00
O1749  O     0.70492   0.95491   0.79375   0.00000  Uiso   1.00
O1750  O     0.79509   0.54509   0.87291   0.00000  Uiso   1.00
O1751  O     0.79509   0.54509   0.79375   0.00000  Uiso   1.00
O1752  O     0.70492   0.95491   0.87291   0.00000  Uiso   1.00
O1753  O     0.90541   0.69998   0.71944   0.00000  Uiso   1.00
O1754  O     0.82841   0.67640   0.72154   0.00000  Uiso   1.00
O1755  O     0.85155   0.73826   0.77456   0.00000  Uiso   1.00
O1756  O     0.95492   0.79509   0.79375   0.00000  Uiso   1.00
O1757  O     0.64101   0.76356   0.87684   0.00000  Uiso   1.00
O1758  O     0.68354   0.81172   0.92467   0.00000  Uiso   1.00
O1759  O     0.60192   0.79564   0.94841   0.00000  Uiso   1.00
O1760  O     0.58404   0.86943   0.69921   0.00000  Uiso   1.00
O1761  O     0.65861   0.84758   0.71855   0.00000  Uiso   1.00
O1762  O     0.59607   0.79223   0.72686   0.00000  Uiso   1.00
O1763  O     0.82288   0.69291   0.90860   0.00000  Uiso   1.00
O1764  O     0.85154   0.64166   0.96281   0.00000  Uiso   1.00
O1765  O     0.89962   0.70796   0.94233   0.00000  Uiso   1.00
O1766  O     0.58806   0.62792   0.96562   0.00000  Uiso   1.00
O1767  O     0.95492   0.79509   0.87291   0.00000  Uiso   1.00
O1768  O     0.66155   0.64874   0.93820   0.00000  Uiso   1.00
O1769  O     0.60103   0.70577   0.93703   0.00000  Uiso   1.00
O1770  O     0.99743   0.91116   0.77080   0.00000  Uiso   1.00
O1771  O     0.96808   0.95247   0.83484   0.00000  Uiso   1.00
O1772  O     0.50377   0.87984   0.85331   0.00000  Uiso   1.00
O1773  O     0.88534   0.79261   0.93725   0.00000  Uiso   1.00
O1774  O     0.80916   0.80915   0.91758   0.00000  Uiso   1.00
O1775  O     0.85184   0.75975   0.86287   0.00000  Uiso   1.00
O1776  O     0.64588   0.74480   0.77968   0.00000  Uiso   1.00
O1777  O     0.68091   0.69422   0.72737   0.00000  Uiso   1.00
O1778  O     0.54509   0.70491   0.79375   0.00000  Uiso   1.00
O1779  O     0.59722   0.70159   0.72305   0.00000  Uiso   1.00
O1780  O     0.65141   0.94002   0.71291   0.00000  Uiso   1.00
O1781  O     0.57330   0.94587   0.73393   0.00000  Uiso   1.00
O1782  O     0.62814   0.99575   0.77360   0.00000  Uiso   1.00
O1783  O     0.90497   0.52392   0.88579   0.00000  Uiso   1.00
O1784  O     0.92288   0.57885   0.94178   0.00000  Uiso   1.00
O1785  O     0.84515   0.54344   0.94623   0.00000  Uiso   1.00
O1786  O     0.89456   0.61363   0.70186   0.00000  Uiso   1.00
O1787  O     0.92373   0.56175   0.75543   0.00000  Uiso   1.00
O1788  O     0.84646   0.54719   0.72103   0.00000  Uiso   1.00
O1789  O     0.95492   0.70491   0.79375   0.00000  Uiso   1.00
O1790  O     0.58391   0.90612   0.94148   0.00000  Uiso   1.00
O1791  O     0.65654   0.88313   0.96615   0.00000  Uiso   1.00
O1792  O     0.64789   0.96028   0.93611   0.00000  Uiso   1.00
O1793  O     0.83854   0.88010   0.96620   0.00000  Uiso   1.00
O1794  O     0.91256   0.89860   0.93845   0.00000  Uiso   1.00
O1795  O     0.85372   0.95713   0.93514   0.00000  Uiso   1.00
O1796  O     0.74742   0.66274   0.77160   0.00000  Uiso   1.00
O1797  O     0.71770   0.70097   0.83767   0.00000  Uiso   1.00
O1798  O     0.75352   0.62786   0.85242   0.00000  Uiso   1.00
O1799  O     0.63368   0.54520   0.93808   0.00000  Uiso   1.00
O1800  O     0.54509   0.79509   0.87291   0.00000  Uiso   1.00
O1801  O     0.55762   0.55951   0.91662   0.00000  Uiso   1.00
O1802  O     0.60077   0.50681   0.86647   0.00000  Uiso   1.00
O1803  O     0.88118   0.99468   0.78609   0.00000  Uiso   1.00
O1804  O     0.93272   0.95628   0.73604   0.00000  Uiso   1.00
O1805  O     0.84970   0.94744   0.72103   0.00000  Uiso   1.00
O1806  O     0.54509   0.79509   0.79375   0.00000  Uiso   1.00
O1807  O     0.95492   0.70491   0.87291   0.00000  Uiso   1.00
O1808  O     0.79509   0.95491   0.87291   0.00000  Uiso   1.00
S1809  S     0.86596   0.69191   0.75029   0.00000  Uiso   1.00
S1810  S     0.88696   0.56114   0.91220   0.00000  Uiso   1.00
S1811  S     0.88216   0.58356   0.74080   0.00000  Uiso   1.00
S1812  S     0.63255   0.90908   0.93087   0.00000  Uiso   1.00
S1813  S     0.86429   0.90492   0.92986   0.00000  Uiso   1.00
S1814  S     0.72307   0.65750   0.81682   0.00000  Uiso   1.00
S1815  S     0.60331   0.55116   0.89811   0.00000  Uiso   1.00
S1816  S     0.88880   0.95400   0.76066   0.00000  Uiso   1.00
S1817  S     0.63874   0.80344   0.90508   0.00000  Uiso   1.00
S1818  S     0.61073   0.84364   0.73244   0.00000  Uiso   1.00
S1819  S     0.86425   0.67103   0.92342   0.00000  Uiso   1.00
S1820  S     0.61311   0.65406   0.92982   0.00000  Uiso   1.00
S1821  S     0.97328   0.90806   0.81626   0.00000  Uiso   1.00
S1822  S     0.85463   0.80136   0.89813   0.00000  Uiso   1.00
S1823  S     0.64106   0.70195   0.75748   0.00000  Uiso   1.00
S1824  S     0.61935   0.94688   0.75207   0.00000  Uiso   1.00
loop_
_geom_bond_atom_site_label_1
_geom_bond_atom_site_label_2
_geom_bond_distance
_geom_bond_site_symmetry_2
_ccdc_geom_bond_type
C1     O106    1.317   .     A
C1     O73     1.303   .     A
C1     C30     1.483   .     S
C2     Cl42    1.757   .     S
C2     C611    1.419   .     S
C2     N221    1.372   .     S
C3     Cl43    1.742   .     S
C3     N222    1.371   .     A
C3     C1218   1.419   1_554 S
C4     N69     1.374   .     A
C4     C648    1.426   .     S
C4     Cl196   1.763   1_455 S
C5     Cl45    1.764   .     S
C5     C1224   1.426   1_554 S
C5     N376    1.378   .     S
C6     Cl46    1.758   .     S
C6     N71     1.374   .     A
C6     C615    1.421   .     S
C7     N72     1.370   .     A
C7     Cl47    1.747   .     S
C7     C1222   1.421   1_554 S
C8     Cl48    1.758   .     S
C8     C613    1.426   .     S
C8     N375    1.373   .     S
C9     S137    1.781   .     S
C9     C20     1.401   .     A
C9     C28     1.407   .     A
C10    C27     1.399   .     A
C10    C21     1.396   .     A
C10    S145    1.776   .     S
C11    C18     1.410   .     A
C11    C27     1.423   .     A
C11    S146    1.789   .     S
C12    C29     1.475   .     S
C12    O84     1.312   .     A
C12    O95     1.303   .     A
C13    C28     1.411   .     A
C13    C19     1.396   .     A
C13    S147    1.777   .     S
C14    S148    1.789   .     S
C14    C30     1.411   .     A
C14    C25     1.392   .     A
C15    C29     1.415   .     A
C15    C26     1.412   .     A
C15    S149    1.783   .     S
C16    C29     1.417   .     A
C16    C22     1.386   .     A
C16    S150    1.756   .     S
C17    S151    1.772   .     S
C17    C30     1.424   .     A
C17    C24     1.410   .     A
C18    C32     1.411   .     A
C18    S152    1.791   .     S
C19    C31     1.405   .     A
C19    S138    1.772   .     S
C20    S139    1.780   .     S
C20    C31     1.421   .     A
C21    C32     1.413   .     A
C21    S140    1.780   .     S
C22    C35     1.408   .     A
C22    S141    1.783   .     S
C23    C28     1.488   .     S
C23    O117    1.313   .     A
C23    O135    1.310   .     A
C24    S142    1.784   .     S
C24    C33     1.416   .     A
C25    S143    1.765   .     S
C25    C33     1.419   .     A
C26    S144    1.762   .     S
C26    C35     1.420   .     A
C27    C34     1.483   .     S
C31    C39     1.492   .     S
C32    C38     1.481   .     S
C33    C37     1.476   .     S
C34    O134    1.294   .     A
C34    O128    1.326   .     A
C35    C36     1.485   .     S
C36    O76     1.320   .     A
C36    O136    1.299   .     A
C37    O74     1.311   .     A
C37    O75     1.304   .     A
C38    O77     1.315   .     A
C38    O80     1.303   .     A
C39    O78     1.321   .     A
C39    O79     1.306   .     A
C40    Cl41    1.766   .     S
C40    C1220   1.426   1_554 S
C40    N70     1.378   .     S
Cl44   C156    1.763   .     S
Cu49   O287    1.970   1_455 S
Cu49   O247    1.984   1_455 S
Cu49   Cu50    2.714   .     S
Cu49   N69     2.040   .     S
Cu49   O73     1.983   .     S
Cu49   O128    1.961   .     S
Cu50   O269    1.961   1_455 S
Cu50   O236    1.983   1_455 S
Cu50   N70     2.040   .     S
Cu50   O106    1.984   .     S
Cu50   O134    1.970   .     S
Cu51   O75     1.984   .     S
Cu51   N71     2.040   .     S
Cu51   Cu52    2.714   .     S
Cu51   O78     1.961   .     S
Cu51   O384    1.970   1_545 S
Cu51   O440    1.983   1_545 S
Cu52   O74     1.983   .     S
Cu52   N72     2.040   .     S
Cu52   O79     1.970   .     S
Cu52   O380    1.984   1_545 S
Cu52   O381    1.961   1_545 S
H53    O83     0.991   .     S
H54    O113    0.985   .     S
H55    O116    0.990   .     S
H56    O120    0.989   .     S
H57    O123    0.990   .     S
H58    O126    0.988   .     S
H59    O434    0.982   .     S
H60    O133    0.990   .     S
H61    O87     0.986   .     S
H62    O90     0.989   .     S
H63    O93     0.986   .     S
H64    O97     0.990   .     S
H65    O100    0.991   .     S
H66    O103    0.982   .     S
H67    O107    0.990   .     S
H68    O414    0.991   1_545 S
N69    C154    1.372   1_455 S
N70    C155    1.371   1_455 A
N71    C312    1.373   1_545 S
N72    C309    1.378   1_545 S
O76    Cu356   1.984   .     S
O77    Cu356   1.961   .     S
O80    Cu355   1.970   .     S
O81    S137    1.498   .     D
O82    S137    1.503   .     D
O83    S137    1.677   .     S
O84    Cu202   1.983   .     S
O85    S145    1.502   .     D
O86    S145    1.503   .     D
O87    S145    1.678   .     S
O88    S146    1.498   .     D
O89    S146    1.503   .     D
O90    S146    1.674   .     S
O91    S147    1.500   .     D
O92    S147    1.496   .     D
O93    S147    1.673   .     S
O94    S148    1.501   .     D
O95    Cu201   1.984   .     S
O96    S148    1.503   .     D
O97    S148    1.675   .     S
O98    S149    1.496   .     D
O99    S149    1.504   .     D
O100   S301    1.674   1_455 S
O101   S150    1.502   .     D
O102   S150    1.503   .     D
O103   S150    1.667   .     S
O104   S151    1.501   .     D
O105   S151    1.501   .     D
O107   S151    1.675   .     S
O108   S152    1.500   .     D
O109   S152    1.501   .     D
O110   S152    1.679   .     S
O110   H372    0.991   .     S
O111   S138    1.503   .     D
O112   S138    1.504   .     D
O113   S138    1.676   .     S
O114   S139    1.497   .     D
O115   S139    1.503   .     D
O116   S139    1.676   .     S
O117   Cu202   1.961   .     S
O118   S140    1.503   .     D
O119   S140    1.497   .     D
O120   S140    1.672   .     S
O121   S141    1.501   .     D
O122   S141    1.503   .     D
O123   S141    1.674   .     S
O124   S142    1.498   .     D
O125   S142    1.504   .     D
O126   S142    1.671   .     S
O127   S143    1.502   .     D
O129   S143    1.503   .     D
O130   S143    1.674   .     S
O130   H363    0.982   1_545 S
O131   S144    1.496   .     D
O132   S144    1.500   .     D
O133   S144    1.677   .     S
O135   Cu201   1.970   .     S
O136   Cu355   1.983   .     S
S149   O252    1.674   .     S
C153   O258    1.317   .     A
C153   O225    1.303   .     A
C153   C182    1.483   .     S
C154   Cl194   1.757   .     S
C154   C763    1.419   .     S
C154   N69     1.372   1_655 S
C155   Cl195   1.742   .     S
C155   N70     1.371   1_655 A
C155   C1370   1.419   1_554 S
C156   N221    1.374   .     A
C156   C800    1.426   .     S
C157   Cl197   1.764   .     S
C157   C1376   1.426   1_554 S
C157   N528    1.378   .     S
C158   Cl198   1.758   .     S
C158   N223    1.374   .     A
C158   C767    1.421   .     S
C159   N224    1.370   .     A
C159   Cl199   1.747   .     S
C159   C1374   1.421   1_554 S
C160   Cl200   1.758   .     S
C160   C765    1.426   .     S
C160   N527    1.373   .     S
C161   S289    1.781   .     S
C161   C172    1.401   .     A
C161   C180    1.407   .     A
C162   C179    1.399   .     A
C162   C173    1.396   .     A
C162   S297    1.776   .     S
C163   C170    1.410   .     A
C163   C179    1.423   .     A
C163   S298    1.789   .     S
C164   C181    1.475   .     S
C164   O236    1.312   .     A
C164   O247    1.303   .     A
C165   C180    1.411   .     A
C165   C171    1.396   .     A
C165   S299    1.777   .     S
C166   S300    1.789   .     S
C166   C182    1.411   .     A
C166   C177    1.392   .     A
C167   C181    1.415   .     A
C167   C178    1.412   .     A
C167   S301    1.783   .     S
C168   C181    1.417   .     A
C168   C174    1.386   .     A
C168   S302    1.756   .     S
C169   S303    1.772   .     S
C169   C182    1.424   .     A
C169   C176    1.410   .     A
C170   C184    1.411   .     A
C170   S304    1.791   .     S
C171   C183    1.405   .     A
C171   S290    1.772   .     S
C172   S291    1.780   .     S
C172   C183    1.421   .     A
C173   C184    1.413   .     A
C173   S292    1.780   .     S
C174   C187    1.408   .     A
C174   S293    1.783   .     S
C175   C180    1.488   .     S
C175   O269    1.313   .     A
C175   O287    1.310   .     A
C176   S294    1.784   .     S
C176   C185    1.416   .     A
C177   S295    1.765   .     S
C177   C185    1.419   .     A
C178   S296    1.762   .     S
C178   C187    1.420   .     A
C179   C186    1.483   .     S
C183   C191    1.492   .     S
C184   C190    1.481   .     S
C185   C189    1.476   .     S
C186   O286    1.294   .     A
C186   O280    1.326   .     A
C187   C188    1.485   .     S
C188   O228    1.320   .     A
C188   O288    1.299   .     A
C189   O226    1.311   .     A
C189   O227    1.304   .     A
C190   O229    1.315   .     A
C190   O232    1.303   .     A
C191   O230    1.321   .     A
C191   O231    1.306   .     A
C192   Cl193   1.766   .     S
C192   C1372   1.426   1_554 S
C192   N222    1.378   .     S
Cl196  C4      1.763   1_655 S
Cu201  Cu202   2.714   .     S
Cu201  N221    2.040   .     S
Cu201  O225    1.983   .     S
Cu201  O280    1.961   .     S
Cu202  N222    2.040   .     S
Cu202  O258    1.984   .     S
Cu202  O286    1.970   .     S
Cu203  O227    1.984   .     S
Cu203  N223    2.040   .     S
Cu203  Cu204   2.714   .     S
Cu203  O230    1.961   .     S
Cu203  O536    1.970   1_545 S
Cu203  O592    1.983   1_545 S
Cu204  O226    1.983   .     S
Cu204  N224    2.040   .     S
Cu204  O231    1.970   .     S
Cu204  O532    1.984   1_545 S
Cu204  O533    1.961   1_545 S
H205   O235    0.991   .     S
H206   O265    0.985   .     S
H207   O268    0.990   .     S
H208   O272    0.989   .     S
H209   O275    0.990   .     S
H210   O278    0.988   .     S
H211   O586    0.982   .     S
H212   O285    0.990   .     S
H213   O239    0.986   .     S
H214   O242    0.989   .     S
H215   O245    0.986   .     S
H216   O249    0.990   .     S
H217   O252    0.991   .     S
H218   O255    0.982   .     S
H219   O259    0.990   .     S
H220   O566    0.991   1_545 S
N223   C464    1.373   1_545 S
N224   C461    1.378   1_545 S
O228   Cu508   1.984   .     S
O229   Cu508   1.961   .     S
O232   Cu507   1.970   .     S
O233   S289    1.498   .     D
O234   S289    1.503   .     D
O235   S289    1.677   .     S
O236   Cu50    1.983   1_655 S
O237   S297    1.502   .     D
O238   S297    1.503   .     D
O239   S297    1.678   .     S
O240   S298    1.498   .     D
O241   S298    1.503   .     D
O242   S298    1.674   .     S
O243   S299    1.500   .     D
O244   S299    1.496   .     D
O245   S299    1.673   .     S
O246   S300    1.501   .     D
O247   Cu49    1.984   1_655 S
O248   S300    1.503   .     D
O249   S300    1.675   .     S
O250   S301    1.496   .     D
O251   S301    1.504   .     D
O253   S302    1.502   .     D
O254   S302    1.503   .     D
O255   S302    1.667   .     S
O256   S303    1.501   .     D
O257   S303    1.501   .     D
O259   S303    1.675   .     S
O260   S304    1.500   .     D
O261   S304    1.501   .     D
O262   S304    1.679   .     S
O262   H524    0.991   .     S
O263   S290    1.503   .     D
O264   S290    1.504   .     D
O265   S290    1.676   .     S
O266   S291    1.497   .     D
O267   S291    1.503   .     D
O268   S291    1.676   .     S
O269   Cu50    1.961   1_655 S
O270   S292    1.503   .     D
O271   S292    1.497   .     D
O272   S292    1.672   .     S
O273   S293    1.501   .     D
O274   S293    1.503   .     D
O275   S293    1.674   .     S
O276   S294    1.498   .     D
O277   S294    1.504   .     D
O278   S294    1.671   .     S
O279   S295    1.502   .     D
O281   S295    1.503   .     D
O282   S295    1.674   .     S
O282   H515    0.982   1_545 S
O283   S296    1.496   .     D
O284   S296    1.500   .     D
O285   S296    1.677   .     S
O287   Cu49    1.970   1_655 S
O288   Cu507   1.983   .     S
S301   O100    1.674   1_655 S
C305   O410    1.317   .     A
C305   O377    1.303   .     A
C305   C334    1.483   .     S
C306   Cl346   1.757   .     S
C306   C915    1.419   .     S
C306   N525    1.372   .     S
C307   Cl347   1.742   .     S
C307   N526    1.371   .     A
C307   C1522   1.419   1_554 S
C308   N373    1.374   .     A
C308   C952    1.426   .     S
C308   Cl500   1.763   1_455 S
C309   Cl349   1.764   .     S
C309   C1528   1.426   1_554 S
C309   N72     1.378   1_565 S
C310   Cl350   1.758   .     S
C310   N375    1.374   .     A
C310   C919    1.421   .     S
C311   N376    1.370   .     A
C311   Cl351   1.747   .     S
C311   C1526   1.421   1_554 S
C312   Cl352   1.758   .     S
C312   C917    1.426   .     S
C312   N71     1.373   1_565 S
C313   S441    1.781   .     S
C313   C324    1.401   .     A
C313   C332    1.407   .     A
C314   C331    1.399   .     A
C314   C325    1.396   .     A
C314   S449    1.776   .     S
C315   C322    1.410   .     A
C315   C331    1.423   .     A
C315   S450    1.789   .     S
C316   C333    1.475   .     S
C316   O388    1.312   .     A
C316   O399    1.303   .     A
C317   C332    1.411   .     A
C317   C323    1.396   .     A
C317   S451    1.777   .     S
C318   S452    1.789   .     S
C318   C334    1.411   .     A
C318   C329    1.392   .     A
C319   C333    1.415   .     A
C319   C330    1.412   .     A
C319   S453    1.783   .     S
C320   C333    1.417   .     A
C320   C326    1.386   .     A
C320   S454    1.756   .     S
C321   S455    1.772   .     S
C321   C334    1.424   .     A
C321   C328    1.410   .     A
C322   C336    1.411   .     A
C322   S456    1.791   .     S
C323   C335    1.405   .     A
C323   S442    1.772   .     S
C324   S443    1.780   .     S
C324   C335    1.421   .     A
C325   C336    1.413   .     A
C325   S444    1.780   .     S
C326   C339    1.408   .     A
C326   S445    1.783   .     S
C327   C332    1.488   .     S
C327   O421    1.313   .     A
C327   O439    1.310   .     A
C328   S446    1.784   .     S
C328   C337    1.416   .     A
C329   S447    1.765   .     S
C329   C337    1.419   .     A
C330   S448    1.762   .     S
C330   C339    1.420   .     A
C331   C338    1.483   .     S
C335   C343    1.492   .     S
C336   C342    1.481   .     S
C337   C341    1.476   .     S
C338   O438    1.294   .     A
C338   O432    1.326   .     A
C339   C340    1.485   .     S
C340   O380    1.320   .     A
C340   O440    1.299   .     A
C341   O378    1.311   .     A
C341   O379    1.304   .     A
C342   O381    1.315   .     A
C342   O384    1.303   .     A
C343   O382    1.321   .     A
C343   O383    1.306   .     A
C344   Cl345   1.766   .     S
C344   C1524   1.426   1_554 S
C344   N374    1.378   .     S
Cl348  C460    1.763   .     S
Cu353  O591    1.970   1_455 S
Cu353  O551    1.984   1_455 S
Cu353  Cu354   2.714   .     S
Cu353  N373    2.040   .     S
Cu353  O377    1.983   .     S
Cu353  O432    1.961   .     S
Cu354  O573    1.961   1_455 S
Cu354  O540    1.983   1_455 S
Cu354  N374    2.040   .     S
Cu354  O410    1.984   .     S
Cu354  O438    1.970   .     S
Cu355  O379    1.984   .     S
Cu355  N375    2.040   .     S
Cu355  Cu356   2.714   .     S
Cu355  O382    1.961   .     S
Cu356  O378    1.983   .     S
Cu356  N376    2.040   .     S
Cu356  O383    1.970   .     S
H357   O387    0.991   .     S
H358   O417    0.985   .     S
H359   O420    0.990   .     S
H360   O424    0.989   .     S
H361   O427    0.990   .     S
H362   O430    0.988   .     S
H363   O130    0.982   1_565 S
H364   O437    0.990   .     S
H365   O391    0.986   .     S
H366   O394    0.989   .     S
H367   O397    0.986   .     S
H368   O401    0.990   .     S
H369   O404    0.991   .     S
H370   O407    0.982   .     S
H371   O411    0.990   .     S
N373   C458    1.372   1_455 S
N374   C459    1.371   1_455 A
O380   Cu52    1.984   1_565 S
O381   Cu52    1.961   1_565 S
O384   Cu51    1.970   1_565 S
O385   S441    1.498   .     D
O386   S441    1.503   .     D
O387   S441    1.677   .     S
O388   Cu506   1.983   .     S
O389   S449    1.502   .     D
O390   S449    1.503   .     D
O391   S449    1.678   .     S
O392   S450    1.498   .     D
O393   S450    1.503   .     D
O394   S450    1.674   .     S
O395   S451    1.500   .     D
O396   S451    1.496   .     D
O397   S451    1.673   .     S
O398   S452    1.501   .     D
O399   Cu505   1.984   .     S
O400   S452    1.503   .     D
O401   S452    1.675   .     S
O402   S453    1.496   .     D
O403   S453    1.504   .     D
O404   S605    1.674   1_455 S
O405   S454    1.502   .     D
O406   S454    1.503   .     D
O407   S454    1.667   .     S
O408   S455    1.501   .     D
O409   S455    1.501   .     D
O411   S455    1.675   .     S
O412   S456    1.500   .     D
O413   S456    1.501   .     D
O414   S456    1.679   .     S
O414   H68     0.991   1_565 S
O415   S442    1.503   .     D
O416   S442    1.504   .     D
O417   S442    1.676   .     S
O418   S443    1.497   .     D
O419   S443    1.503   .     D
O420   S443    1.676   .     S
O421   Cu506   1.961   .     S
O422   S444    1.503   .     D
O423   S444    1.497   .     D
O424   S444    1.672   .     S
O425   S445    1.501   .     D
O426   S445    1.503   .     D
O427   S445    1.674   .     S
O428   S446    1.498   .     D
O429   S446    1.504   .     D
O430   S446    1.671   .     S
O431   S447    1.502   .     D
O433   S447    1.503   .     D
O434   S447    1.674   .     S
O435   S448    1.496   .     D
O436   S448    1.500   .     D
O437   S448    1.677   .     S
O439   Cu505   1.970   .     S
O440   Cu51    1.983   1_565 S
S453   O556    1.674   .     S
C457   O562    1.317   .     A
C457   O529    1.303   .     A
C457   C486    1.483   .     S
C458   Cl498   1.757   .     S
C458   C1067   1.419   .     S
C458   N373    1.372   1_655 S
C459   Cl499   1.742   .     S
C459   N374    1.371   1_655 A
C459   C1674   1.419   1_554 S
C460   N525    1.374   .     A
C460   C1104   1.426   .     S
C461   Cl501   1.764   .     S
C461   C1680   1.426   1_554 S
C461   N224    1.378   1_565 S
C462   Cl502   1.758   .     S
C462   N527    1.374   .     A
C462   C1071   1.421   .     S
C463   N528    1.370   .     A
C463   Cl503   1.747   .     S
C463   C1678   1.421   1_554 S
C464   Cl504   1.758   .     S
C464   C1069   1.426   .     S
C464   N223    1.373   1_565 S
C465   S593    1.781   .     S
C465   C476    1.401   .     A
C465   C484    1.407   .     A
C466   C483    1.399   .     A
C466   C477    1.396   .     A
C466   S601    1.776   .     S
C467   C474    1.410   .     A
C467   C483    1.423   .     A
C467   S602    1.789   .     S
C468   C485    1.475   .     S
C468   O540    1.312   .     A
C468   O551    1.303   .     A
C469   C484    1.411   .     A
C469   C475    1.396   .     A
C469   S603    1.777   .     S
C470   S604    1.789   .     S
C470   C486    1.411   .     A
C470   C481    1.392   .     A
C471   C485    1.415   .     A
C471   C482    1.412   .     A
C471   S605    1.783   .     S
C472   C485    1.417   .     A
C472   C478    1.386   .     A
C472   S606    1.756   .     S
C473   S607    1.772   .     S
C473   C486    1.424   .     A
C473   C480    1.410   .     A
C474   C488    1.411   .     A
C474   S608    1.791   .     S
C475   C487    1.405   .     A
C475   S594    1.772   .     S
C476   S595    1.780   .     S
C476   C487    1.421   .     A
C477   C488    1.413   .     A
C477   S596    1.780   .     S
C478   C491    1.408   .     A
C478   S597    1.783   .     S
C479   C484    1.488   .     S
C479   O573    1.313   .     A
C479   O591    1.310   .     A
C480   S598    1.784   .     S
C480   C489    1.416   .     A
C481   S599    1.765   .     S
C481   C489    1.419   .     A
C482   S600    1.762   .     S
C482   C491    1.420   .     A
C483   C490    1.483   .     S
C487   C495    1.492   .     S
C488   C494    1.481   .     S
C489   C493    1.476   .     S
C490   O590    1.294   .     A
C490   O584    1.326   .     A
C491   C492    1.485   .     S
C492   O532    1.320   .     A
C492   O592    1.299   .     A
C493   O530    1.311   .     A
C493   O531    1.304   .     A
C494   O533    1.315   .     A
C494   O536    1.303   .     A
C495   O534    1.321   .     A
C495   O535    1.306   .     A
C496   Cl497   1.766   .     S
C496   C1676   1.426   1_554 S
C496   N526    1.378   .     S
Cl500  C308    1.763   1_655 S
Cu505  Cu506   2.714   .     S
Cu505  N525    2.040   .     S
Cu505  O529    1.983   .     S
Cu505  O584    1.961   .     S
Cu506  N526    2.040   .     S
Cu506  O562    1.984   .     S
Cu506  O590    1.970   .     S
Cu507  O531    1.984   .     S
Cu507  N527    2.040   .     S
Cu507  Cu508   2.714   .     S
Cu507  O534    1.961   .     S
Cu508  O530    1.983   .     S
Cu508  N528    2.040   .     S
Cu508  O535    1.970   .     S
H509   O539    0.991   .     S
H510   O569    0.985   .     S
H511   O572    0.990   .     S
H512   O576    0.989   .     S
H513   O579    0.990   .     S
H514   O582    0.988   .     S
H515   O282    0.982   1_565 S
H516   O589    0.990   .     S
H517   O543    0.986   .     S
H518   O546    0.989   .     S
H519   O549    0.986   .     S
H520   O553    0.990   .     S
H521   O556    0.991   .     S
H522   O559    0.982   .     S
H523   O563    0.990   .     S
O532   Cu204   1.984   1_565 S
O533   Cu204   1.961   1_565 S
O536   Cu203   1.970   1_565 S
O537   S593    1.498   .     D
O538   S593    1.503   .     D
O539   S593    1.677   .     S
O540   Cu354   1.983   1_655 S
O541   S601    1.502   .     D
O542   S601    1.503   .     D
O543   S601    1.678   .     S
O544   S602    1.498   .     D
O545   S602    1.503   .     D
O546   S602    1.674   .     S
O547   S603    1.500   .     D
O548   S603    1.496   .     D
O549   S603    1.673   .     S
O550   S604    1.501   .     D
O551   Cu353   1.984   1_655 S
O552   S604    1.503   .     D
O553   S604    1.675   .     S
O554   S605    1.496   .     D
O555   S605    1.504   .     D
O557   S606    1.502   .     D
O558   S606    1.503   .     D
O559   S606    1.667   .     S
O560   S607    1.501   .     D
O561   S607    1.501   .     D
O563   S607    1.675   .     S
O564   S608    1.500   .     D
O565   S608    1.501   .     D
O566   S608    1.679   .     S
O566   H220    0.991   1_565 S
O567   S594    1.503   .     D
O568   S594    1.504   .     D
O569   S594    1.676   .     S
O570   S595    1.497   .     D
O571   S595    1.503   .     D
O572   S595    1.676   .     S
O573   Cu354   1.961   1_655 S
O574   S596    1.503   .     D
O575   S596    1.497   .     D
O576   S596    1.672   .     S
O577   S597    1.501   .     D
O578   S597    1.503   .     D
O579   S597    1.674   .     S
O580   S598    1.498   .     D
O581   S598    1.504   .     D
O582   S598    1.671   .     S
O583   S599    1.502   .     D
O585   S599    1.503   .     D
O586   S599    1.674   .     S
O587   S600    1.496   .     D
O588   S600    1.500   .     D
O589   S600    1.677   .     S
O591   Cu353   1.970   1_655 S
O592   Cu203   1.983   1_565 S
S605   O404    1.674   1_655 S
C609   O714    1.317   .     A
C609   O681    1.303   .     A
C609   C638    1.483   .     S
C610   Cl650   1.757   .     S
C610   C1219   1.419   .     S
C610   N829    1.372   .     S
C611   Cl651   1.742   .     S
C611   N830    1.371   .     A
C612   N677    1.374   .     A
C612   C1256   1.426   .     S
C612   Cl804   1.763   1_455 S
C613   Cl653   1.764   .     S
C613   N984    1.378   .     S
C614   Cl654   1.758   .     S
C614   N679    1.374   .     A
C614   C1223   1.421   .     S
C615   N680    1.370   .     A
C615   Cl655   1.747   .     S
C616   Cl656   1.758   .     S
C616   C1221   1.426   .     S
C616   N983    1.373   .     S
C617   S745    1.781   .     S
C617   C628    1.401   .     A
C617   C636    1.407   .     A
C618   C635    1.399   .     A
C618   C629    1.396   .     A
C618   S753    1.776   .     S
C619   C626    1.410   .     A
C619   C635    1.423   .     A
C619   S754    1.789   .     S
C620   C637    1.475   .     S
C620   O692    1.312   .     A
C620   O703    1.303   .     A
C621   C636    1.411   .     A
C621   C627    1.396   .     A
C621   S755    1.777   .     S
C622   S756    1.789   .     S
C622   C638    1.411   .     A
C622   C633    1.392   .     A
C623   C637    1.415   .     A
C623   C634    1.412   .     A
C623   S757    1.783   .     S
C624   C637    1.417   .     A
C624   C630    1.386   .     A
C624   S758    1.756   .     S
C625   S759    1.772   .     S
C625   C638    1.424   .     A
C625   C632    1.410   .     A
C626   C640    1.411   .     A
C626   S760    1.791   .     S
C627   C639    1.405   .     A
C627   S746    1.772   .     S
C628   S747    1.780   .     S
C628   C639    1.421   .     A
C629   C640    1.413   .     A
C629   S748    1.780   .     S
C630   C643    1.408   .     A
C630   S749    1.783   .     S
C631   C636    1.488   .     S
C631   O725    1.313   .     A
C631   O743    1.310   .     A
C632   S750    1.784   .     S
C632   C641    1.416   .     A
C633   S751    1.765   .     S
C633   C641    1.419   .     A
C634   S752    1.762   .     S
C634   C643    1.420   .     A
C635   C642    1.483   .     S
C639   C647    1.492   .     S
C640   C646    1.481   .     S
C641   C645    1.476   .     S
C642   O742    1.294   .     A
C642   O736    1.326   .     A
C643   C644    1.485   .     S
C644   O684    1.320   .     A
C644   O744    1.299   .     A
C645   O682    1.311   .     A
C645   O683    1.304   .     A
C646   O685    1.315   .     A
C646   O688    1.303   .     A
C647   O686    1.321   .     A
C647   O687    1.306   .     A
C648   Cl649   1.766   .     S
C648   N678    1.378   .     S
Cl652  C764    1.763   .     S
Cu657  O895    1.970   1_455 S
Cu657  O855    1.984   1_455 S
Cu657  Cu658   2.714   .     S
Cu657  N677    2.040   .     S
Cu657  O681    1.983   .     S
Cu657  O736    1.961   .     S
Cu658  O877    1.961   1_455 S
Cu658  O844    1.983   1_455 S
Cu658  N678    2.040   .     S
Cu658  O714    1.984   .     S
Cu658  O742    1.970   .     S
Cu659  O683    1.984   .     S
Cu659  N679    2.040   .     S
Cu659  Cu660   2.714   .     S
Cu659  O686    1.961   .     S
Cu659  O992    1.970   1_545 S
Cu659  O1048   1.983   1_545 S
Cu660  O682    1.983   .     S
Cu660  N680    2.040   .     S
Cu660  O687    1.970   .     S
Cu660  O988    1.984   1_545 S
Cu660  O989    1.961   1_545 S
H661   O691    0.991   .     S
H662   O721    0.985   .     S
H663   O724    0.990   .     S
H664   O728    0.989   .     S
H665   O731    0.990   .     S
H666   O734    0.988   .     S
H667   O1042   0.982   .     S
H668   O741    0.990   .     S
H669   O695    0.986   .     S
H670   O698    0.989   .     S
H671   O701    0.986   .     S
H672   O705    0.990   .     S
H673   O708    0.991   .     S
H674   O711    0.982   .     S
H675   O715    0.990   .     S
H676   O1022   0.991   1_545 S
N677   C762    1.372   1_455 S
N678   C763    1.371   1_455 A
N679   C920    1.373   1_545 S
N680   C917    1.378   1_545 S
O684   Cu964   1.984   .     S
O685   Cu964   1.961   .     S
O688   Cu963   1.970   .     S
O689   S745    1.498   .     D
O690   S745    1.503   .     D
O691   S745    1.677   .     S
O692   Cu810   1.983   .     S
O693   S753    1.502   .     D
O694   S753    1.503   .     D
O695   S753    1.678   .     S
O696   S754    1.498   .     D
O697   S754    1.503   .     D
O698   S754    1.674   .     S
O699   S755    1.500   .     D
O700   S755    1.496   .     D
O701   S755    1.673   .     S
O702   S756    1.501   .     D
O703   Cu809   1.984   .     S
O704   S756    1.503   .     D
O705   S756    1.675   .     S
O706   S757    1.496   .     D
O707   S757    1.504   .     D
O708   S909    1.674   1_455 S
O709   S758    1.502   .     D
O710   S758    1.503   .     D
O711   S758    1.667   .     S
O712   S759    1.501   .     D
O713   S759    1.501   .     D
O715   S759    1.675   .     S
O716   S760    1.500   .     D
O717   S760    1.501   .     D
O718   S760    1.679   .     S
O718   H980    0.991   .     S
O719   S746    1.503   .     D
O720   S746    1.504   .     D
O721   S746    1.676   .     S
O722   S747    1.497   .     D
O723   S747    1.503   .     D
O724   S747    1.676   .     S
O725   Cu810   1.961   .     S
O726   S748    1.503   .     D
O727   S748    1.497   .     D
O728   S748    1.672   .     S
O729   S749    1.501   .     D
O730   S749    1.503   .     D
O731   S749    1.674   .     S
O732   S750    1.498   .     D
O733   S750    1.504   .     D
O734   S750    1.671   .     S
O735   S751    1.502   .     D
O737   S751    1.503   .     D
O738   S751    1.674   .     S
O738   H971    0.982   1_545 S
O739   S752    1.496   .     D
O740   S752    1.500   .     D
O741   S752    1.677   .     S
O743   Cu809   1.970   .     S
O744   Cu963   1.983   .     S
S757   O860    1.674   .     S
C761   O866    1.317   .     A
C761   O833    1.303   .     A
C761   C790    1.483   .     S
C762   Cl802   1.757   .     S
C762   C1371   1.419   .     S
C762   N677    1.372   1_655 S
C763   Cl803   1.742   .     S
C763   N678    1.371   1_655 A
C764   N829    1.374   .     A
C764   C1408   1.426   .     S
C765   Cl805   1.764   .     S
C765   N1136   1.378   .     S
C766   Cl806   1.758   .     S
C766   N831    1.374   .     A
C766   C1375   1.421   .     S
C767   N832    1.370   .     A
C767   Cl807   1.747   .     S
C768   Cl808   1.758   .     S
C768   C1373   1.426   .     S
C768   N1135   1.373   .     S
C769   S897    1.781   .     S
C769   C780    1.401   .     A
C769   C788    1.407   .     A
C770   C787    1.399   .     A
C770   C781    1.396   .     A
C770   S905    1.776   .     S
C771   C778    1.410   .     A
C771   C787    1.423   .     A
C771   S906    1.789   .     S
C772   C789    1.475   .     S
C772   O844    1.312   .     A
C772   O855    1.303   .     A
C773   C788    1.411   .     A
C773   C779    1.396   .     A
C773   S907    1.777   .     S
C774   S908    1.789   .     S
C774   C790    1.411   .     A
C774   C785    1.392   .     A
C775   C789    1.415   .     A
C775   C786    1.412   .     A
C775   S909    1.783   .     S
C776   C789    1.417   .     A
C776   C782    1.386   .     A
C776   S910    1.756   .     S
C777   S911    1.772   .     S
C777   C790    1.424   .     A
C777   C784    1.410   .     A
C778   C792    1.411   .     A
C778   S912    1.791   .     S
C779   C791    1.405   .     A
C779   S898    1.772   .     S
C780   S899    1.780   .     S
C780   C791    1.421   .     A
C781   C792    1.413   .     A
C781   S900    1.780   .     S
C782   C795    1.408   .     A
C782   S901    1.783   .     S
C783   C788    1.488   .     S
C783   O877    1.313   .     A
C783   O895    1.310   .     A
C784   S902    1.784   .     S
C784   C793    1.416   .     A
C785   S903    1.765   .     S
C785   C793    1.419   .     A
C786   S904    1.762   .     S
C786   C795    1.420   .     A
C787   C794    1.483   .     S
C791   C799    1.492   .     S
C792   C798    1.481   .     S
C793   C797    1.476   .     S
C794   O894    1.294   .     A
C794   O888    1.326   .     A
C795   C796    1.485   .     S
C796   O836    1.320   .     A
C796   O896    1.299   .     A
C797   O834    1.311   .     A
C797   O835    1.304   .     A
C798   O837    1.315   .     A
C798   O840    1.303   .     A
C799   O838    1.321   .     A
C799   O839    1.306   .     A
C800   Cl801   1.766   .     S
C800   N830    1.378   .     S
Cl804  C612    1.763   1_655 S
Cu809  Cu810   2.714   .     S
Cu809  N829    2.040   .     S
Cu809  O833    1.983   .     S
Cu809  O888    1.961   .     S
Cu810  N830    2.040   .     S
Cu810  O866    1.984   .     S
Cu810  O894    1.970   .     S
Cu811  O835    1.984   .     S
Cu811  N831    2.040   .     S
Cu811  Cu812   2.714   .     S
Cu811  O838    1.961   .     S
Cu811  O1144   1.970   1_545 S
Cu811  O1200   1.983   1_545 S
Cu812  O834    1.983   .     S
Cu812  N832    2.040   .     S
Cu812  O839    1.970   .     S
Cu812  O1140   1.984   1_545 S
Cu812  O1141   1.961   1_545 S
H813   O843    0.991   .     S
H814   O873    0.985   .     S
H815   O876    0.990   .     S
H816   O880    0.989   .     S
H817   O883    0.990   .     S
H818   O886    0.988   .     S
H819   O1194   0.982   .     S
H820   O893    0.990   .     S
H821   O847    0.986   .     S
H822   O850    0.989   .     S
H823   O853    0.986   .     S
H824   O857    0.990   .     S
H825   O860    0.991   .     S
H826   O863    0.982   .     S
H827   O867    0.990   .     S
H828   O1174   0.991   1_545 S
N831   C1072   1.373   1_545 S
N832   C1069   1.378   1_545 S
O836   Cu1116  1.984   .     S
O837   Cu1116  1.961   .     S
O840   Cu1115  1.970   .     S
O841   S897    1.498   .     D
O842   S897    1.503   .     D
O843   S897    1.677   .     S
O844   Cu658   1.983   1_655 S
O845   S905    1.502   .     D
O846   S905    1.503   .     D
O847   S905    1.678   .     S
O848   S906    1.498   .     D
O849   S906    1.503   .     D
O850   S906    1.674   .     S
O851   S907    1.500   .     D
O852   S907    1.496   .     D
O853   S907    1.673   .     S
O854   S908    1.501   .     D
O855   Cu657   1.984   1_655 S
O856   S908    1.503   .     D
O857   S908    1.675   .     S
O858   S909    1.496   .     D
O859   S909    1.504   .     D
O861   S910    1.502   .     D
O862   S910    1.503   .     D
O863   S910    1.667   .     S
O864   S911    1.501   .     D
O865   S911    1.501   .     D
O867   S911    1.675   .     S
O868   S912    1.500   .     D
O869   S912    1.501   .     D
O870   S912    1.679   .     S
O870   H1132   0.991   .     S
O871   S898    1.503   .     D
O872   S898    1.504   .     D
O873   S898    1.676   .     S
O874   S899    1.497   .     D
O875   S899    1.503   .     D
O876   S899    1.676   .     S
O877   Cu658   1.961   1_655 S
O878   S900    1.503   .     D
O879   S900    1.497   .     D
O880   S900    1.672   .     S
O881   S901    1.501   .     D
O882   S901    1.503   .     D
O883   S901    1.674   .     S
O884   S902    1.498   .     D
O885   S902    1.504   .     D
O886   S902    1.671   .     S
O887   S903    1.502   .     D
O889   S903    1.503   .     D
O890   S903    1.674   .     S
O890   H1123   0.982   1_545 S
O891   S904    1.496   .     D
O892   S904    1.500   .     D
O893   S904    1.677   .     S
O895   Cu657   1.970   1_655 S
O896   Cu1115  1.983   .     S
S909   O708    1.674   1_655 S
C913   O1018   1.317   .     A
C913   O985    1.303   .     A
C913   C942    1.483   .     S
C914   Cl954   1.757   .     S
C914   C1523   1.419   .     S
C914   N1133   1.372   .     S
C915   Cl955   1.742   .     S
C915   N1134   1.371   .     A
C916   N981    1.374   .     A
C916   C1560   1.426   .     S
C916   Cl1108  1.763   1_455 S
C917   Cl957   1.764   .     S
C917   N680    1.378   1_565 S
C918   Cl958   1.758   .     S
C918   N983    1.374   .     A
C918   C1527   1.421   .     S
C919   N984    1.370   .     A
C919   Cl959   1.747   .     S
C920   Cl960   1.758   .     S
C920   C1525   1.426   .     S
C920   N679    1.373   1_565 S
C921   S1049   1.781   .     S
C921   C932    1.401   .     A
C921   C940    1.407   .     A
C922   C939    1.399   .     A
C922   C933    1.396   .     A
C922   S1057   1.776   .     S
C923   C930    1.410   .     A
C923   C939    1.423   .     A
C923   S1058   1.789   .     S
C924   C941    1.475   .     S
C924   O996    1.312   .     A
C924   O1007   1.303   .     A
C925   C940    1.411   .     A
C925   C931    1.396   .     A
C925   S1059   1.777   .     S
C926   S1060   1.789   .     S
C926   C942    1.411   .     A
C926   C937    1.392   .     A
C927   C941    1.415   .     A
C927   C938    1.412   .     A
C927   S1061   1.783   .     S
C928   C941    1.417   .     A
C928   C934    1.386   .     A
C928   S1062   1.756   .     S
C929   S1063   1.772   .     S
C929   C942    1.424   .     A
C929   C936    1.410   .     A
C930   C944    1.411   .     A
C930   S1064   1.791   .     S
C931   C943    1.405   .     A
C931   S1050   1.772   .     S
C932   S1051   1.780   .     S
C932   C943    1.421   .     A
C933   C944    1.413   .     A
C933   S1052   1.780   .     S
C934   C947    1.408   .     A
C934   S1053   1.783   .     S
C935   C940    1.488   .     S
C935   O1029   1.313   .     A
C935   O1047   1.310   .     A
C936   S1054   1.784   .     S
C936   C945    1.416   .     A
C937   S1055   1.765   .     S
C937   C945    1.419   .     A
C938   S1056   1.762   .     S
C938   C947    1.420   .     A
C939   C946    1.483   .     S
C943   C951    1.492   .     S
C944   C950    1.481   .     S
C945   C949    1.476   .     S
C946   O1046   1.294   .     A
C946   O1040   1.326   .     A
C947   C948    1.485   .     S
C948   O988    1.320   .     A
C948   O1048   1.299   .     A
C949   O986    1.311   .     A
C949   O987    1.304   .     A
C950   O989    1.315   .     A
C950   O992    1.303   .     A
C951   O990    1.321   .     A
C951   O991    1.306   .     A
C952   Cl953   1.766   .     S
C952   N982    1.378   .     S
Cl956  C1068   1.763   .     S
Cu961  O1199   1.970   1_455 S
Cu961  O1159   1.984   1_455 S
Cu961  Cu962   2.714   .     S
Cu961  N981    2.040   .     S
Cu961  O985    1.983   .     S
Cu961  O1040   1.961   .     S
Cu962  O1181   1.961   1_455 S
Cu962  O1148   1.983   1_455 S
Cu962  N982    2.040   .     S
Cu962  O1018   1.984   .     S
Cu962  O1046   1.970   .     S
Cu963  O987    1.984   .     S
Cu963  N983    2.040   .     S
Cu963  Cu964   2.714   .     S
Cu963  O990    1.961   .     S
Cu964  O986    1.983   .     S
Cu964  N984    2.040   .     S
Cu964  O991    1.970   .     S
H965   O995    0.991   .     S
H966   O1025   0.985   .     S
H967   O1028   0.990   .     S
H968   O1032   0.989   .     S
H969   O1035   0.990   .     S
H970   O1038   0.988   .     S
H971   O738    0.982   1_565 S
H972   O1045   0.990   .     S
H973   O999    0.986   .     S
H974   O1002   0.989   .     S
H975   O1005   0.986   .     S
H976   O1009   0.990   .     S
H977   O1012   0.991   .     S
H978   O1015   0.982   .     S
H979   O1019   0.990   .     S
N981   C1066   1.372   1_455 S
N982   C1067   1.371   1_455 A
O988   Cu660   1.984   1_565 S
O989   Cu660   1.961   1_565 S
O992   Cu659   1.970   1_565 S
O993   S1049   1.498   .     D
O994   S1049   1.503   .     D
O995   S1049   1.677   .     S
O996   Cu1114  1.983   .     S
O997   S1057   1.502   .     D
O998   S1057   1.503   .     D
O999   S1057   1.678   .     S
O1000  S1058   1.498   .     D
O1001  S1058   1.503   .     D
O1002  S1058   1.674   .     S
O1003  S1059   1.500   .     D
O1004  S1059   1.496   .     D
O1005  S1059   1.673   .     S
O1006  S1060   1.501   .     D
O1007  Cu1113  1.984   .     S
O1008  S1060   1.503   .     D
O1009  S1060   1.675   .     S
O1010  S1061   1.496   .     D
O1011  S1061   1.504   .     D
O1012  S1213   1.674   1_455 S
O1013  S1062   1.502   .     D
O1014  S1062   1.503   .     D
O1015  S1062   1.667   .     S
O1016  S1063   1.501   .     D
O1017  S1063   1.501   .     D
O1019  S1063   1.675   .     S
O1020  S1064   1.500   .     D
O1021  S1064   1.501   .     D
O1022  S1064   1.679   .     S
O1022  H676    0.991   1_565 S
O1023  S1050   1.503   .     D
O1024  S1050   1.504   .     D
O1025  S1050   1.676   .     S
O1026  S1051   1.497   .     D
O1027  S1051   1.503   .     D
O1028  S1051   1.676   .     S
O1029  Cu1114  1.961   .     S
O1030  S1052   1.503   .     D
O1031  S1052   1.497   .     D
O1032  S1052   1.672   .     S
O1033  S1053   1.501   .     D
O1034  S1053   1.503   .     D
O1035  S1053   1.674   .     S
O1036  S1054   1.498   .     D
O1037  S1054   1.504   .     D
O1038  S1054   1.671   .     S
O1039  S1055   1.502   .     D
O1041  S1055   1.503   .     D
O1042  S1055   1.674   .     S
O1043  S1056   1.496   .     D
O1044  S1056   1.500   .     D
O1045  S1056   1.677   .     S
O1047  Cu1113  1.970   .     S
O1048  Cu659   1.983   1_565 S
S1061  O1164   1.674   .     S
C1065  O1170   1.317   .     A
C1065  O1137   1.303   .     A
C1065  C1094   1.483   .     S
C1066  Cl1106  1.757   .     S
C1066  C1675   1.419   .     S
C1066  N981    1.372   1_655 S
C1067  Cl1107  1.742   .     S
C1067  N982    1.371   1_655 A
C1068  N1133   1.374   .     A
C1068  C1712   1.426   .     S
C1069  Cl1109  1.764   .     S
C1069  N832    1.378   1_565 S
C1070  Cl1110  1.758   .     S
C1070  N1135   1.374   .     A
C1070  C1679   1.421   .     S
C1071  N1136   1.370   .     A
C1071  Cl1111  1.747   .     S
C1072  Cl1112  1.758   .     S
C1072  C1677   1.426   .     S
C1072  N831    1.373   1_565 S
C1073  S1201   1.781   .     S
C1073  C1084   1.401   .     A
C1073  C1092   1.407   .     A
C1074  C1091   1.399   .     A
C1074  C1085   1.396   .     A
C1074  S1209   1.776   .     S
C1075  C1082   1.410   .     A
C1075  C1091   1.423   .     A
C1075  S1210   1.789   .     S
C1076  C1093   1.475   .     S
C1076  O1148   1.312   .     A
C1076  O1159   1.303   .     A
C1077  C1092   1.411   .     A
C1077  C1083   1.396   .     A
C1077  S1211   1.777   .     S
C1078  S1212   1.789   .     S
C1078  C1094   1.411   .     A
C1078  C1089   1.392   .     A
C1079  C1093   1.415   .     A
C1079  C1090   1.412   .     A
C1079  S1213   1.783   .     S
C1080  C1093   1.417   .     A
C1080  C1086   1.386   .     A
C1080  S1214   1.756   .     S
C1081  S1215   1.772   .     S
C1081  C1094   1.424   .     A
C1081  C1088   1.410   .     A
C1082  C1096   1.411   .     A
C1082  S1216   1.791   .     S
C1083  C1095   1.405   .     A
C1083  S1202   1.772   .     S
C1084  S1203   1.780   .     S
C1084  C1095   1.421   .     A
C1085  C1096   1.413   .     A
C1085  S1204   1.780   .     S
C1086  C1099   1.408   .     A
C1086  S1205   1.783   .     S
C1087  C1092   1.488   .     S
C1087  O1181   1.313   .     A
C1087  O1199   1.310   .     A
C1088  S1206   1.784   .     S
C1088  C1097   1.416   .     A
C1089  S1207   1.765   .     S
C1089  C1097   1.419   .     A
C1090  S1208   1.762   .     S
C1090  C1099   1.420   .     A
C1091  C1098   1.483   .     S
C1095  C1103   1.492   .     S
C1096  C1102   1.481   .     S
C1097  C1101   1.476   .     S
C1098  O1198   1.294   .     A
C1098  O1192   1.326   .     A
C1099  C1100   1.485   .     S
C1100  O1140   1.320   .     A
C1100  O1200   1.299   .     A
C1101  O1138   1.311   .     A
C1101  O1139   1.304   .     A
C1102  O1141   1.315   .     A
C1102  O1144   1.303   .     A
C1103  O1142   1.321   .     A
C1103  O1143   1.306   .     A
C1104  Cl1105  1.766   .     S
C1104  N1134   1.378   .     S
Cl1108 C916    1.763   1_655 S
Cu1113 Cu1114  2.714   .     S
Cu1113 N1133   2.040   .     S
Cu1113 O1137   1.983   .     S
Cu1113 O1192   1.961   .     S
Cu1114 N1134   2.040   .     S
Cu1114 O1170   1.984   .     S
Cu1114 O1198   1.970   .     S
Cu1115 O1139   1.984   .     S
Cu1115 N1135   2.040   .     S
Cu1115 Cu1116  2.714   .     S
Cu1115 O1142   1.961   .     S
Cu1116 O1138   1.983   .     S
Cu1116 N1136   2.040   .     S
Cu1116 O1143   1.970   .     S
H1117  O1147   0.991   .     S
H1118  O1177   0.985   .     S
H1119  O1180   0.990   .     S
H1120  O1184   0.989   .     S
H1121  O1187   0.990   .     S
H1122  O1190   0.988   .     S
H1123  O890    0.982   1_565 S
H1124  O1197   0.990   .     S
H1125  O1151   0.986   .     S
H1126  O1154   0.989   .     S
H1127  O1157   0.986   .     S
H1128  O1161   0.990   .     S
H1129  O1164   0.991   .     S
H1130  O1167   0.982   .     S
H1131  O1171   0.990   .     S
O1140  Cu812   1.984   1_565 S
O1141  Cu812   1.961   1_565 S
O1144  Cu811   1.970   1_565 S
O1145  S1201   1.498   .     D
O1146  S1201   1.503   .     D
O1147  S1201   1.677   .     S
O1148  Cu962   1.983   1_655 S
O1149  S1209   1.502   .     D
O1150  S1209   1.503   .     D
O1151  S1209   1.678   .     S
O1152  S1210   1.498   .     D
O1153  S1210   1.503   .     D
O1154  S1210   1.674   .     S
O1155  S1211   1.500   .     D
O1156  S1211   1.496   .     D
O1157  S1211   1.673   .     S
O1158  S1212   1.501   .     D
O1159  Cu961   1.984   1_655 S
O1160  S1212   1.503   .     D
O1161  S1212   1.675   .     S
O1162  S1213   1.496   .     D
O1163  S1213   1.504   .     D
O1165  S1214   1.502   .     D
O1166  S1214   1.503   .     D
O1167  S1214   1.667   .     S
O1168  S1215   1.501   .     D
O1169  S1215   1.501   .     D
O1171  S1215   1.675   .     S
O1172  S1216   1.500   .     D
O1173  S1216   1.501   .     D
O1174  S1216   1.679   .     S
O1174  H828    0.991   1_565 S
O1175  S1202   1.503   .     D
O1176  S1202   1.504   .     D
O1177  S1202   1.676   .     S
O1178  S1203   1.497   .     D
O1179  S1203   1.503   .     D
O1180  S1203   1.676   .     S
O1181  Cu962   1.961   1_655 S
O1182  S1204   1.503   .     D
O1183  S1204   1.497   .     D
O1184  S1204   1.672   .     S
O1185  S1205   1.501   .     D
O1186  S1205   1.503   .     D
O1187  S1205   1.674   .     S
O1188  S1206   1.498   .     D
O1189  S1206   1.504   .     D
O1190  S1206   1.671   .     S
O1191  S1207   1.502   .     D
O1193  S1207   1.503   .     D
O1194  S1207   1.674   .     S
O1195  S1208   1.496   .     D
O1196  S1208   1.500   .     D
O1197  S1208   1.677   .     S
O1199  Cu961   1.970   1_655 S
O1200  Cu811   1.983   1_565 S
S1213  O1012   1.674   1_655 S
C1217  O1322   1.317   .     A
C1217  O1289   1.303   .     A
C1217  C1246   1.483   .     S
C1218  Cl1258  1.757   .     S
C1218  C3      1.419   1_556 S
C1218  N1437   1.372   .     S
C1219  Cl1259  1.742   .     S
C1219  N1438   1.371   .     A
C1220  N1285   1.374   .     A
C1220  C40     1.426   1_556 S
C1220  Cl1412  1.763   1_455 S
C1221  Cl1261  1.764   .     S
C1221  N1592   1.378   .     S
C1222  Cl1262  1.758   .     S
C1222  N1287   1.374   .     A
C1222  C7      1.421   1_556 S
C1223  N1288   1.370   .     A
C1223  Cl1263  1.747   .     S
C1224  Cl1264  1.758   .     S
C1224  C5      1.426   1_556 S
C1224  N1591   1.373   .     S
C1225  S1353   1.781   .     S
C1225  C1236   1.401   .     A
C1225  C1244   1.407   .     A
C1226  C1243   1.399   .     A
C1226  C1237   1.396   .     A
C1226  S1361   1.776   .     S
C1227  C1234   1.410   .     A
C1227  C1243   1.423   .     A
C1227  S1362   1.789   .     S
C1228  C1245   1.475   .     S
C1228  O1300   1.312   .     A
C1228  O1311   1.303   .     A
C1229  C1244   1.411   .     A
C1229  C1235   1.396   .     A
C1229  S1363   1.777   .     S
C1230  S1364   1.789   .     S
C1230  C1246   1.411   .     A
C1230  C1241   1.392   .     A
C1231  C1245   1.415   .     A
C1231  C1242   1.412   .     A
C1231  S1365   1.783   .     S
C1232  C1245   1.417   .     A
C1232  C1238   1.386   .     A
C1232  S1366   1.756   .     S
C1233  S1367   1.772   .     S
C1233  C1246   1.424   .     A
C1233  C1240   1.410   .     A
C1234  C1248   1.411   .     A
C1234  S1368   1.791   .     S
C1235  C1247   1.405   .     A
C1235  S1354   1.772   .     S
C1236  S1355   1.780   .     S
C1236  C1247   1.421   .     A
C1237  C1248   1.413   .     A
C1237  S1356   1.780   .     S
C1238  C1251   1.408   .     A
C1238  S1357   1.783   .     S
C1239  C1244   1.488   .     S
C1239  O1333   1.313   .     A
C1239  O1351   1.310   .     A
C1240  S1358   1.784   .     S
C1240  C1249   1.416   .     A
C1241  S1359   1.765   .     S
C1241  C1249   1.419   .     A
C1242  S1360   1.762   .     S
C1242  C1251   1.420   .     A
C1243  C1250   1.483   .     S
C1247  C1255   1.492   .     S
C1248  C1254   1.481   .     S
C1249  C1253   1.476   .     S
C1250  O1350   1.294   .     A
C1250  O1344   1.326   .     A
C1251  C1252   1.485   .     S
C1252  O1292   1.320   .     A
C1252  O1352   1.299   .     A
C1253  O1290   1.311   .     A
C1253  O1291   1.304   .     A
C1254  O1293   1.315   .     A
C1254  O1296   1.303   .     A
C1255  O1294   1.321   .     A
C1255  O1295   1.306   .     A
C1256  Cl1257  1.766   .     S
C1256  N1286   1.378   .     S
Cl1260 C1372   1.763   .     S
Cu1265 O1503   1.970   1_455 S
Cu1265 O1463   1.984   1_455 S
Cu1265 Cu1266  2.714   .     S
Cu1265 N1285   2.040   .     S
Cu1265 O1289   1.983   .     S
Cu1265 O1344   1.961   .     S
Cu1266 O1485   1.961   1_455 S
Cu1266 O1452   1.983   1_455 S
Cu1266 N1286   2.040   .     S
Cu1266 O1322   1.984   .     S
Cu1266 O1350   1.970   .     S
Cu1267 O1291   1.984   .     S
Cu1267 N1287   2.040   .     S
Cu1267 Cu1268  2.714   .     S
Cu1267 O1294   1.961   .     S
Cu1267 O1600   1.970   1_545 S
Cu1267 O1656   1.983   1_545 S
Cu1268 O1290   1.983   .     S
Cu1268 N1288   2.040   .     S
Cu1268 O1295   1.970   .     S
Cu1268 O1596   1.984   1_545 S
Cu1268 O1597   1.961   1_545 S
H1269  O1299   0.991   .     S
H1270  O1329   0.985   .     S
H1271  O1332   0.990   .     S
H1272  O1336   0.989   .     S
H1273  O1339   0.990   .     S
H1274  O1342   0.988   .     S
H1275  O1650   0.982   .     S
H1276  O1349   0.990   .     S
H1277  O1303   0.986   .     S
H1278  O1306   0.989   .     S
H1279  O1309   0.986   .     S
H1280  O1313   0.990   .     S
H1281  O1316   0.991   .     S
H1282  O1319   0.982   .     S
H1283  O1323   0.990   .     S
H1284  O1630   0.991   1_545 S
N1285  C1370   1.372   1_455 S
N1286  C1371   1.371   1_455 A
N1287  C1528   1.373   1_545 S
N1288  C1525   1.378   1_545 S
O1292  Cu1572  1.984   .     S
O1293  Cu1572  1.961   .     S
O1296  Cu1571  1.970   .     S
O1297  S1353   1.498   .     D
O1298  S1353   1.503   .     D
O1299  S1353   1.677   .     S
O1300  Cu1418  1.983   .     S
O1301  S1361   1.502   .     D
O1302  S1361   1.503   .     D
O1303  S1361   1.678   .     S
O1304  S1362   1.498   .     D
O1305  S1362   1.503   .     D
O1306  S1362   1.674   .     S
O1307  S1363   1.500   .     D
O1308  S1363   1.496   .     D
O1309  S1363   1.673   .     S
O1310  S1364   1.501   .     D
O1311  Cu1417  1.984   .     S
O1312  S1364   1.503   .     D
O1313  S1364   1.675   .     S
O1314  S1365   1.496   .     D
O1315  S1365   1.504   .     D
O1316  S1517   1.674   1_455 S
O1317  S1366   1.502   .     D
O1318  S1366   1.503   .     D
O1319  S1366   1.667   .     S
O1320  S1367   1.501   .     D
O1321  S1367   1.501   .     D
O1323  S1367   1.675   .     S
O1324  S1368   1.500   .     D
O1325  S1368   1.501   .     D
O1326  S1368   1.679   .     S
O1326  H1588   0.991   .     S
O1327  S1354   1.503   .     D
O1328  S1354   1.504   .     D
O1329  S1354   1.676   .     S
O1330  S1355   1.497   .     D
O1331  S1355   1.503   .     D
O1332  S1355   1.676   .     S
O1333  Cu1418  1.961   .     S
O1334  S1356   1.503   .     D
O1335  S1356   1.497   .     D
O1336  S1356   1.672   .     S
O1337  S1357   1.501   .     D
O1338  S1357   1.503   .     D
O1339  S1357   1.674   .     S
O1340  S1358   1.498   .     D
O1341  S1358   1.504   .     D
O1342  S1358   1.671   .     S
O1343  S1359   1.502   .     D
O1345  S1359   1.503   .     D
O1346  S1359   1.674   .     S
O1346  H1579   0.982   1_545 S
O1347  S1360   1.496   .     D
O1348  S1360   1.500   .     D
O1349  S1360   1.677   .     S
O1351  Cu1417  1.970   .     S
O1352  Cu1571  1.983   .     S
S1365  O1468   1.674   .     S
C1369  O1474   1.317   .     A
C1369  O1441   1.303   .     A
C1369  C1398   1.483   .     S
C1370  Cl1410  1.757   .     S
C1370  C155    1.419   1_556 S
C1370  N1285   1.372   1_655 S
C1371  Cl1411  1.742   .     S
C1371  N1286   1.371   1_655 A
C1372  N1437   1.374   .     A
C1372  C192    1.426   1_556 S
C1373  Cl1413  1.764   .     S
C1373  N1744   1.378   .     S
C1374  Cl1414  1.758   .     S
C1374  N1439   1.374   .     A
C1374  C159    1.421   1_556 S
C1375  N1440   1.370   .     A
C1375  Cl1415  1.747   .     S
C1376  Cl1416  1.758   .     S
C1376  C157    1.426   1_556 S
C1376  N1743   1.373   .     S
C1377  S1505   1.781   .     S
C1377  C1388   1.401   .     A
C1377  C1396   1.407   .     A
C1378  C1395   1.399   .     A
C1378  C1389   1.396   .     A
C1378  S1513   1.776   .     S
C1379  C1386   1.410   .     A
C1379  C1395   1.423   .     A
C1379  S1514   1.789   .     S
C1380  C1397   1.475   .     S
C1380  O1452   1.312   .     A
C1380  O1463   1.303   .     A
C1381  C1396   1.411   .     A
C1381  C1387   1.396   .     A
C1381  S1515   1.777   .     S
C1382  S1516   1.789   .     S
C1382  C1398   1.411   .     A
C1382  C1393   1.392   .     A
C1383  C1397   1.415   .     A
C1383  C1394   1.412   .     A
C1383  S1517   1.783   .     S
C1384  C1397   1.417   .     A
C1384  C1390   1.386   .     A
C1384  S1518   1.756   .     S
C1385  S1519   1.772   .     S
C1385  C1398   1.424   .     A
C1385  C1392   1.410   .     A
C1386  C1400   1.411   .     A
C1386  S1520   1.791   .     S
C1387  C1399   1.405   .     A
C1387  S1506   1.772   .     S
C1388  S1507   1.780   .     S
C1388  C1399   1.421   .     A
C1389  C1400   1.413   .     A
C1389  S1508   1.780   .     S
C1390  C1403   1.408   .     A
C1390  S1509   1.783   .     S
C1391  C1396   1.488   .     S
C1391  O1485   1.313   .     A
C1391  O1503   1.310   .     A
C1392  S1510   1.784   .     S
C1392  C1401   1.416   .     A
C1393  S1511   1.765   .     S
C1393  C1401   1.419   .     A
C1394  S1512   1.762   .     S
C1394  C1403   1.420   .     A
C1395  C1402   1.483   .     S
C1399  C1407   1.492   .     S
C1400  C1406   1.481   .     S
C1401  C1405   1.476   .     S
C1402  O1502   1.294   .     A
C1402  O1496   1.326   .     A
C1403  C1404   1.485   .     S
C1404  O1444   1.320   .     A
C1404  O1504   1.299   .     A
C1405  O1442   1.311   .     A
C1405  O1443   1.304   .     A
C1406  O1445   1.315   .     A
C1406  O1448   1.303   .     A
C1407  O1446   1.321   .     A
C1407  O1447   1.306   .     A
C1408  Cl1409  1.766   .     S
C1408  N1438   1.378   .     S
Cl1412 C1220   1.763   1_655 S
Cu1417 Cu1418  2.714   .     S
Cu1417 N1437   2.040   .     S
Cu1417 O1441   1.983   .     S
Cu1417 O1496   1.961   .     S
Cu1418 N1438   2.040   .     S
Cu1418 O1474   1.984   .     S
Cu1418 O1502   1.970   .     S
Cu1419 O1443   1.984   .     S
Cu1419 N1439   2.040   .     S
Cu1419 Cu1420  2.714   .     S
Cu1419 O1446   1.961   .     S
Cu1419 O1752   1.970   1_545 S
Cu1419 O1808   1.983   1_545 S
Cu1420 O1442   1.983   .     S
Cu1420 N1440   2.040   .     S
Cu1420 O1447   1.970   .     S
Cu1420 O1748   1.984   1_545 S
Cu1420 O1749   1.961   1_545 S
H1421  O1451   0.991   .     S
H1422  O1481   0.985   .     S
H1423  O1484   0.990   .     S
H1424  O1488   0.989   .     S
H1425  O1491   0.990   .     S
H1426  O1494   0.988   .     S
H1427  O1802   0.982   .     S
H1428  O1501   0.990   .     S
H1429  O1455   0.986   .     S
H1430  O1458   0.989   .     S
H1431  O1461   0.986   .     S
H1432  O1465   0.990   .     S
H1433  O1468   0.991   .     S
H1434  O1471   0.982   .     S
H1435  O1475   0.990   .     S
H1436  O1782   0.991   1_545 S
N1439  C1680   1.373   1_545 S
N1440  C1677   1.378   1_545 S
O1444  Cu1724  1.984   .     S
O1445  Cu1724  1.961   .     S
O1448  Cu1723  1.970   .     S
O1449  S1505   1.498   .     D
O1450  S1505   1.503   .     D
O1451  S1505   1.677   .     S
O1452  Cu1266  1.983   1_655 S
O1453  S1513   1.502   .     D
O1454  S1513   1.503   .     D
O1455  S1513   1.678   .     S
O1456  S1514   1.498   .     D
O1457  S1514   1.503   .     D
O1458  S1514   1.674   .     S
O1459  S1515   1.500   .     D
O1460  S1515   1.496   .     D
O1461  S1515   1.673   .     S
O1462  S1516   1.501   .     D
O1463  Cu1265  1.984   1_655 S
O1464  S1516   1.503   .     D
O1465  S1516   1.675   .     S
O1466  S1517   1.496   .     D
O1467  S1517   1.504   .     D
O1469  S1518   1.502   .     D
O1470  S1518   1.503   .     D
O1471  S1518   1.667   .     S
O1472  S1519   1.501   .     D
O1473  S1519   1.501   .     D
O1475  S1519   1.675   .     S
O1476  S1520   1.500   .     D
O1477  S1520   1.501   .     D
O1478  S1520   1.679   .     S
O1478  H1740   0.991   .     S
O1479  S1506   1.503   .     D
O1480  S1506   1.504   .     D
O1481  S1506   1.676   .     S
O1482  S1507   1.497   .     D
O1483  S1507   1.503   .     D
O1484  S1507   1.676   .     S
O1485  Cu1266  1.961   1_655 S
O1486  S1508   1.503   .     D
O1487  S1508   1.497   .     D
O1488  S1508   1.672   .     S
O1489  S1509   1.501   .     D
O1490  S1509   1.503   .     D
O1491  S1509   1.674   .     S
O1492  S1510   1.498   .     D
O1493  S1510   1.504   .     D
O1494  S1510   1.671   .     S
O1495  S1511   1.502   .     D
O1497  S1511   1.503   .     D
O1498  S1511   1.674   .     S
O1498  H1731   0.982   1_545 S
O1499  S1512   1.496   .     D
O1500  S1512   1.500   .     D
O1501  S1512   1.677   .     S
O1503  Cu1265  1.970   1_655 S
O1504  Cu1723  1.983   .     S
S1517  O1316   1.674   1_655 S
C1521  O1626   1.317   .     A
C1521  O1593   1.303   .     A
C1521  C1550   1.483   .     S
C1522  Cl1562  1.757   .     S
C1522  C307    1.419   1_556 S
C1522  N1741   1.372   .     S
C1523  Cl1563  1.742   .     S
C1523  N1742   1.371   .     A
C1524  N1589   1.374   .     A
C1524  C344    1.426   1_556 S
C1524  Cl1716  1.763   1_455 S
C1525  Cl1565  1.764   .     S
C1525  N1288   1.378   1_565 S
C1526  Cl1566  1.758   .     S
C1526  N1591   1.374   .     A
C1526  C311    1.421   1_556 S
C1527  N1592   1.370   .     A
C1527  Cl1567  1.747   .     S
C1528  Cl1568  1.758   .     S
C1528  C309    1.426   1_556 S
C1528  N1287   1.373   1_565 S
C1529  S1657   1.781   .     S
C1529  C1540   1.401   .     A
C1529  C1548   1.407   .     A
C1530  C1547   1.399   .     A
C1530  C1541   1.396   .     A
C1530  S1665   1.776   .     S
C1531  C1538   1.410   .     A
C1531  C1547   1.423   .     A
C1531  S1666   1.789   .     S
C1532  C1549   1.475   .     S
C1532  O1604   1.312   .     A
C1532  O1615   1.303   .     A
C1533  C1548   1.411   .     A
C1533  C1539   1.396   .     A
C1533  S1667   1.777   .     S
C1534  S1668   1.789   .     S
C1534  C1550   1.411   .     A
C1534  C1545   1.392   .     A
C1535  C1549   1.415   .     A
C1535  C1546   1.412   .     A
C1535  S1669   1.783   .     S
C1536  C1549   1.417   .     A
C1536  C1542   1.386   .     A
C1536  S1670   1.756   .     S
C1537  S1671   1.772   .     S
C1537  C1550   1.424   .     A
C1537  C1544   1.410   .     A
C1538  C1552   1.411   .     A
C1538  S1672   1.791   .     S
C1539  C1551   1.405   .     A
C1539  S1658   1.772   .     S
C1540  S1659   1.780   .     S
C1540  C1551   1.421   .     A
C1541  C1552   1.413   .     A
C1541  S1660   1.780   .     S
C1542  C1555   1.408   .     A
C1542  S1661   1.783   .     S
C1543  C1548   1.488   .     S
C1543  O1637   1.313   .     A
C1543  O1655   1.310   .     A
C1544  S1662   1.784   .     S
C1544  C1553   1.416   .     A
C1545  S1663   1.765   .     S
C1545  C1553   1.419   .     A
C1546  S1664   1.762   .     S
C1546  C1555   1.420   .     A
C1547  C1554   1.483   .     S
C1551  C1559   1.492   .     S
C1552  C1558   1.481   .     S
C1553  C1557   1.476   .     S
C1554  O1654   1.294   .     A
C1554  O1648   1.326   .     A
C1555  C1556   1.485   .     S
C1556  O1596   1.320   .     A
C1556  O1656   1.299   .     A
C1557  O1594   1.311   .     A
C1557  O1595   1.304   .     A
C1558  O1597   1.315   .     A
C1558  O1600   1.303   .     A
C1559  O1598   1.321   .     A
C1559  O1599   1.306   .     A
C1560  Cl1561  1.766   .     S
C1560  N1590   1.378   .     S
Cl1564 C1676   1.763   .     S
Cu1569 O1807   1.970   1_455 S
Cu1569 O1767   1.984   1_455 S
Cu1569 Cu1570  2.714   .     S
Cu1569 N1589   2.040   .     S
Cu1569 O1593   1.983   .     S
Cu1569 O1648   1.961   .     S
Cu1570 O1789   1.961   1_455 S
Cu1570 O1756   1.983   1_455 S
Cu1570 N1590   2.040   .     S
Cu1570 O1626   1.984   .     S
Cu1570 O1654   1.970   .     S
Cu1571 O1595   1.984   .     S
Cu1571 N1591   2.040   .     S
Cu1571 Cu1572  2.714   .     S
Cu1571 O1598   1.961   .     S
Cu1572 O1594   1.983   .     S
Cu1572 N1592   2.040   .     S
Cu1572 O1599   1.970   .     S
H1573  O1603   0.991   .     S
H1574  O1633   0.985   .     S
H1575  O1636   0.990   .     S
H1576  O1640   0.989   .     S
H1577  O1643   0.990   .     S
H1578  O1646   0.988   .     S
H1579  O1346   0.982   1_565 S
H1580  O1653   0.990   .     S
H1581  O1607   0.986   .     S
H1582  O1610   0.989   .     S
H1583  O1613   0.986   .     S
H1584  O1617   0.990   .     S
H1585  O1620   0.991   .     S
H1586  O1623   0.982   .     S
H1587  O1627   0.990   .     S
N1589  C1674   1.372   1_455 S
N1590  C1675   1.371   1_455 A
O1596  Cu1268  1.984   1_565 S
O1597  Cu1268  1.961   1_565 S
O1600  Cu1267  1.970   1_565 S
O1601  S1657   1.498   .     D
O1602  S1657   1.503   .     D
O1603  S1657   1.677   .     S
O1604  Cu1722  1.983   .     S
O1605  S1665   1.502   .     D
O1606  S1665   1.503   .     D
O1607  S1665   1.678   .     S
O1608  S1666   1.498   .     D
O1609  S1666   1.503   .     D
O1610  S1666   1.674   .     S
O1611  S1667   1.500   .     D
O1612  S1667   1.496   .     D
O1613  S1667   1.673   .     S
O1614  S1668   1.501   .     D
O1615  Cu1721  1.984   .     S
O1616  S1668   1.503   .     D
O1617  S1668   1.675   .     S
O1618  S1669   1.496   .     D
O1619  S1669   1.504   .     D
O1620  S1821   1.674   1_455 S
O1621  S1670   1.502   .     D
O1622  S1670   1.503   .     D
O1623  S1670   1.667   .     S
O1624  S1671   1.501   .     D
O1625  S1671   1.501   .     D
O1627  S1671   1.675   .     S
O1628  S1672   1.500   .     D
O1629  S1672   1.501   .     D
O1630  S1672   1.679   .     S
O1630  H1284   0.991   1_565 S
O1631  S1658   1.503   .     D
O1632  S1658   1.504   .     D
O1633  S1658   1.676   .     S
O1634  S1659   1.497   .     D
O1635  S1659   1.503   .     D
O1636  S1659   1.676   .     S
O1637  Cu1722  1.961   .     S
O1638  S1660   1.503   .     D
O1639  S1660   1.497   .     D
O1640  S1660   1.672   .     S
O1641  S1661   1.501   .     D
O1642  S1661   1.503   .     D
O1643  S1661   1.674   .     S
O1644  S1662   1.498   .     D
O1645  S1662   1.504   .     D
O1646  S1662   1.671   .     S
O1647  S1663   1.502   .     D
O1649  S1663   1.503   .     D
O1650  S1663   1.674   .     S
O1651  S1664   1.496   .     D
O1652  S1664   1.500   .     D
O1653  S1664   1.677   .     S
O1655  Cu1721  1.970   .     S
O1656  Cu1267  1.983   1_565 S
S1669  O1772   1.674   .     S
C1673  O1778   1.317   .     A
C1673  O1745   1.303   .     A
C1673  C1702   1.483   .     S
C1674  Cl1714  1.757   .     S
C1674  C459    1.419   1_556 S
C1674  N1589   1.372   1_655 S
C1675  Cl1715  1.742   .     S
C1675  N1590   1.371   1_655 A
C1676  N1741   1.374   .     A
C1676  C496    1.426   1_556 S
C1677  Cl1717  1.764   .     S
C1677  N1440   1.378   1_565 S
C1678  Cl1718  1.758   .     S
C1678  N1743   1.374   .     A
C1678  C463    1.421   1_556 S
C1679  N1744   1.370   .     A
C1679  Cl1719  1.747   .     S
C1680  Cl1720  1.758   .     S
C1680  C461    1.426   1_556 S
C1680  N1439   1.373   1_565 S
C1681  S1809   1.781   .     S
C1681  C1692   1.401   .     A
C1681  C1700   1.407   .     A
C1682  C1699   1.399   .     A
C1682  C1693   1.396   .     A
C1682  S1817   1.776   .     S
C1683  C1690   1.410   .     A
C1683  C1699   1.423   .     A
C1683  S1818   1.789   .     S
C1684  C1701   1.475   .     S
C1684  O1756   1.312   .     A
C1684  O1767   1.303   .     A
C1685  C1700   1.411   .     A
C1685  C1691   1.396   .     A
C1685  S1819   1.777   .     S
C1686  S1820   1.789   .     S
C1686  C1702   1.411   .     A
C1686  C1697   1.392   .     A
C1687  C1701   1.415   .     A
C1687  C1698   1.412   .     A
C1687  S1821   1.783   .     S
C1688  C1701   1.417   .     A
C1688  C1694   1.386   .     A
C1688  S1822   1.756   .     S
C1689  S1823   1.772   .     S
C1689  C1702   1.424   .     A
C1689  C1696   1.410   .     A
C1690  C1704   1.411   .     A
C1690  S1824   1.791   .     S
C1691  C1703   1.405   .     A
C1691  S1810   1.772   .     S
C1692  S1811   1.780   .     S
C1692  C1703   1.421   .     A
C1693  C1704   1.413   .     A
C1693  S1812   1.780   .     S
C1694  C1707   1.408   .     A
C1694  S1813   1.783   .     S
C1695  C1700   1.488   .     S
C1695  O1789   1.313   .     A
C1695  O1807   1.310   .     A
C1696  S1814   1.784   .     S
C1696  C1705   1.416   .     A
C1697  S1815   1.765   .     S
C1697  C1705   1.419   .     A
C1698  S1816   1.762   .     S
C1698  C1707   1.420   .     A
C1699  C1706   1.483   .     S
C1703  C1711   1.492   .     S
C1704  C1710   1.481   .     S
C1705  C1709   1.476   .     S
C1706  O1806   1.294   .     A
C1706  O1800   1.326   .     A
C1707  C1708   1.485   .     S
C1708  O1748   1.320   .     A
C1708  O1808   1.299   .     A
C1709  O1746   1.311   .     A
C1709  O1747   1.304   .     A
C1710  O1749   1.315   .     A
C1710  O1752   1.303   .     A
C1711  O1750   1.321   .     A
C1711  O1751   1.306   .     A
C1712  Cl1713  1.766   .     S
C1712  N1742   1.378   .     S
Cl1716 C1524   1.763   1_655 S
Cu1721 Cu1722  2.714   .     S
Cu1721 N1741   2.040   .     S
Cu1721 O1745   1.983   .     S
Cu1721 O1800   1.961   .     S
Cu1722 N1742   2.040   .     S
Cu1722 O1778   1.984   .     S
Cu1722 O1806   1.970   .     S
Cu1723 O1747   1.984   .     S
Cu1723 N1743   2.040   .     S
Cu1723 Cu1724  2.714   .     S
Cu1723 O1750   1.961   .     S
Cu1724 O1746   1.983   .     S
Cu1724 N1744   2.040   .     S
Cu1724 O1751   1.970   .     S
H1725  O1755   0.991   .     S
H1726  O1785   0.985   .     S
H1727  O1788   0.990   .     S
H1728  O1792   0.989   .     S
H1729  O1795   0.990   .     S
H1730  O1798   0.988   .     S
H1731  O1498   0.982   1_565 S
H1732  O1805   0.990   .     S
H1733  O1759   0.986   .     S
H1734  O1762   0.989   .     S
H1735  O1765   0.986   .     S
H1736  O1769   0.990   .     S
H1737  O1772   0.991   .     S
H1738  O1775   0.982   .     S
H1739  O1779   0.990   .     S
O1748  Cu1420  1.984   1_565 S
O1749  Cu1420  1.961   1_565 S
O1752  Cu1419  1.970   1_565 S
O1753  S1809   1.498   .     D
O1754  S1809   1.503   .     D
O1755  S1809   1.677   .     S
O1756  Cu1570  1.983   1_655 S
O1757  S1817   1.502   .     D
O1758  S1817   1.503   .     D
O1759  S1817   1.678   .     S
O1760  S1818   1.498   .     D
O1761  S1818   1.503   .     D
O1762  S1818   1.674   .     S
O1763  S1819   1.500   .     D
O1764  S1819   1.496   .     D
O1765  S1819   1.673   .     S
O1766  S1820   1.501   .     D
O1767  Cu1569  1.984   1_655 S
O1768  S1820   1.503   .     D
O1769  S1820   1.675   .     S
O1770  S1821   1.496   .     D
O1771  S1821   1.504   .     D
O1773  S1822   1.502   .     D
O1774  S1822   1.503   .     D
O1775  S1822   1.667   .     S
O1776  S1823   1.501   .     D
O1777  S1823   1.501   .     D
O1779  S1823   1.675   .     S
O1780  S1824   1.500   .     D
O1781  S1824   1.501   .     D
O1782  S1824   1.679   .     S
O1782  H1436   0.991   1_565 S
O1783  S1810   1.503   .     D
O1784  S1810   1.504   .     D
O1785  S1810   1.676   .     S
O1786  S1811   1.497   .     D
O1787  S1811   1.503   .     D
O1788  S1811   1.676   .     S
O1789  Cu1570  1.961   1_655 S
O1790  S1812   1.503   .     D
O1791  S1812   1.497   .     D
O1792  S1812   1.672   .     S
O1793  S1813   1.501   .     D
O1794  S1813   1.503   .     D
O1795  S1813   1.674   .     S
O1796  S1814   1.498   .     D
O1797  S1814   1.504   .     D
O1798  S1814   1.671   .     S
O1799  S1815   1.502   .     D
O1801  S1815   1.503   .     D
O1802  S1815   1.674   .     S
O1803  S1816   1.496   .     D
O1804  S1816   1.500   .     D
O1805  S1816   1.677   .     S
O1807  Cu1569  1.970   1_655 S
O1808  Cu1419  1.983   1_565 S
S1821  O1620   1.674   1_655 S
