data_str_m2_o10_o16_pcu_sym.179
_audit_creation_date              2020-01-03
_audit_creation_method            'Materials Studio'
_symmetry_space_group_name_H-M    'P1'
_symmetry_Int_Tables_number       1
_symmetry_cell_setting            triclinic
loop_
_symmetry_equiv_pos_as_xyz
  x,y,z
_cell_length_a                    22.2926
_cell_length_b                    26.0687
_cell_length_c                    26.7043
_cell_angle_alpha                 93.9460
_cell_angle_beta                  77.2939
_cell_angle_gamma                 103.1447
loop_
_atom_site_label
_atom_site_type_symbol
_atom_site_fract_x
_atom_site_fract_y
_atom_site_fract_z
_atom_site_U_iso_or_equiv
_atom_site_adp_type
_atom_site_occupancy
C1     C     0.18181   0.26674   0.25143   0.00000  Uiso   1.00
C2     C     0.14085   0.16866   0.48770   0.00000  Uiso   1.00
C3     C     0.15630   0.18474   0.43599   0.00000  Uiso   1.00
C4     C     0.18887   0.17864   0.01685   0.00000  Uiso   1.00
C5     C     0.24542   0.21621   0.49853   0.00000  Uiso   1.00
C6     C     0.25693   0.23708   0.44980   0.00000  Uiso   1.00
C7     C     0.21371   0.22084   0.41855   0.00000  Uiso   1.00
C8     C     0.18310   0.15331   0.06368   0.00000  Uiso   1.00
C9     C     0.27614   0.21646   0.07976   0.00000  Uiso   1.00
C10    C     0.11261   0.16590   0.40385   0.00000  Uiso   1.00
C11    C     0.19036   0.32270   0.25206   0.00000  Uiso   1.00
C12    C     0.13314   0.16604   0.34737   0.00000  Uiso   1.00
C13    C     0.14316   0.01064   0.24743   0.00000  Uiso   1.00
C14    C     0.15161   0.06660   0.24836   0.00000  Uiso   1.00
C15    C     0.20057   0.16982   0.15289   0.00000  Uiso   1.00
C16    C     0.28934   0.23362   0.02965   0.00000  Uiso   1.00
C17    C     0.22193   0.17792   0.09760   0.00000  Uiso   1.00
C18    C     0.05023   0.14200   0.42613   0.00000  Uiso   1.00
C19    C     0.03215   0.13474   0.47889   0.00000  Uiso   1.00
C20    C     0.07690   0.14746   0.00945   0.00000  Uiso   1.00
Cu21   Cu    0.10710   0.16105   0.24435   0.00000  Uiso   1.00
Cu22   Cu    0.22623   0.17228   0.25564   0.00000  Uiso   1.00
H23    H     0.30728   0.23448   0.10507   0.00000  Uiso   1.00
H24    H     0.09768   0.32018   0.24302   0.00000  Uiso   1.00
H25    H     0.00359   0.20591   0.28974   0.00000  Uiso   1.00
H26    H     0.32974   0.12742   0.21027   0.00000  Uiso   1.00
H27    H     0.29972   0.26603   0.43566   0.00000  Uiso   1.00
H28    H     0.33206   0.26292   0.01626   0.00000  Uiso   1.00
H29    H     0.01549   0.12850   0.40272   0.00000  Uiso   1.00
H30    H     0.06067   0.14186   0.05034   0.00000  Uiso   1.00
H31    H     0.31683   0.11791   0.49602   0.00000  Uiso   1.00
H32    H     0.22431   0.23957   0.38181   0.00000  Uiso   1.00
H33    H     0.23586   0.01316   0.25644   0.00000  Uiso   1.00
N34    N     0.31574   0.18074   0.26416   0.00000  Uiso   1.00
N35    N     0.01759   0.15259   0.23584   0.00000  Uiso   1.00
O36    O     0.12797   0.23807   0.24633   0.00000  Uiso   1.00
O37    O     0.22858   0.24755   0.25586   0.00000  Uiso   1.00
O38    O     0.09181   0.15960   0.31839   0.00000  Uiso   1.00
O39    O     0.19242   0.16908   0.32793   0.00000  Uiso   1.00
O40    O     0.10476   0.08578   0.24413   0.00000  Uiso   1.00
O41    O     0.20536   0.09526   0.25367   0.00000  Uiso   1.00
O42    O     0.14092   0.16425   0.17207   0.00000  Uiso   1.00
O43    O     0.24152   0.17373   0.18160   0.00000  Uiso   1.00
C44    C     0.14384   0.09735   0.07444   0.00000  Uiso   1.00
C45    C     0.18310   0.05956   0.08466   0.00000  Uiso   1.00
H46    H     0.22456   0.06034   0.05261   0.00000  Uiso   1.00
H47    H     0.19938   0.06976   0.12118   0.00000  Uiso   1.00
H48    H     0.15391   0.01879   0.08771   0.00000  Uiso   1.00
H49    H     0.10369   0.09740   0.10745   0.00000  Uiso   1.00
H50    H     0.12437   0.07991   0.04080   0.00000  Uiso   1.00
C51    C     0.51514   0.26674   0.25143   0.00000  Uiso   1.00
C52    C     0.47418   0.16866   0.48770   0.00000  Uiso   1.00
C53    C     0.48963   0.18474   0.43599   0.00000  Uiso   1.00
C54    C     0.52220   0.17864   0.01685   0.00000  Uiso   1.00
C55    C     0.57876   0.21621   0.49853   0.00000  Uiso   1.00
C56    C     0.59027   0.23708   0.44980   0.00000  Uiso   1.00
C57    C     0.54704   0.22084   0.41855   0.00000  Uiso   1.00
C58    C     0.51643   0.15331   0.06368   0.00000  Uiso   1.00
C59    C     0.60947   0.21646   0.07976   0.00000  Uiso   1.00
C60    C     0.44595   0.16590   0.40385   0.00000  Uiso   1.00
C61    C     0.52370   0.32270   0.25206   0.00000  Uiso   1.00
C62    C     0.46647   0.16604   0.34737   0.00000  Uiso   1.00
C63    C     0.47650   0.01064   0.24743   0.00000  Uiso   1.00
C64    C     0.48494   0.06660   0.24836   0.00000  Uiso   1.00
C65    C     0.53391   0.16982   0.15289   0.00000  Uiso   1.00
C66    C     0.62268   0.23362   0.02965   0.00000  Uiso   1.00
C67    C     0.55526   0.17792   0.09760   0.00000  Uiso   1.00
C68    C     0.38357   0.14200   0.42613   0.00000  Uiso   1.00
C69    C     0.36548   0.13474   0.47889   0.00000  Uiso   1.00
C70    C     0.41024   0.14746   0.00945   0.00000  Uiso   1.00
Cu71   Cu    0.44043   0.16105   0.24435   0.00000  Uiso   1.00
Cu72   Cu    0.55957   0.17228   0.25564   0.00000  Uiso   1.00
H73    H     0.64061   0.23448   0.10507   0.00000  Uiso   1.00
H74    H     0.43102   0.32018   0.24302   0.00000  Uiso   1.00
H75    H     0.33692   0.20591   0.28974   0.00000  Uiso   1.00
H76    H     0.66307   0.12742   0.21027   0.00000  Uiso   1.00
H77    H     0.63306   0.26603   0.43566   0.00000  Uiso   1.00
H78    H     0.66539   0.26292   0.01626   0.00000  Uiso   1.00
H79    H     0.34882   0.12850   0.40272   0.00000  Uiso   1.00
H80    H     0.39401   0.14186   0.05034   0.00000  Uiso   1.00
H81    H     0.65017   0.11791   0.49602   0.00000  Uiso   1.00
H82    H     0.55764   0.23957   0.38181   0.00000  Uiso   1.00
H83    H     0.56919   0.01316   0.25644   0.00000  Uiso   1.00
N84    N     0.64908   0.18074   0.26416   0.00000  Uiso   1.00
N85    N     0.35092   0.15259   0.23584   0.00000  Uiso   1.00
O86    O     0.46131   0.23807   0.24633   0.00000  Uiso   1.00
O87    O     0.56191   0.24755   0.25586   0.00000  Uiso   1.00
O88    O     0.42515   0.15960   0.31839   0.00000  Uiso   1.00
O89    O     0.52575   0.16908   0.32793   0.00000  Uiso   1.00
O90    O     0.43809   0.08578   0.24413   0.00000  Uiso   1.00
O91    O     0.53869   0.09526   0.25367   0.00000  Uiso   1.00
O92    O     0.47425   0.16425   0.17207   0.00000  Uiso   1.00
O93    O     0.57485   0.17373   0.18160   0.00000  Uiso   1.00
C94    C     0.47717   0.09735   0.07444   0.00000  Uiso   1.00
C95    C     0.51644   0.05956   0.08466   0.00000  Uiso   1.00
H96    H     0.55789   0.06034   0.05261   0.00000  Uiso   1.00
H97    H     0.53271   0.06976   0.12118   0.00000  Uiso   1.00
H98    H     0.48724   0.01879   0.08771   0.00000  Uiso   1.00
H99    H     0.43703   0.09740   0.10745   0.00000  Uiso   1.00
H100   H     0.45770   0.07991   0.04080   0.00000  Uiso   1.00
C101   C     0.84847   0.26674   0.25143   0.00000  Uiso   1.00
C102   C     0.80752   0.16866   0.48770   0.00000  Uiso   1.00
C103   C     0.82297   0.18474   0.43599   0.00000  Uiso   1.00
C104   C     0.85553   0.17864   0.01685   0.00000  Uiso   1.00
C105   C     0.91209   0.21621   0.49853   0.00000  Uiso   1.00
C106   C     0.92360   0.23708   0.44980   0.00000  Uiso   1.00
C107   C     0.88038   0.22084   0.41855   0.00000  Uiso   1.00
C108   C     0.84976   0.15331   0.06368   0.00000  Uiso   1.00
C109   C     0.94280   0.21646   0.07976   0.00000  Uiso   1.00
C110   C     0.77928   0.16590   0.40385   0.00000  Uiso   1.00
C111   C     0.85703   0.32270   0.25206   0.00000  Uiso   1.00
C112   C     0.79981   0.16604   0.34737   0.00000  Uiso   1.00
C113   C     0.80983   0.01064   0.24743   0.00000  Uiso   1.00
C114   C     0.81827   0.06660   0.24836   0.00000  Uiso   1.00
C115   C     0.86724   0.16982   0.15289   0.00000  Uiso   1.00
C116   C     0.95601   0.23362   0.02965   0.00000  Uiso   1.00
C117   C     0.88859   0.17792   0.09760   0.00000  Uiso   1.00
C118   C     0.71690   0.14200   0.42613   0.00000  Uiso   1.00
C119   C     0.69882   0.13474   0.47889   0.00000  Uiso   1.00
C120   C     0.74357   0.14746   0.00945   0.00000  Uiso   1.00
Cu121  Cu    0.77377   0.16105   0.24435   0.00000  Uiso   1.00
Cu122  Cu    0.89290   0.17228   0.25564   0.00000  Uiso   1.00
H123   H     0.97395   0.23448   0.10507   0.00000  Uiso   1.00
H124   H     0.76435   0.32018   0.24302   0.00000  Uiso   1.00
H125   H     0.67025   0.20591   0.28974   0.00000  Uiso   1.00
H126   H     0.99640   0.12742   0.21027   0.00000  Uiso   1.00
H127   H     0.96639   0.26603   0.43566   0.00000  Uiso   1.00
H128   H     0.99872   0.26292   0.01626   0.00000  Uiso   1.00
H129   H     0.68216   0.12850   0.40272   0.00000  Uiso   1.00
H130   H     0.72734   0.14186   0.05034   0.00000  Uiso   1.00
H131   H     0.98350   0.11791   0.49602   0.00000  Uiso   1.00
H132   H     0.89097   0.23957   0.38181   0.00000  Uiso   1.00
H133   H     0.90252   0.01316   0.25644   0.00000  Uiso   1.00
N134   N     0.98241   0.18074   0.26416   0.00000  Uiso   1.00
N135   N     0.68426   0.15259   0.23584   0.00000  Uiso   1.00
O136   O     0.79464   0.23807   0.24633   0.00000  Uiso   1.00
O137   O     0.89524   0.24755   0.25586   0.00000  Uiso   1.00
O138   O     0.75848   0.15960   0.31839   0.00000  Uiso   1.00
O139   O     0.85908   0.16908   0.32793   0.00000  Uiso   1.00
O140   O     0.77142   0.08578   0.24413   0.00000  Uiso   1.00
O141   O     0.87203   0.09526   0.25367   0.00000  Uiso   1.00
O142   O     0.80758   0.16425   0.17207   0.00000  Uiso   1.00
O143   O     0.90819   0.17373   0.18160   0.00000  Uiso   1.00
C144   C     0.81051   0.09735   0.07444   0.00000  Uiso   1.00
C145   C     0.84977   0.05956   0.08466   0.00000  Uiso   1.00
H146   H     0.89123   0.06034   0.05261   0.00000  Uiso   1.00
H147   H     0.86605   0.06976   0.12118   0.00000  Uiso   1.00
H148   H     0.82058   0.01879   0.08771   0.00000  Uiso   1.00
H149   H     0.77036   0.09740   0.10745   0.00000  Uiso   1.00
H150   H     0.79103   0.07991   0.04080   0.00000  Uiso   1.00
C151   C     0.18181   0.60007   0.25143   0.00000  Uiso   1.00
C152   C     0.14085   0.50200   0.48770   0.00000  Uiso   1.00
C153   C     0.15630   0.51807   0.43599   0.00000  Uiso   1.00
C154   C     0.18887   0.51197   0.01685   0.00000  Uiso   1.00
C155   C     0.24542   0.54955   0.49853   0.00000  Uiso   1.00
C156   C     0.25693   0.57041   0.44980   0.00000  Uiso   1.00
C157   C     0.21371   0.55418   0.41855   0.00000  Uiso   1.00
C158   C     0.18310   0.48665   0.06368   0.00000  Uiso   1.00
C159   C     0.27614   0.54979   0.07976   0.00000  Uiso   1.00
C160   C     0.11261   0.49924   0.40385   0.00000  Uiso   1.00
C161   C     0.19036   0.65603   0.25206   0.00000  Uiso   1.00
C162   C     0.13314   0.49937   0.34737   0.00000  Uiso   1.00
C163   C     0.14316   0.34398   0.24743   0.00000  Uiso   1.00
C164   C     0.15161   0.39994   0.24836   0.00000  Uiso   1.00
C165   C     0.20057   0.50315   0.15289   0.00000  Uiso   1.00
C166   C     0.28934   0.56695   0.02965   0.00000  Uiso   1.00
C167   C     0.22193   0.51125   0.09760   0.00000  Uiso   1.00
C168   C     0.05023   0.47534   0.42613   0.00000  Uiso   1.00
C169   C     0.03215   0.46807   0.47889   0.00000  Uiso   1.00
C170   C     0.07690   0.48079   0.00945   0.00000  Uiso   1.00
Cu171  Cu    0.10710   0.49439   0.24435   0.00000  Uiso   1.00
Cu172  Cu    0.22623   0.50561   0.25564   0.00000  Uiso   1.00
H173   H     0.30728   0.56781   0.10507   0.00000  Uiso   1.00
H174   H     0.09768   0.65351   0.24302   0.00000  Uiso   1.00
H175   H     0.00359   0.53924   0.28974   0.00000  Uiso   1.00
H176   H     0.32974   0.46075   0.21027   0.00000  Uiso   1.00
H177   H     0.29972   0.59937   0.43566   0.00000  Uiso   1.00
H178   H     0.33206   0.59625   0.01626   0.00000  Uiso   1.00
H179   H     0.01549   0.46184   0.40272   0.00000  Uiso   1.00
H180   H     0.06067   0.47519   0.05034   0.00000  Uiso   1.00
H181   H     0.31683   0.45125   0.49602   0.00000  Uiso   1.00
H182   H     0.22431   0.57291   0.38181   0.00000  Uiso   1.00
H183   H     0.23586   0.34650   0.25644   0.00000  Uiso   1.00
N184   N     0.31574   0.51407   0.26416   0.00000  Uiso   1.00
N185   N     0.01759   0.48593   0.23584   0.00000  Uiso   1.00
O186   O     0.12797   0.57141   0.24633   0.00000  Uiso   1.00
O187   O     0.22858   0.58089   0.25586   0.00000  Uiso   1.00
O188   O     0.09181   0.49293   0.31839   0.00000  Uiso   1.00
O189   O     0.19242   0.50241   0.32793   0.00000  Uiso   1.00
O190   O     0.10476   0.41911   0.24413   0.00000  Uiso   1.00
O191   O     0.20536   0.42859   0.25367   0.00000  Uiso   1.00
O192   O     0.14092   0.49759   0.17207   0.00000  Uiso   1.00
O193   O     0.24152   0.50707   0.18160   0.00000  Uiso   1.00
C194   C     0.14384   0.43069   0.07444   0.00000  Uiso   1.00
C195   C     0.18310   0.39289   0.08466   0.00000  Uiso   1.00
H196   H     0.22456   0.39367   0.05261   0.00000  Uiso   1.00
H197   H     0.19938   0.40309   0.12118   0.00000  Uiso   1.00
H198   H     0.15391   0.35212   0.08771   0.00000  Uiso   1.00
H199   H     0.10369   0.43073   0.10745   0.00000  Uiso   1.00
H200   H     0.12437   0.41324   0.04080   0.00000  Uiso   1.00
C201   C     0.51514   0.60007   0.25143   0.00000  Uiso   1.00
C202   C     0.47418   0.50200   0.48770   0.00000  Uiso   1.00
C203   C     0.48963   0.51807   0.43599   0.00000  Uiso   1.00
C204   C     0.52220   0.51197   0.01685   0.00000  Uiso   1.00
C205   C     0.57876   0.54955   0.49853   0.00000  Uiso   1.00
C206   C     0.59027   0.57041   0.44980   0.00000  Uiso   1.00
C207   C     0.54704   0.55418   0.41855   0.00000  Uiso   1.00
C208   C     0.51643   0.48665   0.06368   0.00000  Uiso   1.00
C209   C     0.60947   0.54979   0.07976   0.00000  Uiso   1.00
C210   C     0.44595   0.49924   0.40385   0.00000  Uiso   1.00
C211   C     0.52370   0.65603   0.25206   0.00000  Uiso   1.00
C212   C     0.46647   0.49937   0.34737   0.00000  Uiso   1.00
C213   C     0.47650   0.34398   0.24743   0.00000  Uiso   1.00
C214   C     0.48494   0.39994   0.24836   0.00000  Uiso   1.00
C215   C     0.53391   0.50315   0.15289   0.00000  Uiso   1.00
C216   C     0.62268   0.56695   0.02965   0.00000  Uiso   1.00
C217   C     0.55526   0.51125   0.09760   0.00000  Uiso   1.00
C218   C     0.38357   0.47534   0.42613   0.00000  Uiso   1.00
C219   C     0.36548   0.46807   0.47889   0.00000  Uiso   1.00
C220   C     0.41024   0.48079   0.00945   0.00000  Uiso   1.00
Cu221  Cu    0.44043   0.49439   0.24435   0.00000  Uiso   1.00
Cu222  Cu    0.55957   0.50561   0.25564   0.00000  Uiso   1.00
H223   H     0.64061   0.56781   0.10507   0.00000  Uiso   1.00
H224   H     0.43102   0.65351   0.24302   0.00000  Uiso   1.00
H225   H     0.33692   0.53924   0.28974   0.00000  Uiso   1.00
H226   H     0.66307   0.46075   0.21027   0.00000  Uiso   1.00
H227   H     0.63306   0.59937   0.43566   0.00000  Uiso   1.00
H228   H     0.66539   0.59625   0.01626   0.00000  Uiso   1.00
H229   H     0.34882   0.46184   0.40272   0.00000  Uiso   1.00
H230   H     0.39401   0.47519   0.05034   0.00000  Uiso   1.00
H231   H     0.65017   0.45125   0.49602   0.00000  Uiso   1.00
H232   H     0.55764   0.57291   0.38181   0.00000  Uiso   1.00
H233   H     0.56919   0.34650   0.25644   0.00000  Uiso   1.00
N234   N     0.64908   0.51407   0.26416   0.00000  Uiso   1.00
N235   N     0.35092   0.48593   0.23584   0.00000  Uiso   1.00
O236   O     0.46131   0.57141   0.24633   0.00000  Uiso   1.00
O237   O     0.56191   0.58089   0.25586   0.00000  Uiso   1.00
O238   O     0.42515   0.49293   0.31839   0.00000  Uiso   1.00
O239   O     0.52575   0.50241   0.32793   0.00000  Uiso   1.00
O240   O     0.43809   0.41911   0.24413   0.00000  Uiso   1.00
O241   O     0.53869   0.42859   0.25367   0.00000  Uiso   1.00
O242   O     0.47425   0.49759   0.17207   0.00000  Uiso   1.00
O243   O     0.57485   0.50707   0.18160   0.00000  Uiso   1.00
C244   C     0.47717   0.43069   0.07444   0.00000  Uiso   1.00
C245   C     0.51644   0.39289   0.08466   0.00000  Uiso   1.00
H246   H     0.55789   0.39367   0.05261   0.00000  Uiso   1.00
H247   H     0.53271   0.40309   0.12118   0.00000  Uiso   1.00
H248   H     0.48724   0.35212   0.08771   0.00000  Uiso   1.00
H249   H     0.43703   0.43073   0.10745   0.00000  Uiso   1.00
H250   H     0.45770   0.41324   0.04080   0.00000  Uiso   1.00
C251   C     0.84847   0.60007   0.25143   0.00000  Uiso   1.00
C252   C     0.80752   0.50200   0.48770   0.00000  Uiso   1.00
C253   C     0.82297   0.51807   0.43599   0.00000  Uiso   1.00
C254   C     0.85553   0.51197   0.01685   0.00000  Uiso   1.00
C255   C     0.91209   0.54955   0.49853   0.00000  Uiso   1.00
C256   C     0.92360   0.57041   0.44980   0.00000  Uiso   1.00
C257   C     0.88038   0.55418   0.41855   0.00000  Uiso   1.00
C258   C     0.84976   0.48665   0.06368   0.00000  Uiso   1.00
C259   C     0.94280   0.54979   0.07976   0.00000  Uiso   1.00
C260   C     0.77928   0.49924   0.40385   0.00000  Uiso   1.00
C261   C     0.85703   0.65603   0.25206   0.00000  Uiso   1.00
C262   C     0.79981   0.49937   0.34737   0.00000  Uiso   1.00
C263   C     0.80983   0.34398   0.24743   0.00000  Uiso   1.00
C264   C     0.81827   0.39994   0.24836   0.00000  Uiso   1.00
C265   C     0.86724   0.50315   0.15289   0.00000  Uiso   1.00
C266   C     0.95601   0.56695   0.02965   0.00000  Uiso   1.00
C267   C     0.88859   0.51125   0.09760   0.00000  Uiso   1.00
C268   C     0.71690   0.47534   0.42613   0.00000  Uiso   1.00
C269   C     0.69882   0.46807   0.47889   0.00000  Uiso   1.00
C270   C     0.74357   0.48079   0.00945   0.00000  Uiso   1.00
Cu271  Cu    0.77377   0.49439   0.24435   0.00000  Uiso   1.00
Cu272  Cu    0.89290   0.50561   0.25564   0.00000  Uiso   1.00
H273   H     0.97395   0.56781   0.10507   0.00000  Uiso   1.00
H274   H     0.76435   0.65351   0.24302   0.00000  Uiso   1.00
H275   H     0.67025   0.53924   0.28974   0.00000  Uiso   1.00
H276   H     0.99640   0.46075   0.21027   0.00000  Uiso   1.00
H277   H     0.96639   0.59937   0.43566   0.00000  Uiso   1.00
H278   H     0.99872   0.59625   0.01626   0.00000  Uiso   1.00
H279   H     0.68216   0.46184   0.40272   0.00000  Uiso   1.00
H280   H     0.72734   0.47519   0.05034   0.00000  Uiso   1.00
H281   H     0.98350   0.45125   0.49602   0.00000  Uiso   1.00
H282   H     0.89097   0.57291   0.38181   0.00000  Uiso   1.00
H283   H     0.90252   0.34650   0.25644   0.00000  Uiso   1.00
N284   N     0.98241   0.51407   0.26416   0.00000  Uiso   1.00
N285   N     0.68426   0.48593   0.23584   0.00000  Uiso   1.00
O286   O     0.79464   0.57141   0.24633   0.00000  Uiso   1.00
O287   O     0.89524   0.58089   0.25586   0.00000  Uiso   1.00
O288   O     0.75848   0.49293   0.31839   0.00000  Uiso   1.00
O289   O     0.85908   0.50241   0.32793   0.00000  Uiso   1.00
O290   O     0.77142   0.41911   0.24413   0.00000  Uiso   1.00
O291   O     0.87203   0.42859   0.25367   0.00000  Uiso   1.00
O292   O     0.80758   0.49759   0.17207   0.00000  Uiso   1.00
O293   O     0.90819   0.50707   0.18160   0.00000  Uiso   1.00
C294   C     0.81051   0.43069   0.07444   0.00000  Uiso   1.00
C295   C     0.84977   0.39289   0.08466   0.00000  Uiso   1.00
H296   H     0.89123   0.39367   0.05261   0.00000  Uiso   1.00
H297   H     0.86605   0.40309   0.12118   0.00000  Uiso   1.00
H298   H     0.82058   0.35212   0.08771   0.00000  Uiso   1.00
H299   H     0.77036   0.43073   0.10745   0.00000  Uiso   1.00
H300   H     0.79103   0.41324   0.04080   0.00000  Uiso   1.00
C301   C     0.18181   0.93340   0.25143   0.00000  Uiso   1.00
C302   C     0.14085   0.83533   0.48770   0.00000  Uiso   1.00
C303   C     0.15630   0.85140   0.43599   0.00000  Uiso   1.00
C304   C     0.18887   0.84531   0.01685   0.00000  Uiso   1.00
C305   C     0.24542   0.88288   0.49853   0.00000  Uiso   1.00
C306   C     0.25693   0.90375   0.44980   0.00000  Uiso   1.00
C307   C     0.21371   0.88751   0.41855   0.00000  Uiso   1.00
C308   C     0.18310   0.81998   0.06368   0.00000  Uiso   1.00
C309   C     0.27614   0.88312   0.07976   0.00000  Uiso   1.00
C310   C     0.11261   0.83257   0.40385   0.00000  Uiso   1.00
C311   C     0.19036   0.98936   0.25206   0.00000  Uiso   1.00
C312   C     0.13314   0.83271   0.34737   0.00000  Uiso   1.00
C313   C     0.14316   0.67731   0.24743   0.00000  Uiso   1.00
C314   C     0.15161   0.73327   0.24836   0.00000  Uiso   1.00
C315   C     0.20057   0.83649   0.15289   0.00000  Uiso   1.00
C316   C     0.28934   0.90028   0.02965   0.00000  Uiso   1.00
C317   C     0.22193   0.84458   0.09760   0.00000  Uiso   1.00
C318   C     0.05023   0.80867   0.42613   0.00000  Uiso   1.00
C319   C     0.03215   0.80140   0.47889   0.00000  Uiso   1.00
C320   C     0.07690   0.81413   0.00945   0.00000  Uiso   1.00
Cu321  Cu    0.10710   0.82772   0.24435   0.00000  Uiso   1.00
Cu322  Cu    0.22623   0.83895   0.25564   0.00000  Uiso   1.00
H323   H     0.30728   0.90114   0.10507   0.00000  Uiso   1.00
H324   H     0.09768   0.98685   0.24302   0.00000  Uiso   1.00
H325   H     0.00359   0.87257   0.28974   0.00000  Uiso   1.00
H326   H     0.32974   0.79408   0.21027   0.00000  Uiso   1.00
H327   H     0.29972   0.93270   0.43566   0.00000  Uiso   1.00
H328   H     0.33206   0.92959   0.01626   0.00000  Uiso   1.00
H329   H     0.01549   0.79517   0.40272   0.00000  Uiso   1.00
H330   H     0.06067   0.80852   0.05034   0.00000  Uiso   1.00
H331   H     0.31683   0.78458   0.49602   0.00000  Uiso   1.00
H332   H     0.22431   0.90624   0.38181   0.00000  Uiso   1.00
H333   H     0.23586   0.67983   0.25644   0.00000  Uiso   1.00
N334   N     0.31574   0.84741   0.26416   0.00000  Uiso   1.00
N335   N     0.01759   0.81926   0.23584   0.00000  Uiso   1.00
O336   O     0.12797   0.90474   0.24633   0.00000  Uiso   1.00
O337   O     0.22858   0.91422   0.25586   0.00000  Uiso   1.00
O338   O     0.09181   0.82627   0.31839   0.00000  Uiso   1.00
O339   O     0.19242   0.83575   0.32793   0.00000  Uiso   1.00
O340   O     0.10476   0.75245   0.24413   0.00000  Uiso   1.00
O341   O     0.20536   0.76193   0.25367   0.00000  Uiso   1.00
O342   O     0.14092   0.83092   0.17207   0.00000  Uiso   1.00
O343   O     0.24152   0.84040   0.18160   0.00000  Uiso   1.00
C344   C     0.14384   0.76402   0.07444   0.00000  Uiso   1.00
C345   C     0.18310   0.72622   0.08466   0.00000  Uiso   1.00
H346   H     0.22456   0.72701   0.05261   0.00000  Uiso   1.00
H347   H     0.19938   0.73643   0.12118   0.00000  Uiso   1.00
H348   H     0.15391   0.68545   0.08771   0.00000  Uiso   1.00
H349   H     0.10369   0.76407   0.10745   0.00000  Uiso   1.00
H350   H     0.12437   0.74658   0.04080   0.00000  Uiso   1.00
C351   C     0.51514   0.93340   0.25143   0.00000  Uiso   1.00
C352   C     0.47418   0.83533   0.48770   0.00000  Uiso   1.00
C353   C     0.48963   0.85140   0.43599   0.00000  Uiso   1.00
C354   C     0.52220   0.84531   0.01685   0.00000  Uiso   1.00
C355   C     0.57876   0.88288   0.49853   0.00000  Uiso   1.00
C356   C     0.59027   0.90375   0.44980   0.00000  Uiso   1.00
C357   C     0.54704   0.88751   0.41855   0.00000  Uiso   1.00
C358   C     0.51643   0.81998   0.06368   0.00000  Uiso   1.00
C359   C     0.60947   0.88312   0.07976   0.00000  Uiso   1.00
C360   C     0.44595   0.83257   0.40385   0.00000  Uiso   1.00
C361   C     0.52370   0.98936   0.25206   0.00000  Uiso   1.00
C362   C     0.46647   0.83271   0.34737   0.00000  Uiso   1.00
C363   C     0.47650   0.67731   0.24743   0.00000  Uiso   1.00
C364   C     0.48494   0.73327   0.24836   0.00000  Uiso   1.00
C365   C     0.53391   0.83649   0.15289   0.00000  Uiso   1.00
C366   C     0.62268   0.90028   0.02965   0.00000  Uiso   1.00
C367   C     0.55526   0.84458   0.09760   0.00000  Uiso   1.00
C368   C     0.38357   0.80867   0.42613   0.00000  Uiso   1.00
C369   C     0.36548   0.80140   0.47889   0.00000  Uiso   1.00
C370   C     0.41024   0.81413   0.00945   0.00000  Uiso   1.00
Cu371  Cu    0.44043   0.82772   0.24435   0.00000  Uiso   1.00
Cu372  Cu    0.55957   0.83895   0.25564   0.00000  Uiso   1.00
H373   H     0.64061   0.90114   0.10507   0.00000  Uiso   1.00
H374   H     0.43102   0.98685   0.24302   0.00000  Uiso   1.00
H375   H     0.33692   0.87257   0.28974   0.00000  Uiso   1.00
H376   H     0.66307   0.79408   0.21027   0.00000  Uiso   1.00
H377   H     0.63306   0.93270   0.43566   0.00000  Uiso   1.00
H378   H     0.66539   0.92959   0.01626   0.00000  Uiso   1.00
H379   H     0.34882   0.79517   0.40272   0.00000  Uiso   1.00
H380   H     0.39401   0.80852   0.05034   0.00000  Uiso   1.00
H381   H     0.65017   0.78458   0.49602   0.00000  Uiso   1.00
H382   H     0.55764   0.90624   0.38181   0.00000  Uiso   1.00
H383   H     0.56919   0.67983   0.25644   0.00000  Uiso   1.00
N384   N     0.64908   0.84741   0.26416   0.00000  Uiso   1.00
N385   N     0.35092   0.81926   0.23584   0.00000  Uiso   1.00
O386   O     0.46131   0.90474   0.24633   0.00000  Uiso   1.00
O387   O     0.56191   0.91422   0.25586   0.00000  Uiso   1.00
O388   O     0.42515   0.82627   0.31839   0.00000  Uiso   1.00
O389   O     0.52575   0.83575   0.32793   0.00000  Uiso   1.00
O390   O     0.43809   0.75245   0.24413   0.00000  Uiso   1.00
O391   O     0.53869   0.76193   0.25367   0.00000  Uiso   1.00
O392   O     0.47425   0.83092   0.17207   0.00000  Uiso   1.00
O393   O     0.57485   0.84040   0.18160   0.00000  Uiso   1.00
C394   C     0.47717   0.76402   0.07444   0.00000  Uiso   1.00
C395   C     0.51644   0.72622   0.08466   0.00000  Uiso   1.00
H396   H     0.55789   0.72701   0.05261   0.00000  Uiso   1.00
H397   H     0.53271   0.73643   0.12118   0.00000  Uiso   1.00
H398   H     0.48724   0.68545   0.08771   0.00000  Uiso   1.00
H399   H     0.43703   0.76407   0.10745   0.00000  Uiso   1.00
H400   H     0.45770   0.74658   0.04080   0.00000  Uiso   1.00
C401   C     0.84847   0.93340   0.25143   0.00000  Uiso   1.00
C402   C     0.80752   0.83533   0.48770   0.00000  Uiso   1.00
C403   C     0.82297   0.85140   0.43599   0.00000  Uiso   1.00
C404   C     0.85553   0.84531   0.01685   0.00000  Uiso   1.00
C405   C     0.91209   0.88288   0.49853   0.00000  Uiso   1.00
C406   C     0.92360   0.90375   0.44980   0.00000  Uiso   1.00
C407   C     0.88038   0.88751   0.41855   0.00000  Uiso   1.00
C408   C     0.84976   0.81998   0.06368   0.00000  Uiso   1.00
C409   C     0.94280   0.88312   0.07976   0.00000  Uiso   1.00
C410   C     0.77928   0.83257   0.40385   0.00000  Uiso   1.00
C411   C     0.85703   0.98936   0.25206   0.00000  Uiso   1.00
C412   C     0.79981   0.83271   0.34737   0.00000  Uiso   1.00
C413   C     0.80983   0.67731   0.24743   0.00000  Uiso   1.00
C414   C     0.81827   0.73327   0.24836   0.00000  Uiso   1.00
C415   C     0.86724   0.83649   0.15289   0.00000  Uiso   1.00
C416   C     0.95601   0.90028   0.02965   0.00000  Uiso   1.00
C417   C     0.88859   0.84458   0.09760   0.00000  Uiso   1.00
C418   C     0.71690   0.80867   0.42613   0.00000  Uiso   1.00
C419   C     0.69882   0.80140   0.47889   0.00000  Uiso   1.00
C420   C     0.74357   0.81413   0.00945   0.00000  Uiso   1.00
Cu421  Cu    0.77377   0.82772   0.24435   0.00000  Uiso   1.00
Cu422  Cu    0.89290   0.83895   0.25564   0.00000  Uiso   1.00
H423   H     0.97395   0.90114   0.10507   0.00000  Uiso   1.00
H424   H     0.76435   0.98685   0.24302   0.00000  Uiso   1.00
H425   H     0.67025   0.87257   0.28974   0.00000  Uiso   1.00
H426   H     0.99640   0.79408   0.21027   0.00000  Uiso   1.00
H427   H     0.96639   0.93270   0.43566   0.00000  Uiso   1.00
H428   H     0.99872   0.92959   0.01626   0.00000  Uiso   1.00
H429   H     0.68216   0.79517   0.40272   0.00000  Uiso   1.00
H430   H     0.72734   0.80852   0.05034   0.00000  Uiso   1.00
H431   H     0.98350   0.78458   0.49602   0.00000  Uiso   1.00
H432   H     0.89097   0.90624   0.38181   0.00000  Uiso   1.00
H433   H     0.90252   0.67983   0.25644   0.00000  Uiso   1.00
N434   N     0.98241   0.84741   0.26416   0.00000  Uiso   1.00
N435   N     0.68426   0.81926   0.23584   0.00000  Uiso   1.00
O436   O     0.79464   0.90474   0.24633   0.00000  Uiso   1.00
O437   O     0.89524   0.91422   0.25586   0.00000  Uiso   1.00
O438   O     0.75848   0.82627   0.31839   0.00000  Uiso   1.00
O439   O     0.85908   0.83575   0.32793   0.00000  Uiso   1.00
O440   O     0.77142   0.75245   0.24413   0.00000  Uiso   1.00
O441   O     0.87203   0.76193   0.25367   0.00000  Uiso   1.00
O442   O     0.80758   0.83092   0.17207   0.00000  Uiso   1.00
O443   O     0.90819   0.84040   0.18160   0.00000  Uiso   1.00
C444   C     0.81051   0.76402   0.07444   0.00000  Uiso   1.00
C445   C     0.84977   0.72622   0.08466   0.00000  Uiso   1.00
H446   H     0.89123   0.72701   0.05261   0.00000  Uiso   1.00
H447   H     0.86605   0.73643   0.12118   0.00000  Uiso   1.00
H448   H     0.82058   0.68545   0.08771   0.00000  Uiso   1.00
H449   H     0.77036   0.76407   0.10745   0.00000  Uiso   1.00
H450   H     0.79103   0.74658   0.04080   0.00000  Uiso   1.00
C451   C     0.18181   0.26674   0.75143   0.00000  Uiso   1.00
C452   C     0.14085   0.16866   0.98770   0.00000  Uiso   1.00
C453   C     0.15630   0.18474   0.93599   0.00000  Uiso   1.00
C454   C     0.18887   0.17864   0.51685   0.00000  Uiso   1.00
C455   C     0.24542   0.21621   0.99853   0.00000  Uiso   1.00
C456   C     0.25693   0.23708   0.94980   0.00000  Uiso   1.00
C457   C     0.21371   0.22084   0.91855   0.00000  Uiso   1.00
C458   C     0.18310   0.15331   0.56368   0.00000  Uiso   1.00
C459   C     0.27614   0.21646   0.57976   0.00000  Uiso   1.00
C460   C     0.11261   0.16590   0.90385   0.00000  Uiso   1.00
C461   C     0.19036   0.32270   0.75206   0.00000  Uiso   1.00
C462   C     0.13314   0.16604   0.84737   0.00000  Uiso   1.00
C463   C     0.14316   0.01064   0.74743   0.00000  Uiso   1.00
C464   C     0.15161   0.06660   0.74836   0.00000  Uiso   1.00
C465   C     0.20057   0.16982   0.65289   0.00000  Uiso   1.00
C466   C     0.28934   0.23362   0.52965   0.00000  Uiso   1.00
C467   C     0.22193   0.17792   0.59760   0.00000  Uiso   1.00
C468   C     0.05023   0.14200   0.92613   0.00000  Uiso   1.00
C469   C     0.03215   0.13474   0.97889   0.00000  Uiso   1.00
C470   C     0.07690   0.14746   0.50945   0.00000  Uiso   1.00
Cu471  Cu    0.10710   0.16105   0.74435   0.00000  Uiso   1.00
Cu472  Cu    0.22623   0.17228   0.75564   0.00000  Uiso   1.00
H473   H     0.30728   0.23448   0.60507   0.00000  Uiso   1.00
H474   H     0.09768   0.32018   0.74302   0.00000  Uiso   1.00
H475   H     0.00359   0.20591   0.78974   0.00000  Uiso   1.00
H476   H     0.32974   0.12742   0.71027   0.00000  Uiso   1.00
H477   H     0.29972   0.26603   0.93566   0.00000  Uiso   1.00
H478   H     0.33206   0.26292   0.51626   0.00000  Uiso   1.00
H479   H     0.01549   0.12850   0.90272   0.00000  Uiso   1.00
H480   H     0.06067   0.14186   0.55034   0.00000  Uiso   1.00
H481   H     0.31683   0.11791   0.99602   0.00000  Uiso   1.00
H482   H     0.22431   0.23957   0.88181   0.00000  Uiso   1.00
H483   H     0.23586   0.01316   0.75644   0.00000  Uiso   1.00
N484   N     0.31574   0.18074   0.76416   0.00000  Uiso   1.00
N485   N     0.01759   0.15259   0.73584   0.00000  Uiso   1.00
O486   O     0.12797   0.23807   0.74633   0.00000  Uiso   1.00
O487   O     0.22858   0.24755   0.75586   0.00000  Uiso   1.00
O488   O     0.09181   0.15960   0.81839   0.00000  Uiso   1.00
O489   O     0.19242   0.16908   0.82793   0.00000  Uiso   1.00
O490   O     0.10476   0.08578   0.74413   0.00000  Uiso   1.00
O491   O     0.20536   0.09526   0.75367   0.00000  Uiso   1.00
O492   O     0.14092   0.16425   0.67207   0.00000  Uiso   1.00
O493   O     0.24152   0.17373   0.68160   0.00000  Uiso   1.00
C494   C     0.14384   0.09735   0.57444   0.00000  Uiso   1.00
C495   C     0.18310   0.05956   0.58466   0.00000  Uiso   1.00
H496   H     0.22456   0.06034   0.55261   0.00000  Uiso   1.00
H497   H     0.19938   0.06976   0.62118   0.00000  Uiso   1.00
H498   H     0.15391   0.01879   0.58771   0.00000  Uiso   1.00
H499   H     0.10369   0.09740   0.60745   0.00000  Uiso   1.00
H500   H     0.12437   0.07991   0.54080   0.00000  Uiso   1.00
C501   C     0.51514   0.26674   0.75143   0.00000  Uiso   1.00
C502   C     0.47418   0.16866   0.98770   0.00000  Uiso   1.00
C503   C     0.48963   0.18474   0.93599   0.00000  Uiso   1.00
C504   C     0.52220   0.17864   0.51685   0.00000  Uiso   1.00
C505   C     0.57876   0.21621   0.99853   0.00000  Uiso   1.00
C506   C     0.59027   0.23708   0.94980   0.00000  Uiso   1.00
C507   C     0.54704   0.22084   0.91855   0.00000  Uiso   1.00
C508   C     0.51643   0.15331   0.56368   0.00000  Uiso   1.00
C509   C     0.60947   0.21646   0.57976   0.00000  Uiso   1.00
C510   C     0.44595   0.16590   0.90385   0.00000  Uiso   1.00
C511   C     0.52370   0.32270   0.75206   0.00000  Uiso   1.00
C512   C     0.46647   0.16604   0.84737   0.00000  Uiso   1.00
C513   C     0.47650   0.01064   0.74743   0.00000  Uiso   1.00
C514   C     0.48494   0.06660   0.74836   0.00000  Uiso   1.00
C515   C     0.53391   0.16982   0.65289   0.00000  Uiso   1.00
C516   C     0.62268   0.23362   0.52965   0.00000  Uiso   1.00
C517   C     0.55526   0.17792   0.59760   0.00000  Uiso   1.00
C518   C     0.38357   0.14200   0.92613   0.00000  Uiso   1.00
C519   C     0.36548   0.13474   0.97889   0.00000  Uiso   1.00
C520   C     0.41024   0.14746   0.50945   0.00000  Uiso   1.00
Cu521  Cu    0.44043   0.16105   0.74435   0.00000  Uiso   1.00
Cu522  Cu    0.55957   0.17228   0.75564   0.00000  Uiso   1.00
H523   H     0.64061   0.23448   0.60507   0.00000  Uiso   1.00
H524   H     0.43102   0.32018   0.74302   0.00000  Uiso   1.00
H525   H     0.33692   0.20591   0.78974   0.00000  Uiso   1.00
H526   H     0.66307   0.12742   0.71027   0.00000  Uiso   1.00
H527   H     0.63306   0.26603   0.93566   0.00000  Uiso   1.00
H528   H     0.66539   0.26292   0.51626   0.00000  Uiso   1.00
H529   H     0.34882   0.12850   0.90272   0.00000  Uiso   1.00
H530   H     0.39401   0.14186   0.55034   0.00000  Uiso   1.00
H531   H     0.65017   0.11791   0.99602   0.00000  Uiso   1.00
H532   H     0.55764   0.23957   0.88181   0.00000  Uiso   1.00
H533   H     0.56919   0.01316   0.75644   0.00000  Uiso   1.00
N534   N     0.64908   0.18074   0.76416   0.00000  Uiso   1.00
N535   N     0.35092   0.15259   0.73584   0.00000  Uiso   1.00
O536   O     0.46131   0.23807   0.74633   0.00000  Uiso   1.00
O537   O     0.56191   0.24755   0.75586   0.00000  Uiso   1.00
O538   O     0.42515   0.15960   0.81839   0.00000  Uiso   1.00
O539   O     0.52575   0.16908   0.82793   0.00000  Uiso   1.00
O540   O     0.43809   0.08578   0.74413   0.00000  Uiso   1.00
O541   O     0.53869   0.09526   0.75367   0.00000  Uiso   1.00
O542   O     0.47425   0.16425   0.67207   0.00000  Uiso   1.00
O543   O     0.57485   0.17373   0.68160   0.00000  Uiso   1.00
C544   C     0.47717   0.09735   0.57444   0.00000  Uiso   1.00
C545   C     0.51644   0.05956   0.58466   0.00000  Uiso   1.00
H546   H     0.55789   0.06034   0.55261   0.00000  Uiso   1.00
H547   H     0.53271   0.06976   0.62118   0.00000  Uiso   1.00
H548   H     0.48724   0.01879   0.58771   0.00000  Uiso   1.00
H549   H     0.43703   0.09740   0.60745   0.00000  Uiso   1.00
H550   H     0.45770   0.07991   0.54080   0.00000  Uiso   1.00
C551   C     0.84847   0.26674   0.75143   0.00000  Uiso   1.00
C552   C     0.80752   0.16866   0.98770   0.00000  Uiso   1.00
C553   C     0.82297   0.18474   0.93599   0.00000  Uiso   1.00
C554   C     0.85553   0.17864   0.51685   0.00000  Uiso   1.00
C555   C     0.91209   0.21621   0.99853   0.00000  Uiso   1.00
C556   C     0.92360   0.23708   0.94980   0.00000  Uiso   1.00
C557   C     0.88038   0.22084   0.91855   0.00000  Uiso   1.00
C558   C     0.84976   0.15331   0.56368   0.00000  Uiso   1.00
C559   C     0.94280   0.21646   0.57976   0.00000  Uiso   1.00
C560   C     0.77928   0.16590   0.90385   0.00000  Uiso   1.00
C561   C     0.85703   0.32270   0.75206   0.00000  Uiso   1.00
C562   C     0.79981   0.16604   0.84737   0.00000  Uiso   1.00
C563   C     0.80983   0.01064   0.74743   0.00000  Uiso   1.00
C564   C     0.81827   0.06660   0.74836   0.00000  Uiso   1.00
C565   C     0.86724   0.16982   0.65289   0.00000  Uiso   1.00
C566   C     0.95601   0.23362   0.52965   0.00000  Uiso   1.00
C567   C     0.88859   0.17792   0.59760   0.00000  Uiso   1.00
C568   C     0.71690   0.14200   0.92613   0.00000  Uiso   1.00
C569   C     0.69882   0.13474   0.97889   0.00000  Uiso   1.00
C570   C     0.74357   0.14746   0.50945   0.00000  Uiso   1.00
Cu571  Cu    0.77377   0.16105   0.74435   0.00000  Uiso   1.00
Cu572  Cu    0.89290   0.17228   0.75564   0.00000  Uiso   1.00
H573   H     0.97395   0.23448   0.60507   0.00000  Uiso   1.00
H574   H     0.76435   0.32018   0.74302   0.00000  Uiso   1.00
H575   H     0.67025   0.20591   0.78974   0.00000  Uiso   1.00
H576   H     0.99640   0.12742   0.71027   0.00000  Uiso   1.00
H577   H     0.96639   0.26603   0.93566   0.00000  Uiso   1.00
H578   H     0.99872   0.26292   0.51626   0.00000  Uiso   1.00
H579   H     0.68216   0.12850   0.90272   0.00000  Uiso   1.00
H580   H     0.72734   0.14186   0.55034   0.00000  Uiso   1.00
H581   H     0.98350   0.11791   0.99602   0.00000  Uiso   1.00
H582   H     0.89097   0.23957   0.88181   0.00000  Uiso   1.00
H583   H     0.90252   0.01316   0.75644   0.00000  Uiso   1.00
N584   N     0.98241   0.18074   0.76416   0.00000  Uiso   1.00
N585   N     0.68426   0.15259   0.73584   0.00000  Uiso   1.00
O586   O     0.79464   0.23807   0.74633   0.00000  Uiso   1.00
O587   O     0.89524   0.24755   0.75586   0.00000  Uiso   1.00
O588   O     0.75848   0.15960   0.81839   0.00000  Uiso   1.00
O589   O     0.85908   0.16908   0.82793   0.00000  Uiso   1.00
O590   O     0.77142   0.08578   0.74413   0.00000  Uiso   1.00
O591   O     0.87203   0.09526   0.75367   0.00000  Uiso   1.00
O592   O     0.80758   0.16425   0.67207   0.00000  Uiso   1.00
O593   O     0.90819   0.17373   0.68160   0.00000  Uiso   1.00
C594   C     0.81051   0.09735   0.57444   0.00000  Uiso   1.00
C595   C     0.84977   0.05956   0.58466   0.00000  Uiso   1.00
H596   H     0.89123   0.06034   0.55261   0.00000  Uiso   1.00
H597   H     0.86605   0.06976   0.62118   0.00000  Uiso   1.00
H598   H     0.82058   0.01879   0.58771   0.00000  Uiso   1.00
H599   H     0.77036   0.09740   0.60745   0.00000  Uiso   1.00
H600   H     0.79103   0.07991   0.54080   0.00000  Uiso   1.00
C601   C     0.18181   0.60007   0.75143   0.00000  Uiso   1.00
C602   C     0.14085   0.50200   0.98770   0.00000  Uiso   1.00
C603   C     0.15630   0.51807   0.93599   0.00000  Uiso   1.00
C604   C     0.18887   0.51197   0.51685   0.00000  Uiso   1.00
C605   C     0.24542   0.54955   0.99853   0.00000  Uiso   1.00
C606   C     0.25693   0.57041   0.94980   0.00000  Uiso   1.00
C607   C     0.21371   0.55418   0.91855   0.00000  Uiso   1.00
C608   C     0.18310   0.48665   0.56368   0.00000  Uiso   1.00
C609   C     0.27614   0.54979   0.57976   0.00000  Uiso   1.00
C610   C     0.11261   0.49924   0.90385   0.00000  Uiso   1.00
C611   C     0.19036   0.65603   0.75206   0.00000  Uiso   1.00
C612   C     0.13314   0.49937   0.84737   0.00000  Uiso   1.00
C613   C     0.14316   0.34398   0.74743   0.00000  Uiso   1.00
C614   C     0.15161   0.39994   0.74836   0.00000  Uiso   1.00
C615   C     0.20057   0.50315   0.65289   0.00000  Uiso   1.00
C616   C     0.28934   0.56695   0.52965   0.00000  Uiso   1.00
C617   C     0.22193   0.51125   0.59760   0.00000  Uiso   1.00
C618   C     0.05023   0.47534   0.92613   0.00000  Uiso   1.00
C619   C     0.03215   0.46807   0.97889   0.00000  Uiso   1.00
C620   C     0.07690   0.48079   0.50945   0.00000  Uiso   1.00
Cu621  Cu    0.10710   0.49439   0.74435   0.00000  Uiso   1.00
Cu622  Cu    0.22623   0.50561   0.75564   0.00000  Uiso   1.00
H623   H     0.30728   0.56781   0.60507   0.00000  Uiso   1.00
H624   H     0.09768   0.65351   0.74302   0.00000  Uiso   1.00
H625   H     0.00359   0.53924   0.78974   0.00000  Uiso   1.00
H626   H     0.32974   0.46075   0.71027   0.00000  Uiso   1.00
H627   H     0.29972   0.59937   0.93566   0.00000  Uiso   1.00
H628   H     0.33206   0.59625   0.51626   0.00000  Uiso   1.00
H629   H     0.01549   0.46184   0.90272   0.00000  Uiso   1.00
H630   H     0.06067   0.47519   0.55034   0.00000  Uiso   1.00
H631   H     0.31683   0.45125   0.99602   0.00000  Uiso   1.00
H632   H     0.22431   0.57291   0.88181   0.00000  Uiso   1.00
H633   H     0.23586   0.34650   0.75644   0.00000  Uiso   1.00
N634   N     0.31574   0.51407   0.76416   0.00000  Uiso   1.00
N635   N     0.01759   0.48593   0.73584   0.00000  Uiso   1.00
O636   O     0.12797   0.57141   0.74633   0.00000  Uiso   1.00
O637   O     0.22858   0.58089   0.75586   0.00000  Uiso   1.00
O638   O     0.09181   0.49293   0.81839   0.00000  Uiso   1.00
O639   O     0.19242   0.50241   0.82793   0.00000  Uiso   1.00
O640   O     0.10476   0.41911   0.74413   0.00000  Uiso   1.00
O641   O     0.20536   0.42859   0.75367   0.00000  Uiso   1.00
O642   O     0.14092   0.49759   0.67207   0.00000  Uiso   1.00
O643   O     0.24152   0.50707   0.68160   0.00000  Uiso   1.00
C644   C     0.14384   0.43069   0.57444   0.00000  Uiso   1.00
C645   C     0.18310   0.39289   0.58466   0.00000  Uiso   1.00
H646   H     0.22456   0.39367   0.55261   0.00000  Uiso   1.00
H647   H     0.19938   0.40309   0.62118   0.00000  Uiso   1.00
H648   H     0.15391   0.35212   0.58771   0.00000  Uiso   1.00
H649   H     0.10369   0.43073   0.60745   0.00000  Uiso   1.00
H650   H     0.12437   0.41324   0.54080   0.00000  Uiso   1.00
C651   C     0.51514   0.60007   0.75143   0.00000  Uiso   1.00
C652   C     0.47418   0.50200   0.98770   0.00000  Uiso   1.00
C653   C     0.48963   0.51807   0.93599   0.00000  Uiso   1.00
C654   C     0.52220   0.51197   0.51685   0.00000  Uiso   1.00
C655   C     0.57876   0.54955   0.99853   0.00000  Uiso   1.00
C656   C     0.59027   0.57041   0.94980   0.00000  Uiso   1.00
C657   C     0.54704   0.55418   0.91855   0.00000  Uiso   1.00
C658   C     0.51643   0.48665   0.56368   0.00000  Uiso   1.00
C659   C     0.60947   0.54979   0.57976   0.00000  Uiso   1.00
C660   C     0.44595   0.49924   0.90385   0.00000  Uiso   1.00
C661   C     0.52370   0.65603   0.75206   0.00000  Uiso   1.00
C662   C     0.46647   0.49937   0.84737   0.00000  Uiso   1.00
C663   C     0.47650   0.34398   0.74743   0.00000  Uiso   1.00
C664   C     0.48494   0.39994   0.74836   0.00000  Uiso   1.00
C665   C     0.53391   0.50315   0.65289   0.00000  Uiso   1.00
C666   C     0.62268   0.56695   0.52965   0.00000  Uiso   1.00
C667   C     0.55526   0.51125   0.59760   0.00000  Uiso   1.00
C668   C     0.38357   0.47534   0.92613   0.00000  Uiso   1.00
C669   C     0.36548   0.46807   0.97889   0.00000  Uiso   1.00
C670   C     0.41024   0.48079   0.50945   0.00000  Uiso   1.00
Cu671  Cu    0.44043   0.49439   0.74435   0.00000  Uiso   1.00
Cu672  Cu    0.55957   0.50561   0.75564   0.00000  Uiso   1.00
H673   H     0.64061   0.56781   0.60507   0.00000  Uiso   1.00
H674   H     0.43102   0.65351   0.74302   0.00000  Uiso   1.00
H675   H     0.33692   0.53924   0.78974   0.00000  Uiso   1.00
H676   H     0.66307   0.46075   0.71027   0.00000  Uiso   1.00
H677   H     0.63306   0.59937   0.93566   0.00000  Uiso   1.00
H678   H     0.66539   0.59625   0.51626   0.00000  Uiso   1.00
H679   H     0.34882   0.46184   0.90272   0.00000  Uiso   1.00
H680   H     0.39401   0.47519   0.55034   0.00000  Uiso   1.00
H681   H     0.65017   0.45125   0.99602   0.00000  Uiso   1.00
H682   H     0.55764   0.57291   0.88181   0.00000  Uiso   1.00
H683   H     0.56919   0.34650   0.75644   0.00000  Uiso   1.00
N684   N     0.64908   0.51407   0.76416   0.00000  Uiso   1.00
N685   N     0.35092   0.48593   0.73584   0.00000  Uiso   1.00
O686   O     0.46131   0.57141   0.74633   0.00000  Uiso   1.00
O687   O     0.56191   0.58089   0.75586   0.00000  Uiso   1.00
O688   O     0.42515   0.49293   0.81839   0.00000  Uiso   1.00
O689   O     0.52575   0.50241   0.82793   0.00000  Uiso   1.00
O690   O     0.43809   0.41911   0.74413   0.00000  Uiso   1.00
O691   O     0.53869   0.42859   0.75367   0.00000  Uiso   1.00
O692   O     0.47425   0.49759   0.67207   0.00000  Uiso   1.00
O693   O     0.57485   0.50707   0.68160   0.00000  Uiso   1.00
C694   C     0.47717   0.43069   0.57444   0.00000  Uiso   1.00
C695   C     0.51644   0.39289   0.58466   0.00000  Uiso   1.00
H696   H     0.55789   0.39367   0.55261   0.00000  Uiso   1.00
H697   H     0.53271   0.40309   0.62118   0.00000  Uiso   1.00
H698   H     0.48724   0.35212   0.58771   0.00000  Uiso   1.00
H699   H     0.43703   0.43073   0.60745   0.00000  Uiso   1.00
H700   H     0.45770   0.41324   0.54080   0.00000  Uiso   1.00
C701   C     0.84847   0.60007   0.75143   0.00000  Uiso   1.00
C702   C     0.80752   0.50200   0.98770   0.00000  Uiso   1.00
C703   C     0.82297   0.51807   0.93599   0.00000  Uiso   1.00
C704   C     0.85553   0.51197   0.51685   0.00000  Uiso   1.00
C705   C     0.91209   0.54955   0.99853   0.00000  Uiso   1.00
C706   C     0.92360   0.57041   0.94980   0.00000  Uiso   1.00
C707   C     0.88038   0.55418   0.91855   0.00000  Uiso   1.00
C708   C     0.84976   0.48665   0.56368   0.00000  Uiso   1.00
C709   C     0.94280   0.54979   0.57976   0.00000  Uiso   1.00
C710   C     0.77928   0.49924   0.90385   0.00000  Uiso   1.00
C711   C     0.85703   0.65603   0.75206   0.00000  Uiso   1.00
C712   C     0.79981   0.49937   0.84737   0.00000  Uiso   1.00
C713   C     0.80983   0.34398   0.74743   0.00000  Uiso   1.00
C714   C     0.81827   0.39994   0.74836   0.00000  Uiso   1.00
C715   C     0.86724   0.50315   0.65289   0.00000  Uiso   1.00
C716   C     0.95601   0.56695   0.52965   0.00000  Uiso   1.00
C717   C     0.88859   0.51125   0.59760   0.00000  Uiso   1.00
C718   C     0.71690   0.47534   0.92613   0.00000  Uiso   1.00
C719   C     0.69882   0.46807   0.97889   0.00000  Uiso   1.00
C720   C     0.74357   0.48079   0.50945   0.00000  Uiso   1.00
Cu721  Cu    0.77377   0.49439   0.74435   0.00000  Uiso   1.00
Cu722  Cu    0.89290   0.50561   0.75564   0.00000  Uiso   1.00
H723   H     0.97395   0.56781   0.60507   0.00000  Uiso   1.00
H724   H     0.76435   0.65351   0.74302   0.00000  Uiso   1.00
H725   H     0.67025   0.53924   0.78974   0.00000  Uiso   1.00
H726   H     0.99640   0.46075   0.71027   0.00000  Uiso   1.00
H727   H     0.96639   0.59937   0.93566   0.00000  Uiso   1.00
H728   H     0.99872   0.59625   0.51626   0.00000  Uiso   1.00
H729   H     0.68216   0.46184   0.90272   0.00000  Uiso   1.00
H730   H     0.72734   0.47519   0.55034   0.00000  Uiso   1.00
H731   H     0.98350   0.45125   0.99602   0.00000  Uiso   1.00
H732   H     0.89097   0.57291   0.88181   0.00000  Uiso   1.00
H733   H     0.90252   0.34650   0.75644   0.00000  Uiso   1.00
N734   N     0.98241   0.51407   0.76416   0.00000  Uiso   1.00
N735   N     0.68426   0.48593   0.73584   0.00000  Uiso   1.00
O736   O     0.79464   0.57141   0.74633   0.00000  Uiso   1.00
O737   O     0.89524   0.58089   0.75586   0.00000  Uiso   1.00
O738   O     0.75848   0.49293   0.81839   0.00000  Uiso   1.00
O739   O     0.85908   0.50241   0.82793   0.00000  Uiso   1.00
O740   O     0.77142   0.41911   0.74413   0.00000  Uiso   1.00
O741   O     0.87203   0.42859   0.75367   0.00000  Uiso   1.00
O742   O     0.80758   0.49759   0.67207   0.00000  Uiso   1.00
O743   O     0.90819   0.50707   0.68160   0.00000  Uiso   1.00
C744   C     0.81051   0.43069   0.57444   0.00000  Uiso   1.00
C745   C     0.84977   0.39289   0.58466   0.00000  Uiso   1.00
H746   H     0.89123   0.39367   0.55261   0.00000  Uiso   1.00
H747   H     0.86605   0.40309   0.62118   0.00000  Uiso   1.00
H748   H     0.82058   0.35212   0.58771   0.00000  Uiso   1.00
H749   H     0.77036   0.43073   0.60745   0.00000  Uiso   1.00
H750   H     0.79103   0.41324   0.54080   0.00000  Uiso   1.00
C751   C     0.18181   0.93340   0.75143   0.00000  Uiso   1.00
C752   C     0.14085   0.83533   0.98770   0.00000  Uiso   1.00
C753   C     0.15630   0.85140   0.93599   0.00000  Uiso   1.00
C754   C     0.18887   0.84531   0.51685   0.00000  Uiso   1.00
C755   C     0.24542   0.88288   0.99853   0.00000  Uiso   1.00
C756   C     0.25693   0.90375   0.94980   0.00000  Uiso   1.00
C757   C     0.21371   0.88751   0.91855   0.00000  Uiso   1.00
C758   C     0.18310   0.81998   0.56368   0.00000  Uiso   1.00
C759   C     0.27614   0.88312   0.57976   0.00000  Uiso   1.00
C760   C     0.11261   0.83257   0.90385   0.00000  Uiso   1.00
C761   C     0.19036   0.98936   0.75206   0.00000  Uiso   1.00
C762   C     0.13314   0.83271   0.84737   0.00000  Uiso   1.00
C763   C     0.14316   0.67731   0.74743   0.00000  Uiso   1.00
C764   C     0.15161   0.73327   0.74836   0.00000  Uiso   1.00
C765   C     0.20057   0.83649   0.65289   0.00000  Uiso   1.00
C766   C     0.28934   0.90028   0.52965   0.00000  Uiso   1.00
C767   C     0.22193   0.84458   0.59760   0.00000  Uiso   1.00
C768   C     0.05023   0.80867   0.92613   0.00000  Uiso   1.00
C769   C     0.03215   0.80140   0.97889   0.00000  Uiso   1.00
C770   C     0.07690   0.81413   0.50945   0.00000  Uiso   1.00
Cu771  Cu    0.10710   0.82772   0.74435   0.00000  Uiso   1.00
Cu772  Cu    0.22623   0.83895   0.75564   0.00000  Uiso   1.00
H773   H     0.30728   0.90114   0.60507   0.00000  Uiso   1.00
H774   H     0.09768   0.98685   0.74302   0.00000  Uiso   1.00
H775   H     0.00359   0.87257   0.78974   0.00000  Uiso   1.00
H776   H     0.32974   0.79408   0.71027   0.00000  Uiso   1.00
H777   H     0.29972   0.93270   0.93566   0.00000  Uiso   1.00
H778   H     0.33206   0.92959   0.51626   0.00000  Uiso   1.00
H779   H     0.01549   0.79517   0.90272   0.00000  Uiso   1.00
H780   H     0.06067   0.80852   0.55034   0.00000  Uiso   1.00
H781   H     0.31683   0.78458   0.99602   0.00000  Uiso   1.00
H782   H     0.22431   0.90624   0.88181   0.00000  Uiso   1.00
H783   H     0.23586   0.67983   0.75644   0.00000  Uiso   1.00
N784   N     0.31574   0.84741   0.76416   0.00000  Uiso   1.00
N785   N     0.01759   0.81926   0.73584   0.00000  Uiso   1.00
O786   O     0.12797   0.90474   0.74633   0.00000  Uiso   1.00
O787   O     0.22858   0.91422   0.75586   0.00000  Uiso   1.00
O788   O     0.09181   0.82627   0.81839   0.00000  Uiso   1.00
O789   O     0.19242   0.83575   0.82793   0.00000  Uiso   1.00
O790   O     0.10476   0.75245   0.74413   0.00000  Uiso   1.00
O791   O     0.20536   0.76193   0.75367   0.00000  Uiso   1.00
O792   O     0.14092   0.83092   0.67207   0.00000  Uiso   1.00
O793   O     0.24152   0.84040   0.68160   0.00000  Uiso   1.00
C794   C     0.14384   0.76402   0.57444   0.00000  Uiso   1.00
C795   C     0.18310   0.72622   0.58466   0.00000  Uiso   1.00
H796   H     0.22456   0.72701   0.55261   0.00000  Uiso   1.00
H797   H     0.19938   0.73643   0.62118   0.00000  Uiso   1.00
H798   H     0.15391   0.68545   0.58771   0.00000  Uiso   1.00
H799   H     0.10369   0.76407   0.60745   0.00000  Uiso   1.00
H800   H     0.12437   0.74658   0.54080   0.00000  Uiso   1.00
C801   C     0.51514   0.93340   0.75143   0.00000  Uiso   1.00
C802   C     0.47418   0.83533   0.98770   0.00000  Uiso   1.00
C803   C     0.48963   0.85140   0.93599   0.00000  Uiso   1.00
C804   C     0.52220   0.84531   0.51685   0.00000  Uiso   1.00
C805   C     0.57876   0.88288   0.99853   0.00000  Uiso   1.00
C806   C     0.59027   0.90375   0.94980   0.00000  Uiso   1.00
C807   C     0.54704   0.88751   0.91855   0.00000  Uiso   1.00
C808   C     0.51643   0.81998   0.56368   0.00000  Uiso   1.00
C809   C     0.60947   0.88312   0.57976   0.00000  Uiso   1.00
C810   C     0.44595   0.83257   0.90385   0.00000  Uiso   1.00
C811   C     0.52370   0.98936   0.75206   0.00000  Uiso   1.00
C812   C     0.46647   0.83271   0.84737   0.00000  Uiso   1.00
C813   C     0.47650   0.67731   0.74743   0.00000  Uiso   1.00
C814   C     0.48494   0.73327   0.74836   0.00000  Uiso   1.00
C815   C     0.53391   0.83649   0.65289   0.00000  Uiso   1.00
C816   C     0.62268   0.90028   0.52965   0.00000  Uiso   1.00
C817   C     0.55526   0.84458   0.59760   0.00000  Uiso   1.00
C818   C     0.38357   0.80867   0.92613   0.00000  Uiso   1.00
C819   C     0.36548   0.80140   0.97889   0.00000  Uiso   1.00
C820   C     0.41024   0.81413   0.50945   0.00000  Uiso   1.00
Cu821  Cu    0.44043   0.82772   0.74435   0.00000  Uiso   1.00
Cu822  Cu    0.55957   0.83895   0.75564   0.00000  Uiso   1.00
H823   H     0.64061   0.90114   0.60507   0.00000  Uiso   1.00
H824   H     0.43102   0.98685   0.74302   0.00000  Uiso   1.00
H825   H     0.33692   0.87257   0.78974   0.00000  Uiso   1.00
H826   H     0.66307   0.79408   0.71027   0.00000  Uiso   1.00
H827   H     0.63306   0.93270   0.93566   0.00000  Uiso   1.00
H828   H     0.66539   0.92959   0.51626   0.00000  Uiso   1.00
H829   H     0.34882   0.79517   0.90272   0.00000  Uiso   1.00
H830   H     0.39401   0.80852   0.55034   0.00000  Uiso   1.00
H831   H     0.65017   0.78458   0.99602   0.00000  Uiso   1.00
H832   H     0.55764   0.90624   0.88181   0.00000  Uiso   1.00
H833   H     0.56919   0.67983   0.75644   0.00000  Uiso   1.00
N834   N     0.64908   0.84741   0.76416   0.00000  Uiso   1.00
N835   N     0.35092   0.81926   0.73584   0.00000  Uiso   1.00
O836   O     0.46131   0.90474   0.74633   0.00000  Uiso   1.00
O837   O     0.56191   0.91422   0.75586   0.00000  Uiso   1.00
O838   O     0.42515   0.82627   0.81839   0.00000  Uiso   1.00
O839   O     0.52575   0.83575   0.82793   0.00000  Uiso   1.00
O840   O     0.43809   0.75245   0.74413   0.00000  Uiso   1.00
O841   O     0.53869   0.76193   0.75367   0.00000  Uiso   1.00
O842   O     0.47425   0.83092   0.67207   0.00000  Uiso   1.00
O843   O     0.57485   0.84040   0.68160   0.00000  Uiso   1.00
C844   C     0.47717   0.76402   0.57444   0.00000  Uiso   1.00
C845   C     0.51644   0.72622   0.58466   0.00000  Uiso   1.00
H846   H     0.55789   0.72701   0.55261   0.00000  Uiso   1.00
H847   H     0.53271   0.73643   0.62118   0.00000  Uiso   1.00
H848   H     0.48724   0.68545   0.58771   0.00000  Uiso   1.00
H849   H     0.43703   0.76407   0.60745   0.00000  Uiso   1.00
H850   H     0.45770   0.74658   0.54080   0.00000  Uiso   1.00
C851   C     0.84847   0.93340   0.75143   0.00000  Uiso   1.00
C852   C     0.80752   0.83533   0.98770   0.00000  Uiso   1.00
C853   C     0.82297   0.85140   0.93599   0.00000  Uiso   1.00
C854   C     0.85553   0.84531   0.51685   0.00000  Uiso   1.00
C855   C     0.91209   0.88288   0.99853   0.00000  Uiso   1.00
C856   C     0.92360   0.90375   0.94980   0.00000  Uiso   1.00
C857   C     0.88038   0.88751   0.91855   0.00000  Uiso   1.00
C858   C     0.84976   0.81998   0.56368   0.00000  Uiso   1.00
C859   C     0.94280   0.88312   0.57976   0.00000  Uiso   1.00
C860   C     0.77928   0.83257   0.90385   0.00000  Uiso   1.00
C861   C     0.85703   0.98936   0.75206   0.00000  Uiso   1.00
C862   C     0.79981   0.83271   0.84737   0.00000  Uiso   1.00
C863   C     0.80983   0.67731   0.74743   0.00000  Uiso   1.00
C864   C     0.81827   0.73327   0.74836   0.00000  Uiso   1.00
C865   C     0.86724   0.83649   0.65289   0.00000  Uiso   1.00
C866   C     0.95601   0.90028   0.52965   0.00000  Uiso   1.00
C867   C     0.88859   0.84458   0.59760   0.00000  Uiso   1.00
C868   C     0.71690   0.80867   0.92613   0.00000  Uiso   1.00
C869   C     0.69882   0.80140   0.97889   0.00000  Uiso   1.00
C870   C     0.74357   0.81413   0.50945   0.00000  Uiso   1.00
Cu871  Cu    0.77377   0.82772   0.74435   0.00000  Uiso   1.00
Cu872  Cu    0.89290   0.83895   0.75564   0.00000  Uiso   1.00
H873   H     0.97395   0.90114   0.60507   0.00000  Uiso   1.00
H874   H     0.76435   0.98685   0.74302   0.00000  Uiso   1.00
H875   H     0.67025   0.87257   0.78974   0.00000  Uiso   1.00
H876   H     0.99640   0.79408   0.71027   0.00000  Uiso   1.00
H877   H     0.96639   0.93270   0.93566   0.00000  Uiso   1.00
H878   H     0.99872   0.92959   0.51626   0.00000  Uiso   1.00
H879   H     0.68216   0.79517   0.90272   0.00000  Uiso   1.00
H880   H     0.72734   0.80852   0.55034   0.00000  Uiso   1.00
H881   H     0.98350   0.78458   0.99602   0.00000  Uiso   1.00
H882   H     0.89097   0.90624   0.88181   0.00000  Uiso   1.00
H883   H     0.90252   0.67983   0.75644   0.00000  Uiso   1.00
N884   N     0.98241   0.84741   0.76416   0.00000  Uiso   1.00
N885   N     0.68426   0.81926   0.73584   0.00000  Uiso   1.00
O886   O     0.79464   0.90474   0.74633   0.00000  Uiso   1.00
O887   O     0.89524   0.91422   0.75586   0.00000  Uiso   1.00
O888   O     0.75848   0.82627   0.81839   0.00000  Uiso   1.00
O889   O     0.85908   0.83575   0.82793   0.00000  Uiso   1.00
O890   O     0.77142   0.75245   0.74413   0.00000  Uiso   1.00
O891   O     0.87203   0.76193   0.75367   0.00000  Uiso   1.00
O892   O     0.80758   0.83092   0.67207   0.00000  Uiso   1.00
O893   O     0.90819   0.84040   0.68160   0.00000  Uiso   1.00
C894   C     0.81051   0.76402   0.57444   0.00000  Uiso   1.00
C895   C     0.84977   0.72622   0.58466   0.00000  Uiso   1.00
H896   H     0.89123   0.72701   0.55261   0.00000  Uiso   1.00
H897   H     0.86605   0.73643   0.62118   0.00000  Uiso   1.00
H898   H     0.82058   0.68545   0.58771   0.00000  Uiso   1.00
H899   H     0.77036   0.76407   0.60745   0.00000  Uiso   1.00
H900   H     0.79103   0.74658   0.54080   0.00000  Uiso   1.00
loop_
_geom_bond_atom_site_label_1
_geom_bond_atom_site_label_2
_geom_bond_distance
_geom_bond_site_symmetry_2
_ccdc_geom_bond_type
C1     C11     1.427   .     S
C1     O37     1.285   .     A
C1     O36     1.291   .     A
C2     C3      1.416   .     A
C2     C454    1.425   .     S
C2     C470    1.413   .     S
C3     C10     1.421   .     A
C3     C7      1.411   .     A
C4     C8      1.421   .     A
C4     C452    1.425   1_554 S
C4     C455    1.422   1_554 S
C5     C6      1.394   .     A
C5     C454    1.422   .     S
C5     C466    1.400   .     S
C6     C7      1.387   .     A
C6     H27     1.084   .     S
C7     H32     1.081   .     S
C8     C17     1.412   .     A
C8     C44     1.531   .     S
C9     C17     1.399   .     A
C9     C16     1.388   .     A
C9     H23     1.083   .     S
C10    C12     1.477   .     S
C10    C18     1.403   .     A
C11    C163    1.328   .     S
C11    H183    1.088   .     S
C12    O39     1.295   .     A
C12    O38     1.304   .     A
C13    C14     1.427   .     S
C13    C311    1.328   1_545 S
C13    H324    1.088   1_545 S
C14    O41     1.291   .     A
C14    O40     1.285   .     A
C15    O42     1.294   .     A
C15    O43     1.299   .     A
C15    C17     1.463   .     S
C16    H28     1.084   .     S
C16    C455    1.400   1_554 S
C18    H29     1.083   .     S
C18    C19     1.391   .     A
C19    C470    1.394   .     S
C19    H131    1.082   1_455 S
C20    H30     1.081   .     S
C20    C452    1.413   1_554 S
C20    C469    1.394   1_554 S
Cu21   N35     2.019   .     S
Cu21   Cu22    2.686   .     S
Cu21   O40     1.951   .     S
Cu21   O42     1.912   .     S
Cu21   O36     1.955   .     S
Cu21   O38     1.933   .     S
Cu22   O39     1.912   .     S
Cu22   N34     2.019   .     S
Cu22   O41     1.955   .     S
Cu22   O37     1.951   .     S
Cu22   O43     1.933   .     S
H24    C163    1.088   .     S
H25    N134    1.029   1_455 S
H26    N85     1.029   .     S
H31    C69     1.082   .     S
H33    C311    1.088   1_545 S
N34    H75     1.029   .     S
N34    N85     1.284   .     S
N35    N134    1.284   1_455 S
N35    H126    1.029   1_455 S
C44    H49     1.110   .     S
C44    C45     1.532   .     S
C44    H50     1.108   .     S
C45    H47     1.109   .     S
C45    H48     1.111   .     S
C45    H46     1.110   .     S
C51    C61     1.427   .     S
C51    O87     1.285   .     A
C51    O86     1.291   .     A
C52    C53     1.416   .     A
C52    C504    1.425   .     S
C52    C520    1.413   .     S
C53    C60     1.421   .     A
C53    C57     1.411   .     A
C54    C58     1.421   .     A
C54    C502    1.425   1_554 S
C54    C505    1.422   1_554 S
C55    C56     1.394   .     A
C55    C504    1.422   .     S
C55    C516    1.400   .     S
C56    C57     1.387   .     A
C56    H77     1.084   .     S
C57    H82     1.081   .     S
C58    C67     1.412   .     A
C58    C94     1.531   .     S
C59    C67     1.399   .     A
C59    C66     1.388   .     A
C59    H73     1.083   .     S
C60    C62     1.477   .     S
C60    C68     1.403   .     A
C61    C213    1.328   .     S
C61    H233    1.088   .     S
C62    O89     1.295   .     A
C62    O88     1.304   .     A
C63    C64     1.427   .     S
C63    C361    1.328   1_545 S
C63    H374    1.088   1_545 S
C64    O91     1.291   .     A
C64    O90     1.285   .     A
C65    O92     1.294   .     A
C65    O93     1.299   .     A
C65    C67     1.463   .     S
C66    H78     1.084   .     S
C66    C505    1.400   1_554 S
C68    H79     1.083   .     S
C68    C69     1.391   .     A
C69    C520    1.394   .     S
C70    H80     1.081   .     S
C70    C502    1.413   1_554 S
C70    C519    1.394   1_554 S
Cu71   N85     2.019   .     S
Cu71   Cu72    2.686   .     S
Cu71   O90     1.951   .     S
Cu71   O92     1.912   .     S
Cu71   O86     1.955   .     S
Cu71   O88     1.933   .     S
Cu72   O89     1.912   .     S
Cu72   N84     2.019   .     S
Cu72   O91     1.955   .     S
Cu72   O87     1.951   .     S
Cu72   O93     1.933   .     S
H74    C213    1.088   .     S
H76    N135    1.029   .     S
H81    C119    1.082   .     S
H83    C361    1.088   1_545 S
N84    H125    1.029   .     S
N84    N135    1.284   .     S
C94    H99     1.110   .     S
C94    C95     1.532   .     S
C94    H100    1.108   .     S
C95    H97     1.109   .     S
C95    H98     1.111   .     S
C95    H96     1.110   .     S
C101   C111    1.427   .     S
C101   O137    1.285   .     A
C101   O136    1.291   .     A
C102   C103    1.416   .     A
C102   C554    1.425   .     S
C102   C570    1.413   .     S
C103   C110    1.421   .     A
C103   C107    1.411   .     A
C104   C108    1.421   .     A
C104   C552    1.425   1_554 S
C104   C555    1.422   1_554 S
C105   C106    1.394   .     A
C105   C554    1.422   .     S
C105   C566    1.400   .     S
C106   C107    1.387   .     A
C106   H127    1.084   .     S
C107   H132    1.081   .     S
C108   C117    1.412   .     A
C108   C144    1.531   .     S
C109   C117    1.399   .     A
C109   C116    1.388   .     A
C109   H123    1.083   .     S
C110   C112    1.477   .     S
C110   C118    1.403   .     A
C111   C263    1.328   .     S
C111   H283    1.088   .     S
C112   O139    1.295   .     A
C112   O138    1.304   .     A
C113   C114    1.427   .     S
C113   C411    1.328   1_545 S
C113   H424    1.088   1_545 S
C114   O141    1.291   .     A
C114   O140    1.285   .     A
C115   O142    1.294   .     A
C115   O143    1.299   .     A
C115   C117    1.463   .     S
C116   H128    1.084   .     S
C116   C555    1.400   1_554 S
C118   H129    1.083   .     S
C118   C119    1.391   .     A
C119   C570    1.394   .     S
C120   H130    1.081   .     S
C120   C552    1.413   1_554 S
C120   C569    1.394   1_554 S
Cu121  N135    2.019   .     S
Cu121  Cu122   2.686   .     S
Cu121  O140    1.951   .     S
Cu121  O142    1.912   .     S
Cu121  O136    1.955   .     S
Cu121  O138    1.933   .     S
Cu122  O139    1.912   .     S
Cu122  N134    2.019   .     S
Cu122  O141    1.955   .     S
Cu122  O137    1.951   .     S
Cu122  O143    1.933   .     S
H124   C263    1.088   .     S
H126   N35     1.029   1_655 S
H131   C19     1.082   1_655 S
H133   C411    1.088   1_545 S
N134   H25     1.029   1_655 S
N134   N35     1.284   1_655 S
C144   H149    1.110   .     S
C144   C145    1.532   .     S
C144   H150    1.108   .     S
C145   H147    1.109   .     S
C145   H148    1.111   .     S
C145   H146    1.110   .     S
C151   C161    1.427   .     S
C151   O187    1.285   .     A
C151   O186    1.291   .     A
C152   C153    1.416   .     A
C152   C604    1.425   .     S
C152   C620    1.413   .     S
C153   C160    1.421   .     A
C153   C157    1.411   .     A
C154   C158    1.421   .     A
C154   C602    1.425   1_554 S
C154   C605    1.422   1_554 S
C155   C156    1.394   .     A
C155   C604    1.422   .     S
C155   C616    1.400   .     S
C156   C157    1.387   .     A
C156   H177    1.084   .     S
C157   H182    1.081   .     S
C158   C167    1.412   .     A
C158   C194    1.531   .     S
C159   C167    1.399   .     A
C159   C166    1.388   .     A
C159   H173    1.083   .     S
C160   C162    1.477   .     S
C160   C168    1.403   .     A
C161   C313    1.328   .     S
C161   H333    1.088   .     S
C162   O189    1.295   .     A
C162   O188    1.304   .     A
C163   C164    1.427   .     S
C164   O191    1.291   .     A
C164   O190    1.285   .     A
C165   O192    1.294   .     A
C165   O193    1.299   .     A
C165   C167    1.463   .     S
C166   H178    1.084   .     S
C166   C605    1.400   1_554 S
C168   H179    1.083   .     S
C168   C169    1.391   .     A
C169   C620    1.394   .     S
C169   H281    1.082   1_455 S
C170   H180    1.081   .     S
C170   C602    1.413   1_554 S
C170   C619    1.394   1_554 S
Cu171  N185    2.019   .     S
Cu171  Cu172   2.686   .     S
Cu171  O190    1.951   .     S
Cu171  O192    1.912   .     S
Cu171  O186    1.955   .     S
Cu171  O188    1.933   .     S
Cu172  O189    1.912   .     S
Cu172  N184    2.019   .     S
Cu172  O191    1.955   .     S
Cu172  O187    1.951   .     S
Cu172  O193    1.933   .     S
H174   C313    1.088   .     S
H175   N284    1.029   1_455 S
H176   N235    1.029   .     S
H181   C219    1.082   .     S
N184   H225    1.029   .     S
N184   N235    1.284   .     S
N185   N284    1.284   1_455 S
N185   H276    1.029   1_455 S
C194   H199    1.110   .     S
C194   C195    1.532   .     S
C194   H200    1.108   .     S
C195   H197    1.109   .     S
C195   H198    1.111   .     S
C195   H196    1.110   .     S
C201   C211    1.427   .     S
C201   O237    1.285   .     A
C201   O236    1.291   .     A
C202   C203    1.416   .     A
C202   C654    1.425   .     S
C202   C670    1.413   .     S
C203   C210    1.421   .     A
C203   C207    1.411   .     A
C204   C208    1.421   .     A
C204   C652    1.425   1_554 S
C204   C655    1.422   1_554 S
C205   C206    1.394   .     A
C205   C654    1.422   .     S
C205   C666    1.400   .     S
C206   C207    1.387   .     A
C206   H227    1.084   .     S
C207   H232    1.081   .     S
C208   C217    1.412   .     A
C208   C244    1.531   .     S
C209   C217    1.399   .     A
C209   C216    1.388   .     A
C209   H223    1.083   .     S
C210   C212    1.477   .     S
C210   C218    1.403   .     A
C211   C363    1.328   .     S
C211   H383    1.088   .     S
C212   O239    1.295   .     A
C212   O238    1.304   .     A
C213   C214    1.427   .     S
C214   O241    1.291   .     A
C214   O240    1.285   .     A
C215   O242    1.294   .     A
C215   O243    1.299   .     A
C215   C217    1.463   .     S
C216   H228    1.084   .     S
C216   C655    1.400   1_554 S
C218   H229    1.083   .     S
C218   C219    1.391   .     A
C219   C670    1.394   .     S
C220   H230    1.081   .     S
C220   C652    1.413   1_554 S
C220   C669    1.394   1_554 S
Cu221  N235    2.019   .     S
Cu221  Cu222   2.686   .     S
Cu221  O240    1.951   .     S
Cu221  O242    1.912   .     S
Cu221  O236    1.955   .     S
Cu221  O238    1.933   .     S
Cu222  O239    1.912   .     S
Cu222  N234    2.019   .     S
Cu222  O241    1.955   .     S
Cu222  O237    1.951   .     S
Cu222  O243    1.933   .     S
H224   C363    1.088   .     S
H226   N285    1.029   .     S
H231   C269    1.082   .     S
N234   H275    1.029   .     S
N234   N285    1.284   .     S
C244   H249    1.110   .     S
C244   C245    1.532   .     S
C244   H250    1.108   .     S
C245   H247    1.109   .     S
C245   H248    1.111   .     S
C245   H246    1.110   .     S
C251   C261    1.427   .     S
C251   O287    1.285   .     A
C251   O286    1.291   .     A
C252   C253    1.416   .     A
C252   C704    1.425   .     S
C252   C720    1.413   .     S
C253   C260    1.421   .     A
C253   C257    1.411   .     A
C254   C258    1.421   .     A
C254   C702    1.425   1_554 S
C254   C705    1.422   1_554 S
C255   C256    1.394   .     A
C255   C704    1.422   .     S
C255   C716    1.400   .     S
C256   C257    1.387   .     A
C256   H277    1.084   .     S
C257   H282    1.081   .     S
C258   C267    1.412   .     A
C258   C294    1.531   .     S
C259   C267    1.399   .     A
C259   C266    1.388   .     A
C259   H273    1.083   .     S
C260   C262    1.477   .     S
C260   C268    1.403   .     A
C261   C413    1.328   .     S
C261   H433    1.088   .     S
C262   O289    1.295   .     A
C262   O288    1.304   .     A
C263   C264    1.427   .     S
C264   O291    1.291   .     A
C264   O290    1.285   .     A
C265   O292    1.294   .     A
C265   O293    1.299   .     A
C265   C267    1.463   .     S
C266   H278    1.084   .     S
C266   C705    1.400   1_554 S
C268   H279    1.083   .     S
C268   C269    1.391   .     A
C269   C720    1.394   .     S
C270   H280    1.081   .     S
C270   C702    1.413   1_554 S
C270   C719    1.394   1_554 S
Cu271  N285    2.019   .     S
Cu271  Cu272   2.686   .     S
Cu271  O290    1.951   .     S
Cu271  O292    1.912   .     S
Cu271  O286    1.955   .     S
Cu271  O288    1.933   .     S
Cu272  O289    1.912   .     S
Cu272  N284    2.019   .     S
Cu272  O291    1.955   .     S
Cu272  O287    1.951   .     S
Cu272  O293    1.933   .     S
H274   C413    1.088   .     S
H276   N185    1.029   1_655 S
H281   C169    1.082   1_655 S
N284   H175    1.029   1_655 S
N284   N185    1.284   1_655 S
C294   H299    1.110   .     S
C294   C295    1.532   .     S
C294   H300    1.108   .     S
C295   H297    1.109   .     S
C295   H298    1.111   .     S
C295   H296    1.110   .     S
C301   C311    1.427   .     S
C301   O337    1.285   .     A
C301   O336    1.291   .     A
C302   C303    1.416   .     A
C302   C754    1.425   .     S
C302   C770    1.413   .     S
C303   C310    1.421   .     A
C303   C307    1.411   .     A
C304   C308    1.421   .     A
C304   C752    1.425   1_554 S
C304   C755    1.422   1_554 S
C305   C306    1.394   .     A
C305   C754    1.422   .     S
C305   C766    1.400   .     S
C306   C307    1.387   .     A
C306   H327    1.084   .     S
C307   H332    1.081   .     S
C308   C317    1.412   .     A
C308   C344    1.531   .     S
C309   C317    1.399   .     A
C309   C316    1.388   .     A
C309   H323    1.083   .     S
C310   C312    1.477   .     S
C310   C318    1.403   .     A
C311   C13     1.328   1_565 S
C311   H33     1.088   1_565 S
C312   O339    1.295   .     A
C312   O338    1.304   .     A
C313   C314    1.427   .     S
C314   O341    1.291   .     A
C314   O340    1.285   .     A
C315   O342    1.294   .     A
C315   O343    1.299   .     A
C315   C317    1.463   .     S
C316   H328    1.084   .     S
C316   C755    1.400   1_554 S
C318   H329    1.083   .     S
C318   C319    1.391   .     A
C319   C770    1.394   .     S
C319   H431    1.082   1_455 S
C320   H330    1.081   .     S
C320   C752    1.413   1_554 S
C320   C769    1.394   1_554 S
Cu321  N335    2.019   .     S
Cu321  Cu322   2.686   .     S
Cu321  O340    1.951   .     S
Cu321  O342    1.912   .     S
Cu321  O336    1.955   .     S
Cu321  O338    1.933   .     S
Cu322  O339    1.912   .     S
Cu322  N334    2.019   .     S
Cu322  O341    1.955   .     S
Cu322  O337    1.951   .     S
Cu322  O343    1.933   .     S
H324   C13     1.088   1_565 S
H325   N434    1.029   1_455 S
H326   N385    1.029   .     S
H331   C369    1.082   .     S
N334   H375    1.029   .     S
N334   N385    1.284   .     S
N335   N434    1.284   1_455 S
N335   H426    1.029   1_455 S
C344   H349    1.110   .     S
C344   C345    1.532   .     S
C344   H350    1.108   .     S
C345   H347    1.109   .     S
C345   H348    1.111   .     S
C345   H346    1.110   .     S
C351   C361    1.427   .     S
C351   O387    1.285   .     A
C351   O386    1.291   .     A
C352   C353    1.416   .     A
C352   C804    1.425   .     S
C352   C820    1.413   .     S
C353   C360    1.421   .     A
C353   C357    1.411   .     A
C354   C358    1.421   .     A
C354   C802    1.425   1_554 S
C354   C805    1.422   1_554 S
C355   C356    1.394   .     A
C355   C804    1.422   .     S
C355   C816    1.400   .     S
C356   C357    1.387   .     A
C356   H377    1.084   .     S
C357   H382    1.081   .     S
C358   C367    1.412   .     A
C358   C394    1.531   .     S
C359   C367    1.399   .     A
C359   C366    1.388   .     A
C359   H373    1.083   .     S
C360   C362    1.477   .     S
C360   C368    1.403   .     A
C361   C63     1.328   1_565 S
C361   H83     1.088   1_565 S
C362   O389    1.295   .     A
C362   O388    1.304   .     A
C363   C364    1.427   .     S
C364   O391    1.291   .     A
C364   O390    1.285   .     A
C365   O392    1.294   .     A
C365   O393    1.299   .     A
C365   C367    1.463   .     S
C366   H378    1.084   .     S
C366   C805    1.400   1_554 S
C368   H379    1.083   .     S
C368   C369    1.391   .     A
C369   C820    1.394   .     S
C370   H380    1.081   .     S
C370   C802    1.413   1_554 S
C370   C819    1.394   1_554 S
Cu371  N385    2.019   .     S
Cu371  Cu372   2.686   .     S
Cu371  O390    1.951   .     S
Cu371  O392    1.912   .     S
Cu371  O386    1.955   .     S
Cu371  O388    1.933   .     S
Cu372  O389    1.912   .     S
Cu372  N384    2.019   .     S
Cu372  O391    1.955   .     S
Cu372  O387    1.951   .     S
Cu372  O393    1.933   .     S
H374   C63     1.088   1_565 S
H376   N435    1.029   .     S
H381   C419    1.082   .     S
N384   H425    1.029   .     S
N384   N435    1.284   .     S
C394   H399    1.110   .     S
C394   C395    1.532   .     S
C394   H400    1.108   .     S
C395   H397    1.109   .     S
C395   H398    1.111   .     S
C395   H396    1.110   .     S
C401   C411    1.427   .     S
C401   O437    1.285   .     A
C401   O436    1.291   .     A
C402   C403    1.416   .     A
C402   C854    1.425   .     S
C402   C870    1.413   .     S
C403   C410    1.421   .     A
C403   C407    1.411   .     A
C404   C408    1.421   .     A
C404   C852    1.425   1_554 S
C404   C855    1.422   1_554 S
C405   C406    1.394   .     A
C405   C854    1.422   .     S
C405   C866    1.400   .     S
C406   C407    1.387   .     A
C406   H427    1.084   .     S
C407   H432    1.081   .     S
C408   C417    1.412   .     A
C408   C444    1.531   .     S
C409   C417    1.399   .     A
C409   C416    1.388   .     A
C409   H423    1.083   .     S
C410   C412    1.477   .     S
C410   C418    1.403   .     A
C411   C113    1.328   1_565 S
C411   H133    1.088   1_565 S
C412   O439    1.295   .     A
C412   O438    1.304   .     A
C413   C414    1.427   .     S
C414   O441    1.291   .     A
C414   O440    1.285   .     A
C415   O442    1.294   .     A
C415   O443    1.299   .     A
C415   C417    1.463   .     S
C416   H428    1.084   .     S
C416   C855    1.400   1_554 S
C418   H429    1.083   .     S
C418   C419    1.391   .     A
C419   C870    1.394   .     S
C420   H430    1.081   .     S
C420   C852    1.413   1_554 S
C420   C869    1.394   1_554 S
Cu421  N435    2.019   .     S
Cu421  Cu422   2.686   .     S
Cu421  O440    1.951   .     S
Cu421  O442    1.912   .     S
Cu421  O436    1.955   .     S
Cu421  O438    1.933   .     S
Cu422  O439    1.912   .     S
Cu422  N434    2.019   .     S
Cu422  O441    1.955   .     S
Cu422  O437    1.951   .     S
Cu422  O443    1.933   .     S
H424   C113    1.088   1_565 S
H426   N335    1.029   1_655 S
H431   C319    1.082   1_655 S
N434   H325    1.029   1_655 S
N434   N335    1.284   1_655 S
C444   H449    1.110   .     S
C444   C445    1.532   .     S
C444   H450    1.108   .     S
C445   H447    1.109   .     S
C445   H448    1.111   .     S
C445   H446    1.110   .     S
C451   C461    1.427   .     S
C451   O487    1.285   .     A
C451   O486    1.291   .     A
C452   C453    1.416   .     A
C452   C4      1.425   1_556 S
C452   C20     1.413   1_556 S
C453   C460    1.421   .     A
C453   C457    1.411   .     A
C454   C458    1.421   .     A
C455   C456    1.394   .     A
C455   C4      1.422   1_556 S
C455   C16     1.400   1_556 S
C456   C457    1.387   .     A
C456   H477    1.084   .     S
C457   H482    1.081   .     S
C458   C467    1.412   .     A
C458   C494    1.531   .     S
C459   C467    1.399   .     A
C459   C466    1.388   .     A
C459   H473    1.083   .     S
C460   C462    1.477   .     S
C460   C468    1.403   .     A
C461   C613    1.328   .     S
C461   H633    1.088   .     S
C462   O489    1.295   .     A
C462   O488    1.304   .     A
C463   C464    1.427   .     S
C463   C761    1.328   1_545 S
C463   H774    1.088   1_545 S
C464   O491    1.291   .     A
C464   O490    1.285   .     A
C465   O492    1.294   .     A
C465   O493    1.299   .     A
C465   C467    1.463   .     S
C466   H478    1.084   .     S
C468   H479    1.083   .     S
C468   C469    1.391   .     A
C469   C20     1.394   1_556 S
C469   H581    1.082   1_455 S
C470   H480    1.081   .     S
Cu471  N485    2.019   .     S
Cu471  Cu472   2.686   .     S
Cu471  O490    1.951   .     S
Cu471  O492    1.912   .     S
Cu471  O486    1.955   .     S
Cu471  O488    1.933   .     S
Cu472  O489    1.912   .     S
Cu472  N484    2.019   .     S
Cu472  O491    1.955   .     S
Cu472  O487    1.951   .     S
Cu472  O493    1.933   .     S
H474   C613    1.088   .     S
H475   N584    1.029   1_455 S
H476   N535    1.029   .     S
H481   C519    1.082   .     S
H483   C761    1.088   1_545 S
N484   H525    1.029   .     S
N484   N535    1.284   .     S
N485   N584    1.284   1_455 S
N485   H576    1.029   1_455 S
C494   H499    1.110   .     S
C494   C495    1.532   .     S
C494   H500    1.108   .     S
C495   H497    1.109   .     S
C495   H498    1.111   .     S
C495   H496    1.110   .     S
C501   C511    1.427   .     S
C501   O537    1.285   .     A
C501   O536    1.291   .     A
C502   C503    1.416   .     A
C502   C54     1.425   1_556 S
C502   C70     1.413   1_556 S
C503   C510    1.421   .     A
C503   C507    1.411   .     A
C504   C508    1.421   .     A
C505   C506    1.394   .     A
C505   C54     1.422   1_556 S
C505   C66     1.400   1_556 S
C506   C507    1.387   .     A
C506   H527    1.084   .     S
C507   H532    1.081   .     S
C508   C517    1.412   .     A
C508   C544    1.531   .     S
C509   C517    1.399   .     A
C509   C516    1.388   .     A
C509   H523    1.083   .     S
C510   C512    1.477   .     S
C510   C518    1.403   .     A
C511   C663    1.328   .     S
C511   H683    1.088   .     S
C512   O539    1.295   .     A
C512   O538    1.304   .     A
C513   C514    1.427   .     S
C513   C811    1.328   1_545 S
C513   H824    1.088   1_545 S
C514   O541    1.291   .     A
C514   O540    1.285   .     A
C515   O542    1.294   .     A
C515   O543    1.299   .     A
C515   C517    1.463   .     S
C516   H528    1.084   .     S
C518   H529    1.083   .     S
C518   C519    1.391   .     A
C519   C70     1.394   1_556 S
C520   H530    1.081   .     S
Cu521  N535    2.019   .     S
Cu521  Cu522   2.686   .     S
Cu521  O540    1.951   .     S
Cu521  O542    1.912   .     S
Cu521  O536    1.955   .     S
Cu521  O538    1.933   .     S
Cu522  O539    1.912   .     S
Cu522  N534    2.019   .     S
Cu522  O541    1.955   .     S
Cu522  O537    1.951   .     S
Cu522  O543    1.933   .     S
H524   C663    1.088   .     S
H526   N585    1.029   .     S
H531   C569    1.082   .     S
H533   C811    1.088   1_545 S
N534   H575    1.029   .     S
N534   N585    1.284   .     S
C544   H549    1.110   .     S
C544   C545    1.532   .     S
C544   H550    1.108   .     S
C545   H547    1.109   .     S
C545   H548    1.111   .     S
C545   H546    1.110   .     S
C551   C561    1.427   .     S
C551   O587    1.285   .     A
C551   O586    1.291   .     A
C552   C553    1.416   .     A
C552   C104    1.425   1_556 S
C552   C120    1.413   1_556 S
C553   C560    1.421   .     A
C553   C557    1.411   .     A
C554   C558    1.421   .     A
C555   C556    1.394   .     A
C555   C104    1.422   1_556 S
C555   C116    1.400   1_556 S
C556   C557    1.387   .     A
C556   H577    1.084   .     S
C557   H582    1.081   .     S
C558   C567    1.412   .     A
C558   C594    1.531   .     S
C559   C567    1.399   .     A
C559   C566    1.388   .     A
C559   H573    1.083   .     S
C560   C562    1.477   .     S
C560   C568    1.403   .     A
C561   C713    1.328   .     S
C561   H733    1.088   .     S
C562   O589    1.295   .     A
C562   O588    1.304   .     A
C563   C564    1.427   .     S
C563   C861    1.328   1_545 S
C563   H874    1.088   1_545 S
C564   O591    1.291   .     A
C564   O590    1.285   .     A
C565   O592    1.294   .     A
C565   O593    1.299   .     A
C565   C567    1.463   .     S
C566   H578    1.084   .     S
C568   H579    1.083   .     S
C568   C569    1.391   .     A
C569   C120    1.394   1_556 S
C570   H580    1.081   .     S
Cu571  N585    2.019   .     S
Cu571  Cu572   2.686   .     S
Cu571  O590    1.951   .     S
Cu571  O592    1.912   .     S
Cu571  O586    1.955   .     S
Cu571  O588    1.933   .     S
Cu572  O589    1.912   .     S
Cu572  N584    2.019   .     S
Cu572  O591    1.955   .     S
Cu572  O587    1.951   .     S
Cu572  O593    1.933   .     S
H574   C713    1.088   .     S
H576   N485    1.029   1_655 S
H581   C469    1.082   1_655 S
H583   C861    1.088   1_545 S
N584   H475    1.029   1_655 S
N584   N485    1.284   1_655 S
C594   H599    1.110   .     S
C594   C595    1.532   .     S
C594   H600    1.108   .     S
C595   H597    1.109   .     S
C595   H598    1.111   .     S
C595   H596    1.110   .     S
C601   C611    1.427   .     S
C601   O637    1.285   .     A
C601   O636    1.291   .     A
C602   C603    1.416   .     A
C602   C154    1.425   1_556 S
C602   C170    1.413   1_556 S
C603   C610    1.421   .     A
C603   C607    1.411   .     A
C604   C608    1.421   .     A
C605   C606    1.394   .     A
C605   C154    1.422   1_556 S
C605   C166    1.400   1_556 S
C606   C607    1.387   .     A
C606   H627    1.084   .     S
C607   H632    1.081   .     S
C608   C617    1.412   .     A
C608   C644    1.531   .     S
C609   C617    1.399   .     A
C609   C616    1.388   .     A
C609   H623    1.083   .     S
C610   C612    1.477   .     S
C610   C618    1.403   .     A
C611   C763    1.328   .     S
C611   H783    1.088   .     S
C612   O639    1.295   .     A
C612   O638    1.304   .     A
C613   C614    1.427   .     S
C614   O641    1.291   .     A
C614   O640    1.285   .     A
C615   O642    1.294   .     A
C615   O643    1.299   .     A
C615   C617    1.463   .     S
C616   H628    1.084   .     S
C618   H629    1.083   .     S
C618   C619    1.391   .     A
C619   C170    1.394   1_556 S
C619   H731    1.082   1_455 S
C620   H630    1.081   .     S
Cu621  N635    2.019   .     S
Cu621  Cu622   2.686   .     S
Cu621  O640    1.951   .     S
Cu621  O642    1.912   .     S
Cu621  O636    1.955   .     S
Cu621  O638    1.933   .     S
Cu622  O639    1.912   .     S
Cu622  N634    2.019   .     S
Cu622  O641    1.955   .     S
Cu622  O637    1.951   .     S
Cu622  O643    1.933   .     S
H624   C763    1.088   .     S
H625   N734    1.029   1_455 S
H626   N685    1.029   .     S
H631   C669    1.082   .     S
N634   H675    1.029   .     S
N634   N685    1.284   .     S
N635   N734    1.284   1_455 S
N635   H726    1.029   1_455 S
C644   H649    1.110   .     S
C644   C645    1.532   .     S
C644   H650    1.108   .     S
C645   H647    1.109   .     S
C645   H648    1.111   .     S
C645   H646    1.110   .     S
C651   C661    1.427   .     S
C651   O687    1.285   .     A
C651   O686    1.291   .     A
C652   C653    1.416   .     A
C652   C204    1.425   1_556 S
C652   C220    1.413   1_556 S
C653   C660    1.421   .     A
C653   C657    1.411   .     A
C654   C658    1.421   .     A
C655   C656    1.394   .     A
C655   C204    1.422   1_556 S
C655   C216    1.400   1_556 S
C656   C657    1.387   .     A
C656   H677    1.084   .     S
C657   H682    1.081   .     S
C658   C667    1.412   .     A
C658   C694    1.531   .     S
C659   C667    1.399   .     A
C659   C666    1.388   .     A
C659   H673    1.083   .     S
C660   C662    1.477   .     S
C660   C668    1.403   .     A
C661   C813    1.328   .     S
C661   H833    1.088   .     S
C662   O689    1.295   .     A
C662   O688    1.304   .     A
C663   C664    1.427   .     S
C664   O691    1.291   .     A
C664   O690    1.285   .     A
C665   O692    1.294   .     A
C665   O693    1.299   .     A
C665   C667    1.463   .     S
C666   H678    1.084   .     S
C668   H679    1.083   .     S
C668   C669    1.391   .     A
C669   C220    1.394   1_556 S
C670   H680    1.081   .     S
Cu671  N685    2.019   .     S
Cu671  Cu672   2.686   .     S
Cu671  O690    1.951   .     S
Cu671  O692    1.912   .     S
Cu671  O686    1.955   .     S
Cu671  O688    1.933   .     S
Cu672  O689    1.912   .     S
Cu672  N684    2.019   .     S
Cu672  O691    1.955   .     S
Cu672  O687    1.951   .     S
Cu672  O693    1.933   .     S
H674   C813    1.088   .     S
H676   N735    1.029   .     S
H681   C719    1.082   .     S
N684   H725    1.029   .     S
N684   N735    1.284   .     S
C694   H699    1.110   .     S
C694   C695    1.532   .     S
C694   H700    1.108   .     S
C695   H697    1.109   .     S
C695   H698    1.111   .     S
C695   H696    1.110   .     S
C701   C711    1.427   .     S
C701   O737    1.285   .     A
C701   O736    1.291   .     A
C702   C703    1.416   .     A
C702   C254    1.425   1_556 S
C702   C270    1.413   1_556 S
C703   C710    1.421   .     A
C703   C707    1.411   .     A
C704   C708    1.421   .     A
C705   C706    1.394   .     A
C705   C254    1.422   1_556 S
C705   C266    1.400   1_556 S
C706   C707    1.387   .     A
C706   H727    1.084   .     S
C707   H732    1.081   .     S
C708   C717    1.412   .     A
C708   C744    1.531   .     S
C709   C717    1.399   .     A
C709   C716    1.388   .     A
C709   H723    1.083   .     S
C710   C712    1.477   .     S
C710   C718    1.403   .     A
C711   C863    1.328   .     S
C711   H883    1.088   .     S
C712   O739    1.295   .     A
C712   O738    1.304   .     A
C713   C714    1.427   .     S
C714   O741    1.291   .     A
C714   O740    1.285   .     A
C715   O742    1.294   .     A
C715   O743    1.299   .     A
C715   C717    1.463   .     S
C716   H728    1.084   .     S
C718   H729    1.083   .     S
C718   C719    1.391   .     A
C719   C270    1.394   1_556 S
C720   H730    1.081   .     S
Cu721  N735    2.019   .     S
Cu721  Cu722   2.686   .     S
Cu721  O740    1.951   .     S
Cu721  O742    1.912   .     S
Cu721  O736    1.955   .     S
Cu721  O738    1.933   .     S
Cu722  O739    1.912   .     S
Cu722  N734    2.019   .     S
Cu722  O741    1.955   .     S
Cu722  O737    1.951   .     S
Cu722  O743    1.933   .     S
H724   C863    1.088   .     S
H726   N635    1.029   1_655 S
H731   C619    1.082   1_655 S
N734   H625    1.029   1_655 S
N734   N635    1.284   1_655 S
C744   H749    1.110   .     S
C744   C745    1.532   .     S
C744   H750    1.108   .     S
C745   H747    1.109   .     S
C745   H748    1.111   .     S
C745   H746    1.110   .     S
C751   C761    1.427   .     S
C751   O787    1.285   .     A
C751   O786    1.291   .     A
C752   C753    1.416   .     A
C752   C304    1.425   1_556 S
C752   C320    1.413   1_556 S
C753   C760    1.421   .     A
C753   C757    1.411   .     A
C754   C758    1.421   .     A
C755   C756    1.394   .     A
C755   C304    1.422   1_556 S
C755   C316    1.400   1_556 S
C756   C757    1.387   .     A
C756   H777    1.084   .     S
C757   H782    1.081   .     S
C758   C767    1.412   .     A
C758   C794    1.531   .     S
C759   C767    1.399   .     A
C759   C766    1.388   .     A
C759   H773    1.083   .     S
C760   C762    1.477   .     S
C760   C768    1.403   .     A
C761   C463    1.328   1_565 S
C761   H483    1.088   1_565 S
C762   O789    1.295   .     A
C762   O788    1.304   .     A
C763   C764    1.427   .     S
C764   O791    1.291   .     A
C764   O790    1.285   .     A
C765   O792    1.294   .     A
C765   O793    1.299   .     A
C765   C767    1.463   .     S
C766   H778    1.084   .     S
C768   H779    1.083   .     S
C768   C769    1.391   .     A
C769   C320    1.394   1_556 S
C769   H881    1.082   1_455 S
C770   H780    1.081   .     S
Cu771  N785    2.019   .     S
Cu771  Cu772   2.686   .     S
Cu771  O790    1.951   .     S
Cu771  O792    1.912   .     S
Cu771  O786    1.955   .     S
Cu771  O788    1.933   .     S
Cu772  O789    1.912   .     S
Cu772  N784    2.019   .     S
Cu772  O791    1.955   .     S
Cu772  O787    1.951   .     S
Cu772  O793    1.933   .     S
H774   C463    1.088   1_565 S
H775   N884    1.029   1_455 S
H776   N835    1.029   .     S
H781   C819    1.082   .     S
N784   H825    1.029   .     S
N784   N835    1.284   .     S
N785   N884    1.284   1_455 S
N785   H876    1.029   1_455 S
C794   H799    1.110   .     S
C794   C795    1.532   .     S
C794   H800    1.108   .     S
C795   H797    1.109   .     S
C795   H798    1.111   .     S
C795   H796    1.110   .     S
C801   C811    1.427   .     S
C801   O837    1.285   .     A
C801   O836    1.291   .     A
C802   C803    1.416   .     A
C802   C354    1.425   1_556 S
C802   C370    1.413   1_556 S
C803   C810    1.421   .     A
C803   C807    1.411   .     A
C804   C808    1.421   .     A
C805   C806    1.394   .     A
C805   C354    1.422   1_556 S
C805   C366    1.400   1_556 S
C806   C807    1.387   .     A
C806   H827    1.084   .     S
C807   H832    1.081   .     S
C808   C817    1.412   .     A
C808   C844    1.531   .     S
C809   C817    1.399   .     A
C809   C816    1.388   .     A
C809   H823    1.083   .     S
C810   C812    1.477   .     S
C810   C818    1.403   .     A
C811   C513    1.328   1_565 S
C811   H533    1.088   1_565 S
C812   O839    1.295   .     A
C812   O838    1.304   .     A
C813   C814    1.427   .     S
C814   O841    1.291   .     A
C814   O840    1.285   .     A
C815   O842    1.294   .     A
C815   O843    1.299   .     A
C815   C817    1.463   .     S
C816   H828    1.084   .     S
C818   H829    1.083   .     S
C818   C819    1.391   .     A
C819   C370    1.394   1_556 S
C820   H830    1.081   .     S
Cu821  N835    2.019   .     S
Cu821  Cu822   2.686   .     S
Cu821  O840    1.951   .     S
Cu821  O842    1.912   .     S
Cu821  O836    1.955   .     S
Cu821  O838    1.933   .     S
Cu822  O839    1.912   .     S
Cu822  N834    2.019   .     S
Cu822  O841    1.955   .     S
Cu822  O837    1.951   .     S
Cu822  O843    1.933   .     S
H824   C513    1.088   1_565 S
H826   N885    1.029   .     S
H831   C869    1.082   .     S
N834   H875    1.029   .     S
N834   N885    1.284   .     S
C844   H849    1.110   .     S
C844   C845    1.532   .     S
C844   H850    1.108   .     S
C845   H847    1.109   .     S
C845   H848    1.111   .     S
C845   H846    1.110   .     S
C851   C861    1.427   .     S
C851   O887    1.285   .     A
C851   O886    1.291   .     A
C852   C853    1.416   .     A
C852   C404    1.425   1_556 S
C852   C420    1.413   1_556 S
C853   C860    1.421   .     A
C853   C857    1.411   .     A
C854   C858    1.421   .     A
C855   C856    1.394   .     A
C855   C404    1.422   1_556 S
C855   C416    1.400   1_556 S
C856   C857    1.387   .     A
C856   H877    1.084   .     S
C857   H882    1.081   .     S
C858   C867    1.412   .     A
C858   C894    1.531   .     S
C859   C867    1.399   .     A
C859   C866    1.388   .     A
C859   H873    1.083   .     S
C860   C862    1.477   .     S
C860   C868    1.403   .     A
C861   C563    1.328   1_565 S
C861   H583    1.088   1_565 S
C862   O889    1.295   .     A
C862   O888    1.304   .     A
C863   C864    1.427   .     S
C864   O891    1.291   .     A
C864   O890    1.285   .     A
C865   O892    1.294   .     A
C865   O893    1.299   .     A
C865   C867    1.463   .     S
C866   H878    1.084   .     S
C868   H879    1.083   .     S
C868   C869    1.391   .     A
C869   C420    1.394   1_556 S
C870   H880    1.081   .     S
Cu871  N885    2.019   .     S
Cu871  Cu872   2.686   .     S
Cu871  O890    1.951   .     S
Cu871  O892    1.912   .     S
Cu871  O886    1.955   .     S
Cu871  O888    1.933   .     S
Cu872  O889    1.912   .     S
Cu872  N884    2.019   .     S
Cu872  O891    1.955   .     S
Cu872  O887    1.951   .     S
Cu872  O893    1.933   .     S
H874   C563    1.088   1_565 S
H876   N785    1.029   1_655 S
H881   C769    1.082   1_655 S
N884   H775    1.029   1_655 S
N884   N785    1.284   1_655 S
C894   H899    1.110   .     S
C894   C895    1.532   .     S
C894   H900    1.108   .     S
C895   H897    1.109   .     S
C895   H898    1.111   .     S
C895   H896    1.110   .     S
