data_str_m2_o1_o1_pcu_sym.16
_audit_creation_date              2020-01-03
_audit_creation_method            'Materials Studio'
_symmetry_space_group_name_H-M    'P1'
_symmetry_Int_Tables_number       1
_symmetry_cell_setting            triclinic
loop_
_symmetry_equiv_pos_as_xyz
  x,y,z
_cell_length_a                    30.8477
_cell_length_b                    30.8145
_cell_length_c                    28.5611
_cell_angle_alpha                 89.9867
_cell_angle_beta                  90.7256
_cell_angle_gamma                 90.7352
loop_
_atom_site_label
_atom_site_type_symbol
_atom_site_fract_x
_atom_site_fract_y
_atom_site_fract_z
_atom_site_U_iso_or_equiv
_atom_site_adp_type
_atom_site_occupancy
C1     C     0.06090   0.19212   0.16693   0.00000  Uiso   1.00
C2     C     0.00681   0.28752   0.30864   0.00000  Uiso   1.00
C3     C     0.00661   0.28757   0.02486   0.00000  Uiso   1.00
C4     C     0.49367   0.21234   0.30847   0.00000  Uiso   1.00
C5     C     0.23988   0.46316   0.02467   0.00000  Uiso   1.00
C6     C     0.26054   0.03672   0.30867   0.00000  Uiso   1.00
C7     C     0.26022   0.03682   0.02490   0.00000  Uiso   1.00
C8     C     0.23987   0.46317   0.30845   0.00000  Uiso   1.00
C9     C     0.36801   0.16414   0.14234   0.00000  Uiso   1.00
C10    C     0.13050   0.33746   0.19467   0.00000  Uiso   1.00
C11    C     0.08681   0.38096   0.13983   0.00000  Uiso   1.00
C12    C     0.44166   0.31070   0.16620   0.00000  Uiso   1.00
C13    C     0.41471   0.11801   0.19124   0.00000  Uiso   1.00
C14    C     0.10847   0.13999   0.20999   0.00000  Uiso   1.00
C15    C     0.38245   0.35205   0.12458   0.00000  Uiso   1.00
C16    C     0.40129   0.36918   0.20637   0.00000  Uiso   1.00
C17    C     0.11550   0.14802   0.12489   0.00000  Uiso   1.00
C18    C     0.11942   0.41304   0.13985   0.00000  Uiso   1.00
C19    C     0.38135   0.08670   0.19309   0.00000  Uiso   1.00
C20    C     0.33511   0.13243   0.14344   0.00000  Uiso   1.00
C21    C     0.16369   0.36893   0.19349   0.00000  Uiso   1.00
C22    C     0.36457   0.39522   0.20923   0.00000  Uiso   1.00
C23    C     0.44074   0.19054   0.16642   0.00000  Uiso   1.00
C24    C     0.14272   0.11213   0.12393   0.00000  Uiso   1.00
C25    C     0.13805   0.10619   0.20939   0.00000  Uiso   1.00
C26    C     0.34562   0.37811   0.12772   0.00000  Uiso   1.00
C27    C     0.09260   0.34329   0.16727   0.00000  Uiso   1.00
C28    C     0.40769   0.15660   0.16578   0.00000  Uiso   1.00
C29    C     0.40907   0.34550   0.16502   0.00000  Uiso   1.00
C30    C     0.09606   0.16034   0.16748   0.00000  Uiso   1.00
C31    C     0.34240   0.09344   0.16786   0.00000  Uiso   1.00
C32    C     0.15770   0.40665   0.16622   0.00000  Uiso   1.00
C33    C     0.15557   0.09191   0.16642   0.00000  Uiso   1.00
C34    C     0.05921   0.30958   0.16685   0.00000  Uiso   1.00
C35    C     0.33875   0.40261   0.16861   0.00000  Uiso   1.00
C36    C     0.35916   0.20683   0.12062   0.00000  Uiso   1.00
C37    C     0.13642   0.29737   0.22260   0.00000  Uiso   1.00
C38    C     0.04527   0.38850   0.11431   0.00000  Uiso   1.00
C39    C     0.45760   0.10952   0.21384   0.00000  Uiso   1.00
C40    C     0.09256   0.15458   0.25629   0.00000  Uiso   1.00
C41    C     0.39349   0.33406   0.07801   0.00000  Uiso   1.00
C42    C     0.43324   0.36956   0.24577   0.00000  Uiso   1.00
C43    C     0.10925   0.17346   0.08108   0.00000  Uiso   1.00
C44    C     0.11154   0.45543   0.11684   0.00000  Uiso   1.00
C45    C     0.30760   0.43871   0.16715   0.00000  Uiso   1.00
C46    C     0.38732   0.04667   0.22097   0.00000  Uiso   1.00
C47    C     0.29191   0.14160   0.12237   0.00000  Uiso   1.00
C48    C     0.20564   0.36123   0.21842   0.00000  Uiso   1.00
C49    C     0.35184   0.41128   0.25600   0.00000  Uiso   1.00
C50    C     0.15850   0.09732   0.07790   0.00000  Uiso   1.00
C51    C     0.15237   0.08858   0.25514   0.00000  Uiso   1.00
C52    C     0.31225   0.37693   0.08966   0.00000  Uiso   1.00
C53    C     0.18965   0.05867   0.16651   0.00000  Uiso   1.00
C54    C     0.19092   0.44038   0.16651   0.00000  Uiso   1.00
C55    C     0.30923   0.05954   0.16696   0.00000  Uiso   1.00
C56    C     0.49376   0.21233   0.02473   0.00000  Uiso   1.00
Cu57   Cu    0.00000   0.25000   0.21355   0.00000  Uiso   1.00
Cu58   Cu   -0.00000   0.25000   0.11978   0.00000  Uiso   1.00
Cu59   Cu    0.25000  -0.00000   0.21355   0.00000  Uiso   1.00
Cu60   Cu    0.25000  -0.00000   0.11978   0.00000  Uiso   1.00
H61    H     0.48892   0.18211   0.04333   0.00000  Uiso   1.00
H62    H     0.14056   0.27056   0.28693   0.00000  Uiso   1.00
H63    H     0.48036   0.39354   0.11773   0.00000  Uiso   1.00
H64    H     0.49077   0.09128   0.27174   0.00000  Uiso   1.00
H65    H     0.09119   0.20250   0.30423   0.00000  Uiso   1.00
H66    H     0.37648   0.29517   0.02392   0.00000  Uiso   1.00
H67    H     0.49285   0.38803   0.26846   0.00000  Uiso   1.00
H68    H     0.11604   0.23117   0.04840   0.00000  Uiso   1.00
H69    H     0.09712   0.01859   0.12511   0.00000  Uiso   1.00
H70    H     0.39040   0.02006   0.28544   0.00000  Uiso   1.00
H71    H     0.22806   0.14878   0.13312   0.00000  Uiso   1.00
H72    H     0.01256   0.31750   0.29008   0.00000  Uiso   1.00
H73    H     0.23667   0.34700   0.27898   0.00000  Uiso   1.00
H74    H     0.36742   0.44625   0.31349   0.00000  Uiso   1.00
H75    H     0.15704   0.05025   0.02871   0.00000  Uiso   1.00
H76    H     0.19404   0.09456   0.30934   0.00000  Uiso   1.00
H77    H     0.29760   0.38443   0.02165   0.00000  Uiso   1.00
H78    H     0.01179   0.31772   0.04353   0.00000  Uiso   1.00
H79    H     0.48877   0.18215   0.28977   0.00000  Uiso   1.00
H80    H     0.23182   0.43358   0.04315   0.00000  Uiso   1.00
H81    H     0.26885   0.06623   0.29018   0.00000  Uiso   1.00
H82    H     0.26806   0.06648   0.04354   0.00000  Uiso   1.00
H83    H     0.23193   0.43360   0.28981   0.00000  Uiso   1.00
H84    H     0.32720   0.26343   0.12472   0.00000  Uiso   1.00
N85    N    -0.00000   0.25000   0.28402   0.00000  Uiso   1.00
N86    N     0.00000   0.25000   0.04931   0.00000  Uiso   1.00
N87    N     0.25000  -0.00000   0.28402   0.00000  Uiso   1.00
N88    N     0.25000  -0.00000   0.04931   0.00000  Uiso   1.00
O89    O     0.04508   0.20491   0.20625   0.00000  Uiso   1.00
O90    O     0.20491   0.04509   0.12709   0.00000  Uiso   1.00
O91    O     0.20491   0.04509   0.20625   0.00000  Uiso   1.00
O92    O     0.29508   0.45491   0.12709   0.00000  Uiso   1.00
O93    O     0.20491   0.45491   0.12709   0.00000  Uiso   1.00
O94    O     0.29508   0.04509   0.20625   0.00000  Uiso   1.00
O95    O     0.29508   0.04509   0.12709   0.00000  Uiso   1.00
O96    O     0.20491   0.45491   0.20625   0.00000  Uiso   1.00
O97    O     0.37519   0.21617   0.08298   0.00000  Uiso   1.00
O98    O     0.33153   0.23560   0.14296   0.00000  Uiso   1.00
O99    O     0.14278   0.26287   0.20288   0.00000  Uiso   1.00
O100   O     0.45491   0.29509   0.12709   0.00000  Uiso   1.00
O101   O     0.13414   0.29933   0.27138   0.00000  Uiso   1.00
O102   O     0.04529   0.39669   0.07243   0.00000  Uiso   1.00
O103   O     0.00624   0.38662   0.13850   0.00000  Uiso   1.00
O104   O     0.49081   0.11387   0.19128   0.00000  Uiso   1.00
O105   O     0.45997   0.09672   0.26073   0.00000  Uiso   1.00
O106   O     0.06849   0.13107   0.27897   0.00000  Uiso   1.00
O107   O     0.10575   0.19501   0.27377   0.00000  Uiso   1.00
O108   O     0.42611   0.34705   0.05826   0.00000  Uiso   1.00
O109   O     0.36567   0.30421   0.05580   0.00000  Uiso   1.00
O110   O     0.42329   0.35487   0.28399   0.00000  Uiso   1.00
O111   O     0.45491   0.29509   0.20625   0.00000  Uiso   1.00
O112   O     0.47462   0.38714   0.23871   0.00000  Uiso   1.00
O113   O     0.09209   0.15644   0.04679   0.00000  Uiso   1.00
O114   O     0.12258   0.21698   0.07968   0.00000  Uiso   1.00
O115   O     0.11272   0.45853   0.07420   0.00000  Uiso   1.00
O116   O     0.10316   0.49173   0.14445   0.00000  Uiso   1.00
O117   O     0.39406   0.01217   0.20140   0.00000  Uiso   1.00
O118   O     0.38439   0.04879   0.26969   0.00000  Uiso   1.00
O119   O     0.28881   0.15297   0.08145   0.00000  Uiso   1.00
O120   O     0.25504   0.13854   0.15012   0.00000  Uiso   1.00
O121   O     0.23963   0.36357   0.19698   0.00000  Uiso   1.00
O122   O     0.04508   0.20491   0.12709   0.00000  Uiso   1.00
O123   O     0.20625   0.35156   0.26622   0.00000  Uiso   1.00
O124   O     0.31728   0.39933   0.27234   0.00000  Uiso   1.00
O125   O     0.37966   0.43848   0.28184   0.00000  Uiso   1.00
O126   O     0.18585   0.11878   0.05734   0.00000  Uiso   1.00
O127   O     0.14223   0.05858   0.05875   0.00000  Uiso   1.00
O128   O     0.13638   0.05490   0.27010   0.00000  Uiso   1.00
O129   O     0.18470   0.11079   0.28033   0.00000  Uiso   1.00
O130   O     0.27473   0.36734   0.09893   0.00000  Uiso   1.00
O131   O     0.32344   0.38707   0.04373   0.00000  Uiso   1.00
O132   O     0.45491   0.20491   0.12709   0.00000  Uiso   1.00
O133   O     0.04508   0.29509   0.20625   0.00000  Uiso   1.00
O134   O     0.04508   0.29509   0.12709   0.00000  Uiso   1.00
O135   O     0.45491   0.20491   0.20625   0.00000  Uiso   1.00
O136   O     0.29508   0.45491   0.20625   0.00000  Uiso   1.00
C137   C     0.56090   0.19212   0.16693   0.00000  Uiso   1.00
C138   C     0.50681   0.28752   0.30864   0.00000  Uiso   1.00
C139   C     0.50661   0.28757   0.02486   0.00000  Uiso   1.00
C140   C     0.99367   0.21234   0.30847   0.00000  Uiso   1.00
C141   C     0.73988   0.46316   0.02467   0.00000  Uiso   1.00
C142   C     0.76054   0.03672   0.30867   0.00000  Uiso   1.00
C143   C     0.76022   0.03682   0.02490   0.00000  Uiso   1.00
C144   C     0.73987   0.46317   0.30845   0.00000  Uiso   1.00
C145   C     0.86801   0.16414   0.14234   0.00000  Uiso   1.00
C146   C     0.63050   0.33746   0.19467   0.00000  Uiso   1.00
C147   C     0.58681   0.38096   0.13983   0.00000  Uiso   1.00
C148   C     0.94166   0.31070   0.16620   0.00000  Uiso   1.00
C149   C     0.91471   0.11801   0.19124   0.00000  Uiso   1.00
C150   C     0.60847   0.13999   0.20999   0.00000  Uiso   1.00
C151   C     0.88245   0.35205   0.12458   0.00000  Uiso   1.00
C152   C     0.90129   0.36918   0.20637   0.00000  Uiso   1.00
C153   C     0.61550   0.14802   0.12489   0.00000  Uiso   1.00
C154   C     0.61942   0.41304   0.13985   0.00000  Uiso   1.00
C155   C     0.88135   0.08670   0.19309   0.00000  Uiso   1.00
C156   C     0.83511   0.13243   0.14344   0.00000  Uiso   1.00
C157   C     0.66369   0.36893   0.19349   0.00000  Uiso   1.00
C158   C     0.86457   0.39522   0.20923   0.00000  Uiso   1.00
C159   C     0.94074   0.19054   0.16642   0.00000  Uiso   1.00
C160   C     0.64272   0.11213   0.12393   0.00000  Uiso   1.00
C161   C     0.63805   0.10619   0.20939   0.00000  Uiso   1.00
C162   C     0.84562   0.37811   0.12772   0.00000  Uiso   1.00
C163   C     0.59260   0.34329   0.16727   0.00000  Uiso   1.00
C164   C     0.90769   0.15660   0.16578   0.00000  Uiso   1.00
C165   C     0.90907   0.34550   0.16502   0.00000  Uiso   1.00
C166   C     0.59606   0.16034   0.16748   0.00000  Uiso   1.00
C167   C     0.84240   0.09344   0.16786   0.00000  Uiso   1.00
C168   C     0.65770   0.40665   0.16622   0.00000  Uiso   1.00
C169   C     0.65557   0.09191   0.16642   0.00000  Uiso   1.00
C170   C     0.55921   0.30958   0.16685   0.00000  Uiso   1.00
C171   C     0.83875   0.40261   0.16861   0.00000  Uiso   1.00
C172   C     0.85916   0.20683   0.12062   0.00000  Uiso   1.00
C173   C     0.63642   0.29737   0.22260   0.00000  Uiso   1.00
C174   C     0.54527   0.38850   0.11431   0.00000  Uiso   1.00
C175   C     0.95760   0.10952   0.21384   0.00000  Uiso   1.00
C176   C     0.59256   0.15458   0.25629   0.00000  Uiso   1.00
C177   C     0.89349   0.33406   0.07801   0.00000  Uiso   1.00
C178   C     0.93324   0.36956   0.24577   0.00000  Uiso   1.00
C179   C     0.60925   0.17346   0.08108   0.00000  Uiso   1.00
C180   C     0.61154   0.45543   0.11684   0.00000  Uiso   1.00
C181   C     0.80760   0.43871   0.16715   0.00000  Uiso   1.00
C182   C     0.88732   0.04667   0.22097   0.00000  Uiso   1.00
C183   C     0.79191   0.14160   0.12237   0.00000  Uiso   1.00
C184   C     0.70564   0.36123   0.21842   0.00000  Uiso   1.00
C185   C     0.85184   0.41128   0.25600   0.00000  Uiso   1.00
C186   C     0.65850   0.09732   0.07790   0.00000  Uiso   1.00
C187   C     0.65237   0.08858   0.25514   0.00000  Uiso   1.00
C188   C     0.81225   0.37693   0.08966   0.00000  Uiso   1.00
C189   C     0.68965   0.05867   0.16651   0.00000  Uiso   1.00
C190   C     0.69092   0.44038   0.16651   0.00000  Uiso   1.00
C191   C     0.80923   0.05954   0.16696   0.00000  Uiso   1.00
C192   C     0.99376   0.21233   0.02473   0.00000  Uiso   1.00
Cu193  Cu    0.50000   0.25000   0.21355   0.00000  Uiso   1.00
Cu194  Cu    0.50000   0.25000   0.11978   0.00000  Uiso   1.00
Cu195  Cu    0.75000  -0.00000   0.21355   0.00000  Uiso   1.00
Cu196  Cu    0.75000  -0.00000   0.11978   0.00000  Uiso   1.00
H197   H     0.98892   0.18211   0.04333   0.00000  Uiso   1.00
H198   H     0.64056   0.27056   0.28693   0.00000  Uiso   1.00
H199   H     0.98036   0.39354   0.11773   0.00000  Uiso   1.00
H200   H     0.99077   0.09128   0.27174   0.00000  Uiso   1.00
H201   H     0.59119   0.20250   0.30423   0.00000  Uiso   1.00
H202   H     0.87648   0.29517   0.02392   0.00000  Uiso   1.00
H203   H     0.99285   0.38803   0.26846   0.00000  Uiso   1.00
H204   H     0.61604   0.23117   0.04840   0.00000  Uiso   1.00
H205   H     0.59712   0.01859   0.12511   0.00000  Uiso   1.00
H206   H     0.89040   0.02006   0.28544   0.00000  Uiso   1.00
H207   H     0.72806   0.14878   0.13312   0.00000  Uiso   1.00
H208   H     0.51256   0.31750   0.29008   0.00000  Uiso   1.00
H209   H     0.73667   0.34700   0.27898   0.00000  Uiso   1.00
H210   H     0.86742   0.44625   0.31349   0.00000  Uiso   1.00
H211   H     0.65704   0.05025   0.02871   0.00000  Uiso   1.00
H212   H     0.69404   0.09456   0.30934   0.00000  Uiso   1.00
H213   H     0.79760   0.38443   0.02165   0.00000  Uiso   1.00
H214   H     0.51179   0.31772   0.04353   0.00000  Uiso   1.00
H215   H     0.98877   0.18215   0.28977   0.00000  Uiso   1.00
H216   H     0.73182   0.43358   0.04315   0.00000  Uiso   1.00
H217   H     0.76885   0.06623   0.29018   0.00000  Uiso   1.00
H218   H     0.76806   0.06648   0.04354   0.00000  Uiso   1.00
H219   H     0.73193   0.43360   0.28981   0.00000  Uiso   1.00
H220   H     0.82720   0.26343   0.12472   0.00000  Uiso   1.00
N221   N     0.50000   0.25000   0.28402   0.00000  Uiso   1.00
N222   N     0.50000   0.25000   0.04931   0.00000  Uiso   1.00
N223   N     0.75000  -0.00000   0.28402   0.00000  Uiso   1.00
N224   N     0.75000  -0.00000   0.04931   0.00000  Uiso   1.00
O225   O     0.54508   0.20491   0.20625   0.00000  Uiso   1.00
O226   O     0.70491   0.04509   0.12709   0.00000  Uiso   1.00
O227   O     0.70491   0.04509   0.20625   0.00000  Uiso   1.00
O228   O     0.79508   0.45491   0.12709   0.00000  Uiso   1.00
O229   O     0.70491   0.45491   0.12709   0.00000  Uiso   1.00
O230   O     0.79508   0.04509   0.20625   0.00000  Uiso   1.00
O231   O     0.79508   0.04509   0.12709   0.00000  Uiso   1.00
O232   O     0.70491   0.45491   0.20625   0.00000  Uiso   1.00
O233   O     0.87519   0.21617   0.08298   0.00000  Uiso   1.00
O234   O     0.83153   0.23560   0.14296   0.00000  Uiso   1.00
O235   O     0.64278   0.26287   0.20288   0.00000  Uiso   1.00
O236   O     0.95491   0.29509   0.12709   0.00000  Uiso   1.00
O237   O     0.63414   0.29933   0.27138   0.00000  Uiso   1.00
O238   O     0.54529   0.39669   0.07243   0.00000  Uiso   1.00
O239   O     0.50624   0.38662   0.13850   0.00000  Uiso   1.00
O240   O     0.99081   0.11387   0.19128   0.00000  Uiso   1.00
O241   O     0.95997   0.09672   0.26073   0.00000  Uiso   1.00
O242   O     0.56849   0.13107   0.27897   0.00000  Uiso   1.00
O243   O     0.60575   0.19501   0.27377   0.00000  Uiso   1.00
O244   O     0.92611   0.34705   0.05826   0.00000  Uiso   1.00
O245   O     0.86567   0.30421   0.05580   0.00000  Uiso   1.00
O246   O     0.92329   0.35487   0.28399   0.00000  Uiso   1.00
O247   O     0.95491   0.29509   0.20625   0.00000  Uiso   1.00
O248   O     0.97462   0.38714   0.23871   0.00000  Uiso   1.00
O249   O     0.59209   0.15644   0.04679   0.00000  Uiso   1.00
O250   O     0.62258   0.21698   0.07968   0.00000  Uiso   1.00
O251   O     0.61272   0.45853   0.07420   0.00000  Uiso   1.00
O252   O     0.60316   0.49173   0.14445   0.00000  Uiso   1.00
O253   O     0.89406   0.01217   0.20140   0.00000  Uiso   1.00
O254   O     0.88439   0.04879   0.26969   0.00000  Uiso   1.00
O255   O     0.78881   0.15297   0.08145   0.00000  Uiso   1.00
O256   O     0.75504   0.13854   0.15012   0.00000  Uiso   1.00
O257   O     0.73963   0.36357   0.19698   0.00000  Uiso   1.00
O258   O     0.54508   0.20491   0.12709   0.00000  Uiso   1.00
O259   O     0.70625   0.35156   0.26622   0.00000  Uiso   1.00
O260   O     0.81728   0.39933   0.27234   0.00000  Uiso   1.00
O261   O     0.87966   0.43848   0.28184   0.00000  Uiso   1.00
O262   O     0.68585   0.11878   0.05734   0.00000  Uiso   1.00
O263   O     0.64223   0.05858   0.05875   0.00000  Uiso   1.00
O264   O     0.63638   0.05490   0.27010   0.00000  Uiso   1.00
O265   O     0.68470   0.11079   0.28033   0.00000  Uiso   1.00
O266   O     0.77473   0.36734   0.09893   0.00000  Uiso   1.00
O267   O     0.82344   0.38707   0.04373   0.00000  Uiso   1.00
O268   O     0.95491   0.20491   0.12709   0.00000  Uiso   1.00
O269   O     0.54508   0.29509   0.20625   0.00000  Uiso   1.00
O270   O     0.54508   0.29509   0.12709   0.00000  Uiso   1.00
O271   O     0.95491   0.20491   0.20625   0.00000  Uiso   1.00
O272   O     0.79508   0.45491   0.20625   0.00000  Uiso   1.00
C273   C     0.06090   0.69212   0.16693   0.00000  Uiso   1.00
C274   C     0.00681   0.78752   0.30864   0.00000  Uiso   1.00
C275   C     0.00661   0.78757   0.02486   0.00000  Uiso   1.00
C276   C     0.49367   0.71234   0.30847   0.00000  Uiso   1.00
C277   C     0.23988   0.96316   0.02467   0.00000  Uiso   1.00
C278   C     0.26054   0.53672   0.30867   0.00000  Uiso   1.00
C279   C     0.26022   0.53682   0.02490   0.00000  Uiso   1.00
C280   C     0.23987   0.96317   0.30845   0.00000  Uiso   1.00
C281   C     0.36801   0.66414   0.14234   0.00000  Uiso   1.00
C282   C     0.13050   0.83746   0.19467   0.00000  Uiso   1.00
C283   C     0.08681   0.88096   0.13983   0.00000  Uiso   1.00
C284   C     0.44166   0.81070   0.16620   0.00000  Uiso   1.00
C285   C     0.41471   0.61801   0.19124   0.00000  Uiso   1.00
C286   C     0.10847   0.63999   0.20999   0.00000  Uiso   1.00
C287   C     0.38245   0.85205   0.12458   0.00000  Uiso   1.00
C288   C     0.40129   0.86918   0.20637   0.00000  Uiso   1.00
C289   C     0.11550   0.64802   0.12489   0.00000  Uiso   1.00
C290   C     0.11942   0.91304   0.13985   0.00000  Uiso   1.00
C291   C     0.38135   0.58670   0.19309   0.00000  Uiso   1.00
C292   C     0.33511   0.63243   0.14344   0.00000  Uiso   1.00
C293   C     0.16369   0.86893   0.19349   0.00000  Uiso   1.00
C294   C     0.36457   0.89522   0.20923   0.00000  Uiso   1.00
C295   C     0.44074   0.69054   0.16642   0.00000  Uiso   1.00
C296   C     0.14272   0.61213   0.12393   0.00000  Uiso   1.00
C297   C     0.13805   0.60619   0.20939   0.00000  Uiso   1.00
C298   C     0.34562   0.87811   0.12772   0.00000  Uiso   1.00
C299   C     0.09260   0.84329   0.16727   0.00000  Uiso   1.00
C300   C     0.40769   0.65660   0.16578   0.00000  Uiso   1.00
C301   C     0.40907   0.84550   0.16502   0.00000  Uiso   1.00
C302   C     0.09606   0.66034   0.16748   0.00000  Uiso   1.00
C303   C     0.34240   0.59344   0.16786   0.00000  Uiso   1.00
C304   C     0.15770   0.90665   0.16622   0.00000  Uiso   1.00
C305   C     0.15557   0.59191   0.16642   0.00000  Uiso   1.00
C306   C     0.05921   0.80958   0.16685   0.00000  Uiso   1.00
C307   C     0.33875   0.90261   0.16861   0.00000  Uiso   1.00
C308   C     0.35916   0.70683   0.12062   0.00000  Uiso   1.00
C309   C     0.13642   0.79737   0.22260   0.00000  Uiso   1.00
C310   C     0.04527   0.88850   0.11431   0.00000  Uiso   1.00
C311   C     0.45760   0.60952   0.21384   0.00000  Uiso   1.00
C312   C     0.09256   0.65458   0.25629   0.00000  Uiso   1.00
C313   C     0.39349   0.83406   0.07801   0.00000  Uiso   1.00
C314   C     0.43324   0.86956   0.24577   0.00000  Uiso   1.00
C315   C     0.10925   0.67346   0.08108   0.00000  Uiso   1.00
C316   C     0.11154   0.95543   0.11684   0.00000  Uiso   1.00
C317   C     0.30760   0.93871   0.16715   0.00000  Uiso   1.00
C318   C     0.38732   0.54667   0.22097   0.00000  Uiso   1.00
C319   C     0.29191   0.64160   0.12237   0.00000  Uiso   1.00
C320   C     0.20564   0.86123   0.21842   0.00000  Uiso   1.00
C321   C     0.35184   0.91128   0.25600   0.00000  Uiso   1.00
C322   C     0.15850   0.59732   0.07790   0.00000  Uiso   1.00
C323   C     0.15237   0.58858   0.25514   0.00000  Uiso   1.00
C324   C     0.31225   0.87693   0.08966   0.00000  Uiso   1.00
C325   C     0.18965   0.55867   0.16651   0.00000  Uiso   1.00
C326   C     0.19092   0.94038   0.16651   0.00000  Uiso   1.00
C327   C     0.30923   0.55954   0.16696   0.00000  Uiso   1.00
C328   C     0.49376   0.71233   0.02473   0.00000  Uiso   1.00
Cu329  Cu    0.00000   0.75000   0.21355   0.00000  Uiso   1.00
Cu330  Cu   -0.00000   0.75000   0.11978   0.00000  Uiso   1.00
Cu331  Cu    0.25000   0.50000   0.21355   0.00000  Uiso   1.00
Cu332  Cu    0.25000   0.50000   0.11978   0.00000  Uiso   1.00
H333   H     0.48892   0.68211   0.04333   0.00000  Uiso   1.00
H334   H     0.14056   0.77056   0.28693   0.00000  Uiso   1.00
H335   H     0.48036   0.89354   0.11773   0.00000  Uiso   1.00
H336   H     0.49077   0.59128   0.27174   0.00000  Uiso   1.00
H337   H     0.09119   0.70250   0.30423   0.00000  Uiso   1.00
H338   H     0.37648   0.79517   0.02392   0.00000  Uiso   1.00
H339   H     0.49285   0.88803   0.26846   0.00000  Uiso   1.00
H340   H     0.11604   0.73117   0.04840   0.00000  Uiso   1.00
H341   H     0.09712   0.51859   0.12511   0.00000  Uiso   1.00
H342   H     0.39040   0.52006   0.28544   0.00000  Uiso   1.00
H343   H     0.22806   0.64878   0.13312   0.00000  Uiso   1.00
H344   H     0.01256   0.81750   0.29008   0.00000  Uiso   1.00
H345   H     0.23667   0.84700   0.27898   0.00000  Uiso   1.00
H346   H     0.36742   0.94625   0.31349   0.00000  Uiso   1.00
H347   H     0.15704   0.55025   0.02871   0.00000  Uiso   1.00
H348   H     0.19404   0.59456   0.30934   0.00000  Uiso   1.00
H349   H     0.29760   0.88443   0.02165   0.00000  Uiso   1.00
H350   H     0.01179   0.81772   0.04353   0.00000  Uiso   1.00
H351   H     0.48877   0.68215   0.28977   0.00000  Uiso   1.00
H352   H     0.23182   0.93358   0.04315   0.00000  Uiso   1.00
H353   H     0.26885   0.56623   0.29018   0.00000  Uiso   1.00
H354   H     0.26806   0.56648   0.04354   0.00000  Uiso   1.00
H355   H     0.23193   0.93360   0.28981   0.00000  Uiso   1.00
H356   H     0.32720   0.76343   0.12472   0.00000  Uiso   1.00
N357   N    -0.00000   0.75000   0.28402   0.00000  Uiso   1.00
N358   N     0.00000   0.75000   0.04931   0.00000  Uiso   1.00
N359   N     0.25000   0.50000   0.28402   0.00000  Uiso   1.00
N360   N     0.25000   0.50000   0.04931   0.00000  Uiso   1.00
O361   O     0.04508   0.70491   0.20625   0.00000  Uiso   1.00
O362   O     0.20491   0.54509   0.12709   0.00000  Uiso   1.00
O363   O     0.20491   0.54509   0.20625   0.00000  Uiso   1.00
O364   O     0.29508   0.95491   0.12709   0.00000  Uiso   1.00
O365   O     0.20491   0.95491   0.12709   0.00000  Uiso   1.00
O366   O     0.29508   0.54509   0.20625   0.00000  Uiso   1.00
O367   O     0.29508   0.54509   0.12709   0.00000  Uiso   1.00
O368   O     0.20491   0.95491   0.20625   0.00000  Uiso   1.00
O369   O     0.37519   0.71617   0.08298   0.00000  Uiso   1.00
O370   O     0.33153   0.73560   0.14296   0.00000  Uiso   1.00
O371   O     0.14278   0.76287   0.20288   0.00000  Uiso   1.00
O372   O     0.45491   0.79509   0.12709   0.00000  Uiso   1.00
O373   O     0.13414   0.79933   0.27138   0.00000  Uiso   1.00
O374   O     0.04529   0.89669   0.07243   0.00000  Uiso   1.00
O375   O     0.00624   0.88662   0.13850   0.00000  Uiso   1.00
O376   O     0.49081   0.61387   0.19128   0.00000  Uiso   1.00
O377   O     0.45997   0.59672   0.26073   0.00000  Uiso   1.00
O378   O     0.06849   0.63107   0.27897   0.00000  Uiso   1.00
O379   O     0.10575   0.69501   0.27377   0.00000  Uiso   1.00
O380   O     0.42611   0.84705   0.05826   0.00000  Uiso   1.00
O381   O     0.36567   0.80421   0.05580   0.00000  Uiso   1.00
O382   O     0.42329   0.85487   0.28399   0.00000  Uiso   1.00
O383   O     0.45491   0.79509   0.20625   0.00000  Uiso   1.00
O384   O     0.47462   0.88714   0.23871   0.00000  Uiso   1.00
O385   O     0.09209   0.65644   0.04679   0.00000  Uiso   1.00
O386   O     0.12258   0.71698   0.07968   0.00000  Uiso   1.00
O387   O     0.11272   0.95853   0.07420   0.00000  Uiso   1.00
O388   O     0.10316   0.99173   0.14445   0.00000  Uiso   1.00
O389   O     0.39406   0.51217   0.20140   0.00000  Uiso   1.00
O390   O     0.38439   0.54879   0.26969   0.00000  Uiso   1.00
O391   O     0.28881   0.65297   0.08145   0.00000  Uiso   1.00
O392   O     0.25504   0.63854   0.15012   0.00000  Uiso   1.00
O393   O     0.23963   0.86357   0.19698   0.00000  Uiso   1.00
O394   O     0.04508   0.70491   0.12709   0.00000  Uiso   1.00
O395   O     0.20625   0.85156   0.26622   0.00000  Uiso   1.00
O396   O     0.31728   0.89933   0.27234   0.00000  Uiso   1.00
O397   O     0.37966   0.93848   0.28184   0.00000  Uiso   1.00
O398   O     0.18585   0.61878   0.05734   0.00000  Uiso   1.00
O399   O     0.14223   0.55858   0.05875   0.00000  Uiso   1.00
O400   O     0.13638   0.55490   0.27010   0.00000  Uiso   1.00
O401   O     0.18470   0.61079   0.28033   0.00000  Uiso   1.00
O402   O     0.27473   0.86734   0.09893   0.00000  Uiso   1.00
O403   O     0.32344   0.88707   0.04373   0.00000  Uiso   1.00
O404   O     0.45491   0.70491   0.12709   0.00000  Uiso   1.00
O405   O     0.04508   0.79509   0.20625   0.00000  Uiso   1.00
O406   O     0.04508   0.79509   0.12709   0.00000  Uiso   1.00
O407   O     0.45491   0.70491   0.20625   0.00000  Uiso   1.00
O408   O     0.29508   0.95491   0.20625   0.00000  Uiso   1.00
C409   C     0.56090   0.69212   0.16693   0.00000  Uiso   1.00
C410   C     0.50681   0.78752   0.30864   0.00000  Uiso   1.00
C411   C     0.50661   0.78757   0.02486   0.00000  Uiso   1.00
C412   C     0.99367   0.71234   0.30847   0.00000  Uiso   1.00
C413   C     0.73988   0.96316   0.02467   0.00000  Uiso   1.00
C414   C     0.76054   0.53672   0.30867   0.00000  Uiso   1.00
C415   C     0.76022   0.53682   0.02490   0.00000  Uiso   1.00
C416   C     0.73987   0.96317   0.30845   0.00000  Uiso   1.00
C417   C     0.86801   0.66414   0.14234   0.00000  Uiso   1.00
C418   C     0.63050   0.83746   0.19467   0.00000  Uiso   1.00
C419   C     0.58681   0.88096   0.13983   0.00000  Uiso   1.00
C420   C     0.94166   0.81070   0.16620   0.00000  Uiso   1.00
C421   C     0.91471   0.61801   0.19124   0.00000  Uiso   1.00
C422   C     0.60847   0.63999   0.20999   0.00000  Uiso   1.00
C423   C     0.88245   0.85205   0.12458   0.00000  Uiso   1.00
C424   C     0.90129   0.86918   0.20637   0.00000  Uiso   1.00
C425   C     0.61550   0.64802   0.12489   0.00000  Uiso   1.00
C426   C     0.61942   0.91304   0.13985   0.00000  Uiso   1.00
C427   C     0.88135   0.58670   0.19309   0.00000  Uiso   1.00
C428   C     0.83511   0.63243   0.14344   0.00000  Uiso   1.00
C429   C     0.66369   0.86893   0.19349   0.00000  Uiso   1.00
C430   C     0.86457   0.89522   0.20923   0.00000  Uiso   1.00
C431   C     0.94074   0.69054   0.16642   0.00000  Uiso   1.00
C432   C     0.64272   0.61213   0.12393   0.00000  Uiso   1.00
C433   C     0.63805   0.60619   0.20939   0.00000  Uiso   1.00
C434   C     0.84562   0.87811   0.12772   0.00000  Uiso   1.00
C435   C     0.59260   0.84329   0.16727   0.00000  Uiso   1.00
C436   C     0.90769   0.65660   0.16578   0.00000  Uiso   1.00
C437   C     0.90907   0.84550   0.16502   0.00000  Uiso   1.00
C438   C     0.59606   0.66034   0.16748   0.00000  Uiso   1.00
C439   C     0.84240   0.59344   0.16786   0.00000  Uiso   1.00
C440   C     0.65770   0.90665   0.16622   0.00000  Uiso   1.00
C441   C     0.65557   0.59191   0.16642   0.00000  Uiso   1.00
C442   C     0.55921   0.80958   0.16685   0.00000  Uiso   1.00
C443   C     0.83875   0.90261   0.16861   0.00000  Uiso   1.00
C444   C     0.85916   0.70683   0.12062   0.00000  Uiso   1.00
C445   C     0.63642   0.79737   0.22260   0.00000  Uiso   1.00
C446   C     0.54527   0.88850   0.11431   0.00000  Uiso   1.00
C447   C     0.95760   0.60952   0.21384   0.00000  Uiso   1.00
C448   C     0.59256   0.65458   0.25629   0.00000  Uiso   1.00
C449   C     0.89349   0.83406   0.07801   0.00000  Uiso   1.00
C450   C     0.93324   0.86956   0.24577   0.00000  Uiso   1.00
C451   C     0.60925   0.67346   0.08108   0.00000  Uiso   1.00
C452   C     0.61154   0.95543   0.11684   0.00000  Uiso   1.00
C453   C     0.80760   0.93871   0.16715   0.00000  Uiso   1.00
C454   C     0.88732   0.54667   0.22097   0.00000  Uiso   1.00
C455   C     0.79191   0.64160   0.12237   0.00000  Uiso   1.00
C456   C     0.70564   0.86123   0.21842   0.00000  Uiso   1.00
C457   C     0.85184   0.91128   0.25600   0.00000  Uiso   1.00
C458   C     0.65850   0.59732   0.07790   0.00000  Uiso   1.00
C459   C     0.65237   0.58858   0.25514   0.00000  Uiso   1.00
C460   C     0.81225   0.87693   0.08966   0.00000  Uiso   1.00
C461   C     0.68965   0.55867   0.16651   0.00000  Uiso   1.00
C462   C     0.69092   0.94038   0.16651   0.00000  Uiso   1.00
C463   C     0.80923   0.55954   0.16696   0.00000  Uiso   1.00
C464   C     0.99376   0.71233   0.02473   0.00000  Uiso   1.00
Cu465  Cu    0.50000   0.75000   0.21355   0.00000  Uiso   1.00
Cu466  Cu    0.50000   0.75000   0.11978   0.00000  Uiso   1.00
Cu467  Cu    0.75000   0.50000   0.21355   0.00000  Uiso   1.00
Cu468  Cu    0.75000   0.50000   0.11978   0.00000  Uiso   1.00
H469   H     0.98892   0.68211   0.04333   0.00000  Uiso   1.00
H470   H     0.64056   0.77056   0.28693   0.00000  Uiso   1.00
H471   H     0.98036   0.89354   0.11773   0.00000  Uiso   1.00
H472   H     0.99077   0.59128   0.27174   0.00000  Uiso   1.00
H473   H     0.59119   0.70250   0.30423   0.00000  Uiso   1.00
H474   H     0.87648   0.79517   0.02392   0.00000  Uiso   1.00
H475   H     0.99285   0.88803   0.26846   0.00000  Uiso   1.00
H476   H     0.61604   0.73117   0.04840   0.00000  Uiso   1.00
H477   H     0.59712   0.51859   0.12511   0.00000  Uiso   1.00
H478   H     0.89040   0.52006   0.28544   0.00000  Uiso   1.00
H479   H     0.72806   0.64878   0.13312   0.00000  Uiso   1.00
H480   H     0.51256   0.81750   0.29008   0.00000  Uiso   1.00
H481   H     0.73667   0.84700   0.27898   0.00000  Uiso   1.00
H482   H     0.86742   0.94625   0.31349   0.00000  Uiso   1.00
H483   H     0.65704   0.55025   0.02871   0.00000  Uiso   1.00
H484   H     0.69404   0.59456   0.30934   0.00000  Uiso   1.00
H485   H     0.79760   0.88443   0.02165   0.00000  Uiso   1.00
H486   H     0.51179   0.81772   0.04353   0.00000  Uiso   1.00
H487   H     0.98877   0.68215   0.28977   0.00000  Uiso   1.00
H488   H     0.73182   0.93358   0.04315   0.00000  Uiso   1.00
H489   H     0.76885   0.56623   0.29018   0.00000  Uiso   1.00
H490   H     0.76806   0.56648   0.04354   0.00000  Uiso   1.00
H491   H     0.73193   0.93360   0.28981   0.00000  Uiso   1.00
H492   H     0.82720   0.76343   0.12472   0.00000  Uiso   1.00
N493   N     0.50000   0.75000   0.28402   0.00000  Uiso   1.00
N494   N     0.50000   0.75000   0.04931   0.00000  Uiso   1.00
N495   N     0.75000   0.50000   0.28402   0.00000  Uiso   1.00
N496   N     0.75000   0.50000   0.04931   0.00000  Uiso   1.00
O497   O     0.54508   0.70491   0.20625   0.00000  Uiso   1.00
O498   O     0.70491   0.54509   0.12709   0.00000  Uiso   1.00
O499   O     0.70491   0.54509   0.20625   0.00000  Uiso   1.00
O500   O     0.79508   0.95491   0.12709   0.00000  Uiso   1.00
O501   O     0.70491   0.95491   0.12709   0.00000  Uiso   1.00
O502   O     0.79508   0.54509   0.20625   0.00000  Uiso   1.00
O503   O     0.79508   0.54509   0.12709   0.00000  Uiso   1.00
O504   O     0.70491   0.95491   0.20625   0.00000  Uiso   1.00
O505   O     0.87519   0.71617   0.08298   0.00000  Uiso   1.00
O506   O     0.83153   0.73560   0.14296   0.00000  Uiso   1.00
O507   O     0.64278   0.76287   0.20288   0.00000  Uiso   1.00
O508   O     0.95491   0.79509   0.12709   0.00000  Uiso   1.00
O509   O     0.63414   0.79933   0.27138   0.00000  Uiso   1.00
O510   O     0.54529   0.89669   0.07243   0.00000  Uiso   1.00
O511   O     0.50624   0.88662   0.13850   0.00000  Uiso   1.00
O512   O     0.99081   0.61387   0.19128   0.00000  Uiso   1.00
O513   O     0.95997   0.59672   0.26073   0.00000  Uiso   1.00
O514   O     0.56849   0.63107   0.27897   0.00000  Uiso   1.00
O515   O     0.60575   0.69501   0.27377   0.00000  Uiso   1.00
O516   O     0.92611   0.84705   0.05826   0.00000  Uiso   1.00
O517   O     0.86567   0.80421   0.05580   0.00000  Uiso   1.00
O518   O     0.92329   0.85487   0.28399   0.00000  Uiso   1.00
O519   O     0.95491   0.79509   0.20625   0.00000  Uiso   1.00
O520   O     0.97462   0.88714   0.23871   0.00000  Uiso   1.00
O521   O     0.59209   0.65644   0.04679   0.00000  Uiso   1.00
O522   O     0.62258   0.71698   0.07968   0.00000  Uiso   1.00
O523   O     0.61272   0.95853   0.07420   0.00000  Uiso   1.00
O524   O     0.60316   0.99173   0.14445   0.00000  Uiso   1.00
O525   O     0.89406   0.51217   0.20140   0.00000  Uiso   1.00
O526   O     0.88439   0.54879   0.26969   0.00000  Uiso   1.00
O527   O     0.78881   0.65297   0.08145   0.00000  Uiso   1.00
O528   O     0.75504   0.63854   0.15012   0.00000  Uiso   1.00
O529   O     0.73963   0.86357   0.19698   0.00000  Uiso   1.00
O530   O     0.54508   0.70491   0.12709   0.00000  Uiso   1.00
O531   O     0.70625   0.85156   0.26622   0.00000  Uiso   1.00
O532   O     0.81728   0.89933   0.27234   0.00000  Uiso   1.00
O533   O     0.87966   0.93848   0.28184   0.00000  Uiso   1.00
O534   O     0.68585   0.61878   0.05734   0.00000  Uiso   1.00
O535   O     0.64223   0.55858   0.05875   0.00000  Uiso   1.00
O536   O     0.63638   0.55490   0.27010   0.00000  Uiso   1.00
O537   O     0.68470   0.61079   0.28033   0.00000  Uiso   1.00
O538   O     0.77473   0.86734   0.09893   0.00000  Uiso   1.00
O539   O     0.82344   0.88707   0.04373   0.00000  Uiso   1.00
O540   O     0.95491   0.70491   0.12709   0.00000  Uiso   1.00
O541   O     0.54508   0.79509   0.20625   0.00000  Uiso   1.00
O542   O     0.54508   0.79509   0.12709   0.00000  Uiso   1.00
O543   O     0.95491   0.70491   0.20625   0.00000  Uiso   1.00
O544   O     0.79508   0.95491   0.20625   0.00000  Uiso   1.00
C545   C     0.06090   0.19212   0.50026   0.00000  Uiso   1.00
C546   C     0.00681   0.28752   0.64197   0.00000  Uiso   1.00
C547   C     0.00661   0.28757   0.35819   0.00000  Uiso   1.00
C548   C     0.49367   0.21234   0.64180   0.00000  Uiso   1.00
C549   C     0.23988   0.46316   0.35800   0.00000  Uiso   1.00
C550   C     0.26054   0.03672   0.64201   0.00000  Uiso   1.00
C551   C     0.26022   0.03682   0.35823   0.00000  Uiso   1.00
C552   C     0.23987   0.46317   0.64178   0.00000  Uiso   1.00
C553   C     0.36801   0.16414   0.47567   0.00000  Uiso   1.00
C554   C     0.13050   0.33746   0.52800   0.00000  Uiso   1.00
C555   C     0.08681   0.38096   0.47317   0.00000  Uiso   1.00
C556   C     0.44166   0.31070   0.49954   0.00000  Uiso   1.00
C557   C     0.41471   0.11801   0.52458   0.00000  Uiso   1.00
C558   C     0.10847   0.13999   0.54333   0.00000  Uiso   1.00
C559   C     0.38245   0.35205   0.45791   0.00000  Uiso   1.00
C560   C     0.40129   0.36918   0.53970   0.00000  Uiso   1.00
C561   C     0.11550   0.14802   0.45822   0.00000  Uiso   1.00
C562   C     0.11942   0.41304   0.47318   0.00000  Uiso   1.00
C563   C     0.38135   0.08670   0.52643   0.00000  Uiso   1.00
C564   C     0.33511   0.13243   0.47678   0.00000  Uiso   1.00
C565   C     0.16369   0.36893   0.52683   0.00000  Uiso   1.00
C566   C     0.36457   0.39522   0.54257   0.00000  Uiso   1.00
C567   C     0.44074   0.19054   0.49976   0.00000  Uiso   1.00
C568   C     0.14272   0.11213   0.45726   0.00000  Uiso   1.00
C569   C     0.13805   0.10619   0.54273   0.00000  Uiso   1.00
C570   C     0.34562   0.37811   0.46105   0.00000  Uiso   1.00
C571   C     0.09260   0.34329   0.50061   0.00000  Uiso   1.00
C572   C     0.40769   0.15660   0.49911   0.00000  Uiso   1.00
C573   C     0.40907   0.34550   0.49836   0.00000  Uiso   1.00
C574   C     0.09606   0.16034   0.50081   0.00000  Uiso   1.00
C575   C     0.34240   0.09344   0.50119   0.00000  Uiso   1.00
C576   C     0.15770   0.40665   0.49955   0.00000  Uiso   1.00
C577   C     0.15557   0.09191   0.49976   0.00000  Uiso   1.00
C578   C     0.05921   0.30958   0.50019   0.00000  Uiso   1.00
C579   C     0.33875   0.40261   0.50194   0.00000  Uiso   1.00
C580   C     0.35916   0.20683   0.45395   0.00000  Uiso   1.00
C581   C     0.13642   0.29737   0.55593   0.00000  Uiso   1.00
C582   C     0.04527   0.38850   0.44765   0.00000  Uiso   1.00
C583   C     0.45760   0.10952   0.54717   0.00000  Uiso   1.00
C584   C     0.09256   0.15458   0.58962   0.00000  Uiso   1.00
C585   C     0.39349   0.33406   0.41134   0.00000  Uiso   1.00
C586   C     0.43324   0.36956   0.57910   0.00000  Uiso   1.00
C587   C     0.10925   0.17346   0.41441   0.00000  Uiso   1.00
C588   C     0.11154   0.45543   0.45018   0.00000  Uiso   1.00
C589   C     0.30760   0.43871   0.50049   0.00000  Uiso   1.00
C590   C     0.38732   0.04667   0.55430   0.00000  Uiso   1.00
C591   C     0.29191   0.14160   0.45570   0.00000  Uiso   1.00
C592   C     0.20564   0.36123   0.55175   0.00000  Uiso   1.00
C593   C     0.35184   0.41128   0.58933   0.00000  Uiso   1.00
C594   C     0.15850   0.09732   0.41123   0.00000  Uiso   1.00
C595   C     0.15237   0.08858   0.58847   0.00000  Uiso   1.00
C596   C     0.31225   0.37693   0.42300   0.00000  Uiso   1.00
C597   C     0.18965   0.05867   0.49984   0.00000  Uiso   1.00
C598   C     0.19092   0.44038   0.49985   0.00000  Uiso   1.00
C599   C     0.30923   0.05954   0.50029   0.00000  Uiso   1.00
C600   C     0.49376   0.21233   0.35806   0.00000  Uiso   1.00
Cu601  Cu    0.00000   0.25000   0.54689   0.00000  Uiso   1.00
Cu602  Cu   -0.00000   0.25000   0.45311   0.00000  Uiso   1.00
Cu603  Cu    0.25000  -0.00000   0.54689   0.00000  Uiso   1.00
Cu604  Cu    0.25000  -0.00000   0.45311   0.00000  Uiso   1.00
H605   H     0.48892   0.18211   0.37666   0.00000  Uiso   1.00
H606   H     0.14056   0.27056   0.62027   0.00000  Uiso   1.00
H607   H     0.48036   0.39354   0.45107   0.00000  Uiso   1.00
H608   H     0.49077   0.09128   0.60508   0.00000  Uiso   1.00
H609   H     0.09119   0.20250   0.63756   0.00000  Uiso   1.00
H610   H     0.37648   0.29517   0.35725   0.00000  Uiso   1.00
H611   H     0.49285   0.38803   0.60179   0.00000  Uiso   1.00
H612   H     0.11604   0.23117   0.38174   0.00000  Uiso   1.00
H613   H     0.09712   0.01859   0.45844   0.00000  Uiso   1.00
H614   H     0.39040   0.02006   0.61877   0.00000  Uiso   1.00
H615   H     0.22806   0.14878   0.46645   0.00000  Uiso   1.00
H616   H     0.01256   0.31750   0.62342   0.00000  Uiso   1.00
H617   H     0.23667   0.34700   0.61231   0.00000  Uiso   1.00
H618   H     0.36742   0.44625   0.64683   0.00000  Uiso   1.00
H619   H     0.15704   0.05025   0.36205   0.00000  Uiso   1.00
H620   H     0.19404   0.09456   0.64267   0.00000  Uiso   1.00
H621   H     0.29760   0.38443   0.35498   0.00000  Uiso   1.00
H622   H     0.01179   0.31772   0.37686   0.00000  Uiso   1.00
H623   H     0.48877   0.18215   0.62310   0.00000  Uiso   1.00
H624   H     0.23182   0.43358   0.37648   0.00000  Uiso   1.00
H625   H     0.26885   0.06623   0.62351   0.00000  Uiso   1.00
H626   H     0.26806   0.06648   0.37687   0.00000  Uiso   1.00
H627   H     0.23193   0.43360   0.62314   0.00000  Uiso   1.00
H628   H     0.32720   0.26343   0.45805   0.00000  Uiso   1.00
N629   N    -0.00000   0.25000   0.61736   0.00000  Uiso   1.00
N630   N     0.00000   0.25000   0.38264   0.00000  Uiso   1.00
N631   N     0.25000  -0.00000   0.61736   0.00000  Uiso   1.00
N632   N     0.25000  -0.00000   0.38264   0.00000  Uiso   1.00
O633   O     0.04508   0.20491   0.53958   0.00000  Uiso   1.00
O634   O     0.20491   0.04509   0.46042   0.00000  Uiso   1.00
O635   O     0.20491   0.04509   0.53958   0.00000  Uiso   1.00
O636   O     0.29508   0.45491   0.46042   0.00000  Uiso   1.00
O637   O     0.20491   0.45491   0.46042   0.00000  Uiso   1.00
O638   O     0.29508   0.04509   0.53958   0.00000  Uiso   1.00
O639   O     0.29508   0.04509   0.46042   0.00000  Uiso   1.00
O640   O     0.20491   0.45491   0.53958   0.00000  Uiso   1.00
O641   O     0.37519   0.21617   0.41631   0.00000  Uiso   1.00
O642   O     0.33153   0.23560   0.47629   0.00000  Uiso   1.00
O643   O     0.14278   0.26287   0.53621   0.00000  Uiso   1.00
O644   O     0.45491   0.29509   0.46042   0.00000  Uiso   1.00
O645   O     0.13414   0.29933   0.60472   0.00000  Uiso   1.00
O646   O     0.04529   0.39669   0.40576   0.00000  Uiso   1.00
O647   O     0.00624   0.38662   0.47184   0.00000  Uiso   1.00
O648   O     0.49081   0.11387   0.52462   0.00000  Uiso   1.00
O649   O     0.45997   0.09672   0.59406   0.00000  Uiso   1.00
O650   O     0.06849   0.13107   0.61231   0.00000  Uiso   1.00
O651   O     0.10575   0.19501   0.60710   0.00000  Uiso   1.00
O652   O     0.42611   0.34705   0.39160   0.00000  Uiso   1.00
O653   O     0.36567   0.30421   0.38913   0.00000  Uiso   1.00
O654   O     0.42329   0.35487   0.61733   0.00000  Uiso   1.00
O655   O     0.45491   0.29509   0.53958   0.00000  Uiso   1.00
O656   O     0.47462   0.38714   0.57205   0.00000  Uiso   1.00
O657   O     0.09209   0.15644   0.38012   0.00000  Uiso   1.00
O658   O     0.12258   0.21698   0.41301   0.00000  Uiso   1.00
O659   O     0.11272   0.45853   0.40754   0.00000  Uiso   1.00
O660   O     0.10316   0.49173   0.47778   0.00000  Uiso   1.00
O661   O     0.39406   0.01217   0.53473   0.00000  Uiso   1.00
O662   O     0.38439   0.04879   0.60302   0.00000  Uiso   1.00
O663   O     0.28881   0.15297   0.41478   0.00000  Uiso   1.00
O664   O     0.25504   0.13854   0.48345   0.00000  Uiso   1.00
O665   O     0.23963   0.36357   0.53032   0.00000  Uiso   1.00
O666   O     0.04508   0.20491   0.46042   0.00000  Uiso   1.00
O667   O     0.20625   0.35156   0.59955   0.00000  Uiso   1.00
O668   O     0.31728   0.39933   0.60567   0.00000  Uiso   1.00
O669   O     0.37966   0.43848   0.61518   0.00000  Uiso   1.00
O670   O     0.18585   0.11878   0.39067   0.00000  Uiso   1.00
O671   O     0.14223   0.05858   0.39209   0.00000  Uiso   1.00
O672   O     0.13638   0.05490   0.60343   0.00000  Uiso   1.00
O673   O     0.18470   0.11079   0.61367   0.00000  Uiso   1.00
O674   O     0.27473   0.36734   0.43226   0.00000  Uiso   1.00
O675   O     0.32344   0.38707   0.37706   0.00000  Uiso   1.00
O676   O     0.45491   0.20491   0.46042   0.00000  Uiso   1.00
O677   O     0.04508   0.29509   0.53958   0.00000  Uiso   1.00
O678   O     0.04508   0.29509   0.46042   0.00000  Uiso   1.00
O679   O     0.45491   0.20491   0.53958   0.00000  Uiso   1.00
O680   O     0.29508   0.45491   0.53958   0.00000  Uiso   1.00
C681   C     0.56090   0.19212   0.50026   0.00000  Uiso   1.00
C682   C     0.50681   0.28752   0.64197   0.00000  Uiso   1.00
C683   C     0.50661   0.28757   0.35819   0.00000  Uiso   1.00
C684   C     0.99367   0.21234   0.64180   0.00000  Uiso   1.00
C685   C     0.73988   0.46316   0.35800   0.00000  Uiso   1.00
C686   C     0.76054   0.03672   0.64201   0.00000  Uiso   1.00
C687   C     0.76022   0.03682   0.35823   0.00000  Uiso   1.00
C688   C     0.73987   0.46317   0.64178   0.00000  Uiso   1.00
C689   C     0.86801   0.16414   0.47567   0.00000  Uiso   1.00
C690   C     0.63050   0.33746   0.52800   0.00000  Uiso   1.00
C691   C     0.58681   0.38096   0.47317   0.00000  Uiso   1.00
C692   C     0.94166   0.31070   0.49954   0.00000  Uiso   1.00
C693   C     0.91471   0.11801   0.52458   0.00000  Uiso   1.00
C694   C     0.60847   0.13999   0.54333   0.00000  Uiso   1.00
C695   C     0.88245   0.35205   0.45791   0.00000  Uiso   1.00
C696   C     0.90129   0.36918   0.53970   0.00000  Uiso   1.00
C697   C     0.61550   0.14802   0.45822   0.00000  Uiso   1.00
C698   C     0.61942   0.41304   0.47318   0.00000  Uiso   1.00
C699   C     0.88135   0.08670   0.52643   0.00000  Uiso   1.00
C700   C     0.83511   0.13243   0.47678   0.00000  Uiso   1.00
C701   C     0.66369   0.36893   0.52683   0.00000  Uiso   1.00
C702   C     0.86457   0.39522   0.54257   0.00000  Uiso   1.00
C703   C     0.94074   0.19054   0.49976   0.00000  Uiso   1.00
C704   C     0.64272   0.11213   0.45726   0.00000  Uiso   1.00
C705   C     0.63805   0.10619   0.54273   0.00000  Uiso   1.00
C706   C     0.84562   0.37811   0.46105   0.00000  Uiso   1.00
C707   C     0.59260   0.34329   0.50061   0.00000  Uiso   1.00
C708   C     0.90769   0.15660   0.49911   0.00000  Uiso   1.00
C709   C     0.90907   0.34550   0.49836   0.00000  Uiso   1.00
C710   C     0.59606   0.16034   0.50081   0.00000  Uiso   1.00
C711   C     0.84240   0.09344   0.50119   0.00000  Uiso   1.00
C712   C     0.65770   0.40665   0.49955   0.00000  Uiso   1.00
C713   C     0.65557   0.09191   0.49976   0.00000  Uiso   1.00
C714   C     0.55921   0.30958   0.50019   0.00000  Uiso   1.00
C715   C     0.83875   0.40261   0.50194   0.00000  Uiso   1.00
C716   C     0.85916   0.20683   0.45395   0.00000  Uiso   1.00
C717   C     0.63642   0.29737   0.55593   0.00000  Uiso   1.00
C718   C     0.54527   0.38850   0.44765   0.00000  Uiso   1.00
C719   C     0.95760   0.10952   0.54717   0.00000  Uiso   1.00
C720   C     0.59256   0.15458   0.58962   0.00000  Uiso   1.00
C721   C     0.89349   0.33406   0.41134   0.00000  Uiso   1.00
C722   C     0.93324   0.36956   0.57910   0.00000  Uiso   1.00
C723   C     0.60925   0.17346   0.41441   0.00000  Uiso   1.00
C724   C     0.61154   0.45543   0.45018   0.00000  Uiso   1.00
C725   C     0.80760   0.43871   0.50049   0.00000  Uiso   1.00
C726   C     0.88732   0.04667   0.55430   0.00000  Uiso   1.00
C727   C     0.79191   0.14160   0.45570   0.00000  Uiso   1.00
C728   C     0.70564   0.36123   0.55175   0.00000  Uiso   1.00
C729   C     0.85184   0.41128   0.58933   0.00000  Uiso   1.00
C730   C     0.65850   0.09732   0.41123   0.00000  Uiso   1.00
C731   C     0.65237   0.08858   0.58847   0.00000  Uiso   1.00
C732   C     0.81225   0.37693   0.42300   0.00000  Uiso   1.00
C733   C     0.68965   0.05867   0.49984   0.00000  Uiso   1.00
C734   C     0.69092   0.44038   0.49985   0.00000  Uiso   1.00
C735   C     0.80923   0.05954   0.50029   0.00000  Uiso   1.00
C736   C     0.99376   0.21233   0.35806   0.00000  Uiso   1.00
Cu737  Cu    0.50000   0.25000   0.54689   0.00000  Uiso   1.00
Cu738  Cu    0.50000   0.25000   0.45311   0.00000  Uiso   1.00
Cu739  Cu    0.75000  -0.00000   0.54689   0.00000  Uiso   1.00
Cu740  Cu    0.75000  -0.00000   0.45311   0.00000  Uiso   1.00
H741   H     0.98892   0.18211   0.37666   0.00000  Uiso   1.00
H742   H     0.64056   0.27056   0.62027   0.00000  Uiso   1.00
H743   H     0.98036   0.39354   0.45107   0.00000  Uiso   1.00
H744   H     0.99077   0.09128   0.60508   0.00000  Uiso   1.00
H745   H     0.59119   0.20250   0.63756   0.00000  Uiso   1.00
H746   H     0.87648   0.29517   0.35725   0.00000  Uiso   1.00
H747   H     0.99285   0.38803   0.60179   0.00000  Uiso   1.00
H748   H     0.61604   0.23117   0.38174   0.00000  Uiso   1.00
H749   H     0.59712   0.01859   0.45844   0.00000  Uiso   1.00
H750   H     0.89040   0.02006   0.61877   0.00000  Uiso   1.00
H751   H     0.72806   0.14878   0.46645   0.00000  Uiso   1.00
H752   H     0.51256   0.31750   0.62342   0.00000  Uiso   1.00
H753   H     0.73667   0.34700   0.61231   0.00000  Uiso   1.00
H754   H     0.86742   0.44625   0.64683   0.00000  Uiso   1.00
H755   H     0.65704   0.05025   0.36205   0.00000  Uiso   1.00
H756   H     0.69404   0.09456   0.64267   0.00000  Uiso   1.00
H757   H     0.79760   0.38443   0.35498   0.00000  Uiso   1.00
H758   H     0.51179   0.31772   0.37686   0.00000  Uiso   1.00
H759   H     0.98877   0.18215   0.62310   0.00000  Uiso   1.00
H760   H     0.73182   0.43358   0.37648   0.00000  Uiso   1.00
H761   H     0.76885   0.06623   0.62351   0.00000  Uiso   1.00
H762   H     0.76806   0.06648   0.37687   0.00000  Uiso   1.00
H763   H     0.73193   0.43360   0.62314   0.00000  Uiso   1.00
H764   H     0.82720   0.26343   0.45805   0.00000  Uiso   1.00
N765   N     0.50000   0.25000   0.61736   0.00000  Uiso   1.00
N766   N     0.50000   0.25000   0.38264   0.00000  Uiso   1.00
N767   N     0.75000  -0.00000   0.61736   0.00000  Uiso   1.00
N768   N     0.75000  -0.00000   0.38264   0.00000  Uiso   1.00
O769   O     0.54508   0.20491   0.53958   0.00000  Uiso   1.00
O770   O     0.70491   0.04509   0.46042   0.00000  Uiso   1.00
O771   O     0.70491   0.04509   0.53958   0.00000  Uiso   1.00
O772   O     0.79508   0.45491   0.46042   0.00000  Uiso   1.00
O773   O     0.70491   0.45491   0.46042   0.00000  Uiso   1.00
O774   O     0.79508   0.04509   0.53958   0.00000  Uiso   1.00
O775   O     0.79508   0.04509   0.46042   0.00000  Uiso   1.00
O776   O     0.70491   0.45491   0.53958   0.00000  Uiso   1.00
O777   O     0.87519   0.21617   0.41631   0.00000  Uiso   1.00
O778   O     0.83153   0.23560   0.47629   0.00000  Uiso   1.00
O779   O     0.64278   0.26287   0.53621   0.00000  Uiso   1.00
O780   O     0.95491   0.29509   0.46042   0.00000  Uiso   1.00
O781   O     0.63414   0.29933   0.60472   0.00000  Uiso   1.00
O782   O     0.54529   0.39669   0.40576   0.00000  Uiso   1.00
O783   O     0.50624   0.38662   0.47184   0.00000  Uiso   1.00
O784   O     0.99081   0.11387   0.52462   0.00000  Uiso   1.00
O785   O     0.95997   0.09672   0.59406   0.00000  Uiso   1.00
O786   O     0.56849   0.13107   0.61231   0.00000  Uiso   1.00
O787   O     0.60575   0.19501   0.60710   0.00000  Uiso   1.00
O788   O     0.92611   0.34705   0.39160   0.00000  Uiso   1.00
O789   O     0.86567   0.30421   0.38913   0.00000  Uiso   1.00
O790   O     0.92329   0.35487   0.61733   0.00000  Uiso   1.00
O791   O     0.95491   0.29509   0.53958   0.00000  Uiso   1.00
O792   O     0.97462   0.38714   0.57205   0.00000  Uiso   1.00
O793   O     0.59209   0.15644   0.38012   0.00000  Uiso   1.00
O794   O     0.62258   0.21698   0.41301   0.00000  Uiso   1.00
O795   O     0.61272   0.45853   0.40754   0.00000  Uiso   1.00
O796   O     0.60316   0.49173   0.47778   0.00000  Uiso   1.00
O797   O     0.89406   0.01217   0.53473   0.00000  Uiso   1.00
O798   O     0.88439   0.04879   0.60302   0.00000  Uiso   1.00
O799   O     0.78881   0.15297   0.41478   0.00000  Uiso   1.00
O800   O     0.75504   0.13854   0.48345   0.00000  Uiso   1.00
O801   O     0.73963   0.36357   0.53032   0.00000  Uiso   1.00
O802   O     0.54508   0.20491   0.46042   0.00000  Uiso   1.00
O803   O     0.70625   0.35156   0.59955   0.00000  Uiso   1.00
O804   O     0.81728   0.39933   0.60567   0.00000  Uiso   1.00
O805   O     0.87966   0.43848   0.61518   0.00000  Uiso   1.00
O806   O     0.68585   0.11878   0.39067   0.00000  Uiso   1.00
O807   O     0.64223   0.05858   0.39209   0.00000  Uiso   1.00
O808   O     0.63638   0.05490   0.60343   0.00000  Uiso   1.00
O809   O     0.68470   0.11079   0.61367   0.00000  Uiso   1.00
O810   O     0.77473   0.36734   0.43226   0.00000  Uiso   1.00
O811   O     0.82344   0.38707   0.37706   0.00000  Uiso   1.00
O812   O     0.95491   0.20491   0.46042   0.00000  Uiso   1.00
O813   O     0.54508   0.29509   0.53958   0.00000  Uiso   1.00
O814   O     0.54508   0.29509   0.46042   0.00000  Uiso   1.00
O815   O     0.95491   0.20491   0.53958   0.00000  Uiso   1.00
O816   O     0.79508   0.45491   0.53958   0.00000  Uiso   1.00
C817   C     0.06090   0.69212   0.50026   0.00000  Uiso   1.00
C818   C     0.00681   0.78752   0.64197   0.00000  Uiso   1.00
C819   C     0.00661   0.78757   0.35819   0.00000  Uiso   1.00
C820   C     0.49367   0.71234   0.64180   0.00000  Uiso   1.00
C821   C     0.23988   0.96316   0.35800   0.00000  Uiso   1.00
C822   C     0.26054   0.53672   0.64201   0.00000  Uiso   1.00
C823   C     0.26022   0.53682   0.35823   0.00000  Uiso   1.00
C824   C     0.23987   0.96317   0.64178   0.00000  Uiso   1.00
C825   C     0.36801   0.66414   0.47567   0.00000  Uiso   1.00
C826   C     0.13050   0.83746   0.52800   0.00000  Uiso   1.00
C827   C     0.08681   0.88096   0.47317   0.00000  Uiso   1.00
C828   C     0.44166   0.81070   0.49954   0.00000  Uiso   1.00
C829   C     0.41471   0.61801   0.52458   0.00000  Uiso   1.00
C830   C     0.10847   0.63999   0.54333   0.00000  Uiso   1.00
C831   C     0.38245   0.85205   0.45791   0.00000  Uiso   1.00
C832   C     0.40129   0.86918   0.53970   0.00000  Uiso   1.00
C833   C     0.11550   0.64802   0.45822   0.00000  Uiso   1.00
C834   C     0.11942   0.91304   0.47318   0.00000  Uiso   1.00
C835   C     0.38135   0.58670   0.52643   0.00000  Uiso   1.00
C836   C     0.33511   0.63243   0.47678   0.00000  Uiso   1.00
C837   C     0.16369   0.86893   0.52683   0.00000  Uiso   1.00
C838   C     0.36457   0.89522   0.54257   0.00000  Uiso   1.00
C839   C     0.44074   0.69054   0.49976   0.00000  Uiso   1.00
C840   C     0.14272   0.61213   0.45726   0.00000  Uiso   1.00
C841   C     0.13805   0.60619   0.54273   0.00000  Uiso   1.00
C842   C     0.34562   0.87811   0.46105   0.00000  Uiso   1.00
C843   C     0.09260   0.84329   0.50061   0.00000  Uiso   1.00
C844   C     0.40769   0.65660   0.49911   0.00000  Uiso   1.00
C845   C     0.40907   0.84550   0.49836   0.00000  Uiso   1.00
C846   C     0.09606   0.66034   0.50081   0.00000  Uiso   1.00
C847   C     0.34240   0.59344   0.50119   0.00000  Uiso   1.00
C848   C     0.15770   0.90665   0.49955   0.00000  Uiso   1.00
C849   C     0.15557   0.59191   0.49976   0.00000  Uiso   1.00
C850   C     0.05921   0.80958   0.50019   0.00000  Uiso   1.00
C851   C     0.33875   0.90261   0.50194   0.00000  Uiso   1.00
C852   C     0.35916   0.70683   0.45395   0.00000  Uiso   1.00
C853   C     0.13642   0.79737   0.55593   0.00000  Uiso   1.00
C854   C     0.04527   0.88850   0.44765   0.00000  Uiso   1.00
C855   C     0.45760   0.60952   0.54717   0.00000  Uiso   1.00
C856   C     0.09256   0.65458   0.58962   0.00000  Uiso   1.00
C857   C     0.39349   0.83406   0.41134   0.00000  Uiso   1.00
C858   C     0.43324   0.86956   0.57910   0.00000  Uiso   1.00
C859   C     0.10925   0.67346   0.41441   0.00000  Uiso   1.00
C860   C     0.11154   0.95543   0.45018   0.00000  Uiso   1.00
C861   C     0.30760   0.93871   0.50049   0.00000  Uiso   1.00
C862   C     0.38732   0.54667   0.55430   0.00000  Uiso   1.00
C863   C     0.29191   0.64160   0.45570   0.00000  Uiso   1.00
C864   C     0.20564   0.86123   0.55175   0.00000  Uiso   1.00
C865   C     0.35184   0.91128   0.58933   0.00000  Uiso   1.00
C866   C     0.15850   0.59732   0.41123   0.00000  Uiso   1.00
C867   C     0.15237   0.58858   0.58847   0.00000  Uiso   1.00
C868   C     0.31225   0.87693   0.42300   0.00000  Uiso   1.00
C869   C     0.18965   0.55867   0.49984   0.00000  Uiso   1.00
C870   C     0.19092   0.94038   0.49985   0.00000  Uiso   1.00
C871   C     0.30923   0.55954   0.50029   0.00000  Uiso   1.00
C872   C     0.49376   0.71233   0.35806   0.00000  Uiso   1.00
Cu873  Cu    0.00000   0.75000   0.54689   0.00000  Uiso   1.00
Cu874  Cu   -0.00000   0.75000   0.45311   0.00000  Uiso   1.00
Cu875  Cu    0.25000   0.50000   0.54689   0.00000  Uiso   1.00
Cu876  Cu    0.25000   0.50000   0.45311   0.00000  Uiso   1.00
H877   H     0.48892   0.68211   0.37666   0.00000  Uiso   1.00
H878   H     0.14056   0.77056   0.62027   0.00000  Uiso   1.00
H879   H     0.48036   0.89354   0.45107   0.00000  Uiso   1.00
H880   H     0.49077   0.59128   0.60508   0.00000  Uiso   1.00
H881   H     0.09119   0.70250   0.63756   0.00000  Uiso   1.00
H882   H     0.37648   0.79517   0.35725   0.00000  Uiso   1.00
H883   H     0.49285   0.88803   0.60179   0.00000  Uiso   1.00
H884   H     0.11604   0.73117   0.38174   0.00000  Uiso   1.00
H885   H     0.09712   0.51859   0.45844   0.00000  Uiso   1.00
H886   H     0.39040   0.52006   0.61877   0.00000  Uiso   1.00
H887   H     0.22806   0.64878   0.46645   0.00000  Uiso   1.00
H888   H     0.01256   0.81750   0.62342   0.00000  Uiso   1.00
H889   H     0.23667   0.84700   0.61231   0.00000  Uiso   1.00
H890   H     0.36742   0.94625   0.64683   0.00000  Uiso   1.00
H891   H     0.15704   0.55025   0.36205   0.00000  Uiso   1.00
H892   H     0.19404   0.59456   0.64267   0.00000  Uiso   1.00
H893   H     0.29760   0.88443   0.35498   0.00000  Uiso   1.00
H894   H     0.01179   0.81772   0.37686   0.00000  Uiso   1.00
H895   H     0.48877   0.68215   0.62310   0.00000  Uiso   1.00
H896   H     0.23182   0.93358   0.37648   0.00000  Uiso   1.00
H897   H     0.26885   0.56623   0.62351   0.00000  Uiso   1.00
H898   H     0.26806   0.56648   0.37687   0.00000  Uiso   1.00
H899   H     0.23193   0.93360   0.62314   0.00000  Uiso   1.00
H900   H     0.32720   0.76343   0.45805   0.00000  Uiso   1.00
N901   N    -0.00000   0.75000   0.61736   0.00000  Uiso   1.00
N902   N     0.00000   0.75000   0.38264   0.00000  Uiso   1.00
N903   N     0.25000   0.50000   0.61736   0.00000  Uiso   1.00
N904   N     0.25000   0.50000   0.38264   0.00000  Uiso   1.00
O905   O     0.04508   0.70491   0.53958   0.00000  Uiso   1.00
O906   O     0.20491   0.54509   0.46042   0.00000  Uiso   1.00
O907   O     0.20491   0.54509   0.53958   0.00000  Uiso   1.00
O908   O     0.29508   0.95491   0.46042   0.00000  Uiso   1.00
O909   O     0.20491   0.95491   0.46042   0.00000  Uiso   1.00
O910   O     0.29508   0.54509   0.53958   0.00000  Uiso   1.00
O911   O     0.29508   0.54509   0.46042   0.00000  Uiso   1.00
O912   O     0.20491   0.95491   0.53958   0.00000  Uiso   1.00
O913   O     0.37519   0.71617   0.41631   0.00000  Uiso   1.00
O914   O     0.33153   0.73560   0.47629   0.00000  Uiso   1.00
O915   O     0.14278   0.76287   0.53621   0.00000  Uiso   1.00
O916   O     0.45491   0.79509   0.46042   0.00000  Uiso   1.00
O917   O     0.13414   0.79933   0.60472   0.00000  Uiso   1.00
O918   O     0.04529   0.89669   0.40576   0.00000  Uiso   1.00
O919   O     0.00624   0.88662   0.47184   0.00000  Uiso   1.00
O920   O     0.49081   0.61387   0.52462   0.00000  Uiso   1.00
O921   O     0.45997   0.59672   0.59406   0.00000  Uiso   1.00
O922   O     0.06849   0.63107   0.61231   0.00000  Uiso   1.00
O923   O     0.10575   0.69501   0.60710   0.00000  Uiso   1.00
O924   O     0.42611   0.84705   0.39160   0.00000  Uiso   1.00
O925   O     0.36567   0.80421   0.38913   0.00000  Uiso   1.00
O926   O     0.42329   0.85487   0.61733   0.00000  Uiso   1.00
O927   O     0.45491   0.79509   0.53958   0.00000  Uiso   1.00
O928   O     0.47462   0.88714   0.57205   0.00000  Uiso   1.00
O929   O     0.09209   0.65644   0.38012   0.00000  Uiso   1.00
O930   O     0.12258   0.71698   0.41301   0.00000  Uiso   1.00
O931   O     0.11272   0.95853   0.40754   0.00000  Uiso   1.00
O932   O     0.10316   0.99173   0.47778   0.00000  Uiso   1.00
O933   O     0.39406   0.51217   0.53473   0.00000  Uiso   1.00
O934   O     0.38439   0.54879   0.60302   0.00000  Uiso   1.00
O935   O     0.28881   0.65297   0.41478   0.00000  Uiso   1.00
O936   O     0.25504   0.63854   0.48345   0.00000  Uiso   1.00
O937   O     0.23963   0.86357   0.53032   0.00000  Uiso   1.00
O938   O     0.04508   0.70491   0.46042   0.00000  Uiso   1.00
O939   O     0.20625   0.85156   0.59955   0.00000  Uiso   1.00
O940   O     0.31728   0.89933   0.60567   0.00000  Uiso   1.00
O941   O     0.37966   0.93848   0.61518   0.00000  Uiso   1.00
O942   O     0.18585   0.61878   0.39067   0.00000  Uiso   1.00
O943   O     0.14223   0.55858   0.39209   0.00000  Uiso   1.00
O944   O     0.13638   0.55490   0.60343   0.00000  Uiso   1.00
O945   O     0.18470   0.61079   0.61367   0.00000  Uiso   1.00
O946   O     0.27473   0.86734   0.43226   0.00000  Uiso   1.00
O947   O     0.32344   0.88707   0.37706   0.00000  Uiso   1.00
O948   O     0.45491   0.70491   0.46042   0.00000  Uiso   1.00
O949   O     0.04508   0.79509   0.53958   0.00000  Uiso   1.00
O950   O     0.04508   0.79509   0.46042   0.00000  Uiso   1.00
O951   O     0.45491   0.70491   0.53958   0.00000  Uiso   1.00
O952   O     0.29508   0.95491   0.53958   0.00000  Uiso   1.00
C953   C     0.56090   0.69212   0.50026   0.00000  Uiso   1.00
C954   C     0.50681   0.78752   0.64197   0.00000  Uiso   1.00
C955   C     0.50661   0.78757   0.35819   0.00000  Uiso   1.00
C956   C     0.99367   0.71234   0.64180   0.00000  Uiso   1.00
C957   C     0.73988   0.96316   0.35800   0.00000  Uiso   1.00
C958   C     0.76054   0.53672   0.64201   0.00000  Uiso   1.00
C959   C     0.76022   0.53682   0.35823   0.00000  Uiso   1.00
C960   C     0.73987   0.96317   0.64178   0.00000  Uiso   1.00
C961   C     0.86801   0.66414   0.47567   0.00000  Uiso   1.00
C962   C     0.63050   0.83746   0.52800   0.00000  Uiso   1.00
C963   C     0.58681   0.88096   0.47317   0.00000  Uiso   1.00
C964   C     0.94166   0.81070   0.49954   0.00000  Uiso   1.00
C965   C     0.91471   0.61801   0.52458   0.00000  Uiso   1.00
C966   C     0.60847   0.63999   0.54333   0.00000  Uiso   1.00
C967   C     0.88245   0.85205   0.45791   0.00000  Uiso   1.00
C968   C     0.90129   0.86918   0.53970   0.00000  Uiso   1.00
C969   C     0.61550   0.64802   0.45822   0.00000  Uiso   1.00
C970   C     0.61942   0.91304   0.47318   0.00000  Uiso   1.00
C971   C     0.88135   0.58670   0.52643   0.00000  Uiso   1.00
C972   C     0.83511   0.63243   0.47678   0.00000  Uiso   1.00
C973   C     0.66369   0.86893   0.52683   0.00000  Uiso   1.00
C974   C     0.86457   0.89522   0.54257   0.00000  Uiso   1.00
C975   C     0.94074   0.69054   0.49976   0.00000  Uiso   1.00
C976   C     0.64272   0.61213   0.45726   0.00000  Uiso   1.00
C977   C     0.63805   0.60619   0.54273   0.00000  Uiso   1.00
C978   C     0.84562   0.87811   0.46105   0.00000  Uiso   1.00
C979   C     0.59260   0.84329   0.50061   0.00000  Uiso   1.00
C980   C     0.90769   0.65660   0.49911   0.00000  Uiso   1.00
C981   C     0.90907   0.84550   0.49836   0.00000  Uiso   1.00
C982   C     0.59606   0.66034   0.50081   0.00000  Uiso   1.00
C983   C     0.84240   0.59344   0.50119   0.00000  Uiso   1.00
C984   C     0.65770   0.90665   0.49955   0.00000  Uiso   1.00
C985   C     0.65557   0.59191   0.49976   0.00000  Uiso   1.00
C986   C     0.55921   0.80958   0.50019   0.00000  Uiso   1.00
C987   C     0.83875   0.90261   0.50194   0.00000  Uiso   1.00
C988   C     0.85916   0.70683   0.45395   0.00000  Uiso   1.00
C989   C     0.63642   0.79737   0.55593   0.00000  Uiso   1.00
C990   C     0.54527   0.88850   0.44765   0.00000  Uiso   1.00
C991   C     0.95760   0.60952   0.54717   0.00000  Uiso   1.00
C992   C     0.59256   0.65458   0.58962   0.00000  Uiso   1.00
C993   C     0.89349   0.83406   0.41134   0.00000  Uiso   1.00
C994   C     0.93324   0.86956   0.57910   0.00000  Uiso   1.00
C995   C     0.60925   0.67346   0.41441   0.00000  Uiso   1.00
C996   C     0.61154   0.95543   0.45018   0.00000  Uiso   1.00
C997   C     0.80760   0.93871   0.50049   0.00000  Uiso   1.00
C998   C     0.88732   0.54667   0.55430   0.00000  Uiso   1.00
C999   C     0.79191   0.64160   0.45570   0.00000  Uiso   1.00
C1000  C     0.70564   0.86123   0.55175   0.00000  Uiso   1.00
C1001  C     0.85184   0.91128   0.58933   0.00000  Uiso   1.00
C1002  C     0.65850   0.59732   0.41123   0.00000  Uiso   1.00
C1003  C     0.65237   0.58858   0.58847   0.00000  Uiso   1.00
C1004  C     0.81225   0.87693   0.42300   0.00000  Uiso   1.00
C1005  C     0.68965   0.55867   0.49984   0.00000  Uiso   1.00
C1006  C     0.69092   0.94038   0.49985   0.00000  Uiso   1.00
C1007  C     0.80923   0.55954   0.50029   0.00000  Uiso   1.00
C1008  C     0.99376   0.71233   0.35806   0.00000  Uiso   1.00
Cu1009 Cu    0.50000   0.75000   0.54689   0.00000  Uiso   1.00
Cu1010 Cu    0.50000   0.75000   0.45311   0.00000  Uiso   1.00
Cu1011 Cu    0.75000   0.50000   0.54689   0.00000  Uiso   1.00
Cu1012 Cu    0.75000   0.50000   0.45311   0.00000  Uiso   1.00
H1013  H     0.98892   0.68211   0.37666   0.00000  Uiso   1.00
H1014  H     0.64056   0.77056   0.62027   0.00000  Uiso   1.00
H1015  H     0.98036   0.89354   0.45107   0.00000  Uiso   1.00
H1016  H     0.99077   0.59128   0.60508   0.00000  Uiso   1.00
H1017  H     0.59119   0.70250   0.63756   0.00000  Uiso   1.00
H1018  H     0.87648   0.79517   0.35725   0.00000  Uiso   1.00
H1019  H     0.99285   0.88803   0.60179   0.00000  Uiso   1.00
H1020  H     0.61604   0.73117   0.38174   0.00000  Uiso   1.00
H1021  H     0.59712   0.51859   0.45844   0.00000  Uiso   1.00
H1022  H     0.89040   0.52006   0.61877   0.00000  Uiso   1.00
H1023  H     0.72806   0.64878   0.46645   0.00000  Uiso   1.00
H1024  H     0.51256   0.81750   0.62342   0.00000  Uiso   1.00
H1025  H     0.73667   0.84700   0.61231   0.00000  Uiso   1.00
H1026  H     0.86742   0.94625   0.64683   0.00000  Uiso   1.00
H1027  H     0.65704   0.55025   0.36205   0.00000  Uiso   1.00
H1028  H     0.69404   0.59456   0.64267   0.00000  Uiso   1.00
H1029  H     0.79760   0.88443   0.35498   0.00000  Uiso   1.00
H1030  H     0.51179   0.81772   0.37686   0.00000  Uiso   1.00
H1031  H     0.98877   0.68215   0.62310   0.00000  Uiso   1.00
H1032  H     0.73182   0.93358   0.37648   0.00000  Uiso   1.00
H1033  H     0.76885   0.56623   0.62351   0.00000  Uiso   1.00
H1034  H     0.76806   0.56648   0.37687   0.00000  Uiso   1.00
H1035  H     0.73193   0.93360   0.62314   0.00000  Uiso   1.00
H1036  H     0.82720   0.76343   0.45805   0.00000  Uiso   1.00
N1037  N     0.50000   0.75000   0.61736   0.00000  Uiso   1.00
N1038  N     0.50000   0.75000   0.38264   0.00000  Uiso   1.00
N1039  N     0.75000   0.50000   0.61736   0.00000  Uiso   1.00
N1040  N     0.75000   0.50000   0.38264   0.00000  Uiso   1.00
O1041  O     0.54508   0.70491   0.53958   0.00000  Uiso   1.00
O1042  O     0.70491   0.54509   0.46042   0.00000  Uiso   1.00
O1043  O     0.70491   0.54509   0.53958   0.00000  Uiso   1.00
O1044  O     0.79508   0.95491   0.46042   0.00000  Uiso   1.00
O1045  O     0.70491   0.95491   0.46042   0.00000  Uiso   1.00
O1046  O     0.79508   0.54509   0.53958   0.00000  Uiso   1.00
O1047  O     0.79508   0.54509   0.46042   0.00000  Uiso   1.00
O1048  O     0.70491   0.95491   0.53958   0.00000  Uiso   1.00
O1049  O     0.87519   0.71617   0.41631   0.00000  Uiso   1.00
O1050  O     0.83153   0.73560   0.47629   0.00000  Uiso   1.00
O1051  O     0.64278   0.76287   0.53621   0.00000  Uiso   1.00
O1052  O     0.95491   0.79509   0.46042   0.00000  Uiso   1.00
O1053  O     0.63414   0.79933   0.60472   0.00000  Uiso   1.00
O1054  O     0.54529   0.89669   0.40576   0.00000  Uiso   1.00
O1055  O     0.50624   0.88662   0.47184   0.00000  Uiso   1.00
O1056  O     0.99081   0.61387   0.52462   0.00000  Uiso   1.00
O1057  O     0.95997   0.59672   0.59406   0.00000  Uiso   1.00
O1058  O     0.56849   0.63107   0.61231   0.00000  Uiso   1.00
O1059  O     0.60575   0.69501   0.60710   0.00000  Uiso   1.00
O1060  O     0.92611   0.84705   0.39160   0.00000  Uiso   1.00
O1061  O     0.86567   0.80421   0.38913   0.00000  Uiso   1.00
O1062  O     0.92329   0.85487   0.61733   0.00000  Uiso   1.00
O1063  O     0.95491   0.79509   0.53958   0.00000  Uiso   1.00
O1064  O     0.97462   0.88714   0.57205   0.00000  Uiso   1.00
O1065  O     0.59209   0.65644   0.38012   0.00000  Uiso   1.00
O1066  O     0.62258   0.71698   0.41301   0.00000  Uiso   1.00
O1067  O     0.61272   0.95853   0.40754   0.00000  Uiso   1.00
O1068  O     0.60316   0.99173   0.47778   0.00000  Uiso   1.00
O1069  O     0.89406   0.51217   0.53473   0.00000  Uiso   1.00
O1070  O     0.88439   0.54879   0.60302   0.00000  Uiso   1.00
O1071  O     0.78881   0.65297   0.41478   0.00000  Uiso   1.00
O1072  O     0.75504   0.63854   0.48345   0.00000  Uiso   1.00
O1073  O     0.73963   0.86357   0.53032   0.00000  Uiso   1.00
O1074  O     0.54508   0.70491   0.46042   0.00000  Uiso   1.00
O1075  O     0.70625   0.85156   0.59955   0.00000  Uiso   1.00
O1076  O     0.81728   0.89933   0.60567   0.00000  Uiso   1.00
O1077  O     0.87966   0.93848   0.61518   0.00000  Uiso   1.00
O1078  O     0.68585   0.61878   0.39067   0.00000  Uiso   1.00
O1079  O     0.64223   0.55858   0.39209   0.00000  Uiso   1.00
O1080  O     0.63638   0.55490   0.60343   0.00000  Uiso   1.00
O1081  O     0.68470   0.61079   0.61367   0.00000  Uiso   1.00
O1082  O     0.77473   0.86734   0.43226   0.00000  Uiso   1.00
O1083  O     0.82344   0.88707   0.37706   0.00000  Uiso   1.00
O1084  O     0.95491   0.70491   0.46042   0.00000  Uiso   1.00
O1085  O     0.54508   0.79509   0.53958   0.00000  Uiso   1.00
O1086  O     0.54508   0.79509   0.46042   0.00000  Uiso   1.00
O1087  O     0.95491   0.70491   0.53958   0.00000  Uiso   1.00
O1088  O     0.79508   0.95491   0.53958   0.00000  Uiso   1.00
C1089  C     0.06090   0.19212   0.83360   0.00000  Uiso   1.00
C1090  C     0.00681   0.28752   0.97530   0.00000  Uiso   1.00
C1091  C     0.00661   0.28757   0.69153   0.00000  Uiso   1.00
C1092  C     0.49367   0.21234   0.97513   0.00000  Uiso   1.00
C1093  C     0.23988   0.46316   0.69134   0.00000  Uiso   1.00
C1094  C     0.26054   0.03672   0.97534   0.00000  Uiso   1.00
C1095  C     0.26022   0.03682   0.69157   0.00000  Uiso   1.00
C1096  C     0.23987   0.46317   0.97512   0.00000  Uiso   1.00
C1097  C     0.36801   0.16414   0.80901   0.00000  Uiso   1.00
C1098  C     0.13050   0.33746   0.86134   0.00000  Uiso   1.00
C1099  C     0.08681   0.38096   0.80650   0.00000  Uiso   1.00
C1100  C     0.44166   0.31070   0.83287   0.00000  Uiso   1.00
C1101  C     0.41471   0.11801   0.85791   0.00000  Uiso   1.00
C1102  C     0.10847   0.13999   0.87666   0.00000  Uiso   1.00
C1103  C     0.38245   0.35205   0.79124   0.00000  Uiso   1.00
C1104  C     0.40129   0.36918   0.87304   0.00000  Uiso   1.00
C1105  C     0.11550   0.14802   0.79155   0.00000  Uiso   1.00
C1106  C     0.11942   0.41304   0.80652   0.00000  Uiso   1.00
C1107  C     0.38135   0.08670   0.85976   0.00000  Uiso   1.00
C1108  C     0.33511   0.13243   0.81011   0.00000  Uiso   1.00
C1109  C     0.16369   0.36893   0.86016   0.00000  Uiso   1.00
C1110  C     0.36457   0.39522   0.87590   0.00000  Uiso   1.00
C1111  C     0.44074   0.19054   0.83309   0.00000  Uiso   1.00
C1112  C     0.14272   0.11213   0.79060   0.00000  Uiso   1.00
C1113  C     0.13805   0.10619   0.87606   0.00000  Uiso   1.00
C1114  C     0.34562   0.37811   0.79438   0.00000  Uiso   1.00
C1115  C     0.09260   0.34329   0.83394   0.00000  Uiso   1.00
C1116  C     0.40769   0.15660   0.83244   0.00000  Uiso   1.00
C1117  C     0.40907   0.34550   0.83169   0.00000  Uiso   1.00
C1118  C     0.09606   0.16034   0.83415   0.00000  Uiso   1.00
C1119  C     0.34240   0.09344   0.83453   0.00000  Uiso   1.00
C1120  C     0.15770   0.40665   0.83289   0.00000  Uiso   1.00
C1121  C     0.15557   0.09191   0.83309   0.00000  Uiso   1.00
C1122  C     0.05921   0.30958   0.83352   0.00000  Uiso   1.00
C1123  C     0.33875   0.40261   0.83527   0.00000  Uiso   1.00
C1124  C     0.35916   0.20683   0.78728   0.00000  Uiso   1.00
C1125  C     0.13642   0.29737   0.88926   0.00000  Uiso   1.00
C1126  C     0.04527   0.38850   0.78098   0.00000  Uiso   1.00
C1127  C     0.45760   0.10952   0.88050   0.00000  Uiso   1.00
C1128  C     0.09256   0.15458   0.92296   0.00000  Uiso   1.00
C1129  C     0.39349   0.33406   0.74467   0.00000  Uiso   1.00
C1130  C     0.43324   0.36956   0.91243   0.00000  Uiso   1.00
C1131  C     0.10925   0.17346   0.74774   0.00000  Uiso   1.00
C1132  C     0.11154   0.45543   0.78351   0.00000  Uiso   1.00
C1133  C     0.30760   0.43871   0.83382   0.00000  Uiso   1.00
C1134  C     0.38732   0.04667   0.88763   0.00000  Uiso   1.00
C1135  C     0.29191   0.14160   0.78903   0.00000  Uiso   1.00
C1136  C     0.20564   0.36123   0.88509   0.00000  Uiso   1.00
C1137  C     0.35184   0.41128   0.92266   0.00000  Uiso   1.00
C1138  C     0.15850   0.09732   0.74456   0.00000  Uiso   1.00
C1139  C     0.15237   0.08858   0.92180   0.00000  Uiso   1.00
C1140  C     0.31225   0.37693   0.75633   0.00000  Uiso   1.00
C1141  C     0.18965   0.05867   0.83317   0.00000  Uiso   1.00
C1142  C     0.19092   0.44038   0.83318   0.00000  Uiso   1.00
C1143  C     0.30923   0.05954   0.83362   0.00000  Uiso   1.00
C1144  C     0.49376   0.21233   0.69140   0.00000  Uiso   1.00
Cu1145 Cu    0.00000   0.25000   0.88022   0.00000  Uiso   1.00
Cu1146 Cu   -0.00000   0.25000   0.78645   0.00000  Uiso   1.00
Cu1147 Cu    0.25000  -0.00000   0.88022   0.00000  Uiso   1.00
Cu1148 Cu    0.25000  -0.00000   0.78645   0.00000  Uiso   1.00
H1149  H     0.48892   0.18211   0.70999   0.00000  Uiso   1.00
H1150  H     0.14056   0.27056   0.95360   0.00000  Uiso   1.00
H1151  H     0.48036   0.39354   0.78440   0.00000  Uiso   1.00
H1152  H     0.49077   0.09128   0.93841   0.00000  Uiso   1.00
H1153  H     0.09119   0.20250   0.97089   0.00000  Uiso   1.00
H1154  H     0.37648   0.29517   0.69059   0.00000  Uiso   1.00
H1155  H     0.49285   0.38803   0.93513   0.00000  Uiso   1.00
H1156  H     0.11604   0.23117   0.71507   0.00000  Uiso   1.00
H1157  H     0.09712   0.01859   0.79177   0.00000  Uiso   1.00
H1158  H     0.39040   0.02006   0.95210   0.00000  Uiso   1.00
H1159  H     0.22806   0.14878   0.79978   0.00000  Uiso   1.00
H1160  H     0.01256   0.31750   0.95675   0.00000  Uiso   1.00
H1161  H     0.23667   0.34700   0.94564   0.00000  Uiso   1.00
H1162  H     0.36742   0.44625   0.98016   0.00000  Uiso   1.00
H1163  H     0.15704   0.05025   0.69538   0.00000  Uiso   1.00
H1164  H     0.19404   0.09456   0.97601   0.00000  Uiso   1.00
H1165  H     0.29760   0.38443   0.68831   0.00000  Uiso   1.00
H1166  H     0.01179   0.31772   0.71019   0.00000  Uiso   1.00
H1167  H     0.48877   0.18215   0.95643   0.00000  Uiso   1.00
H1168  H     0.23182   0.43358   0.70982   0.00000  Uiso   1.00
H1169  H     0.26885   0.06623   0.95685   0.00000  Uiso   1.00
H1170  H     0.26806   0.06648   0.71021   0.00000  Uiso   1.00
H1171  H     0.23193   0.43360   0.95647   0.00000  Uiso   1.00
H1172  H     0.32720   0.26343   0.79138   0.00000  Uiso   1.00
N1173  N    -0.00000   0.25000   0.95069   0.00000  Uiso   1.00
N1174  N     0.00000   0.25000   0.71598   0.00000  Uiso   1.00
N1175  N     0.25000  -0.00000   0.95069   0.00000  Uiso   1.00
N1176  N     0.25000  -0.00000   0.71598   0.00000  Uiso   1.00
O1177  O     0.04508   0.20491   0.87291   0.00000  Uiso   1.00
O1178  O     0.20491   0.04509   0.79375   0.00000  Uiso   1.00
O1179  O     0.20491   0.04509   0.87291   0.00000  Uiso   1.00
O1180  O     0.29508   0.45491   0.79375   0.00000  Uiso   1.00
O1181  O     0.20491   0.45491   0.79375   0.00000  Uiso   1.00
O1182  O     0.29508   0.04509   0.87291   0.00000  Uiso   1.00
O1183  O     0.29508   0.04509   0.79375   0.00000  Uiso   1.00
O1184  O     0.20491   0.45491   0.87291   0.00000  Uiso   1.00
O1185  O     0.37519   0.21617   0.74964   0.00000  Uiso   1.00
O1186  O     0.33153   0.23560   0.80963   0.00000  Uiso   1.00
O1187  O     0.14278   0.26287   0.86954   0.00000  Uiso   1.00
O1188  O     0.45491   0.29509   0.79375   0.00000  Uiso   1.00
O1189  O     0.13414   0.29933   0.93805   0.00000  Uiso   1.00
O1190  O     0.04529   0.39669   0.73909   0.00000  Uiso   1.00
O1191  O     0.00624   0.38662   0.80517   0.00000  Uiso   1.00
O1192  O     0.49081   0.11387   0.85795   0.00000  Uiso   1.00
O1193  O     0.45997   0.09672   0.92739   0.00000  Uiso   1.00
O1194  O     0.06849   0.13107   0.94564   0.00000  Uiso   1.00
O1195  O     0.10575   0.19501   0.94043   0.00000  Uiso   1.00
O1196  O     0.42611   0.34705   0.72493   0.00000  Uiso   1.00
O1197  O     0.36567   0.30421   0.72246   0.00000  Uiso   1.00
O1198  O     0.42329   0.35487   0.95066   0.00000  Uiso   1.00
O1199  O     0.45491   0.29509   0.87291   0.00000  Uiso   1.00
O1200  O     0.47462   0.38714   0.90538   0.00000  Uiso   1.00
O1201  O     0.09209   0.15644   0.71346   0.00000  Uiso   1.00
O1202  O     0.12258   0.21698   0.74634   0.00000  Uiso   1.00
O1203  O     0.11272   0.45853   0.74087   0.00000  Uiso   1.00
O1204  O     0.10316   0.49173   0.81111   0.00000  Uiso   1.00
O1205  O     0.39406   0.01217   0.86806   0.00000  Uiso   1.00
O1206  O     0.38439   0.04879   0.93635   0.00000  Uiso   1.00
O1207  O     0.28881   0.15297   0.74811   0.00000  Uiso   1.00
O1208  O     0.25504   0.13854   0.81678   0.00000  Uiso   1.00
O1209  O     0.23963   0.36357   0.86365   0.00000  Uiso   1.00
O1210  O     0.04508   0.20491   0.79375   0.00000  Uiso   1.00
O1211  O     0.20625   0.35156   0.93289   0.00000  Uiso   1.00
O1212  O     0.31728   0.39933   0.93900   0.00000  Uiso   1.00
O1213  O     0.37966   0.43848   0.94851   0.00000  Uiso   1.00
O1214  O     0.18585   0.11878   0.72400   0.00000  Uiso   1.00
O1215  O     0.14223   0.05858   0.72542   0.00000  Uiso   1.00
O1216  O     0.13638   0.05490   0.93677   0.00000  Uiso   1.00
O1217  O     0.18470   0.11079   0.94700   0.00000  Uiso   1.00
O1218  O     0.27473   0.36734   0.76559   0.00000  Uiso   1.00
O1219  O     0.32344   0.38707   0.71039   0.00000  Uiso   1.00
O1220  O     0.45491   0.20491   0.79375   0.00000  Uiso   1.00
O1221  O     0.04508   0.29509   0.87291   0.00000  Uiso   1.00
O1222  O     0.04508   0.29509   0.79375   0.00000  Uiso   1.00
O1223  O     0.45491   0.20491   0.87291   0.00000  Uiso   1.00
O1224  O     0.29508   0.45491   0.87291   0.00000  Uiso   1.00
C1225  C     0.56090   0.19212   0.83360   0.00000  Uiso   1.00
C1226  C     0.50681   0.28752   0.97530   0.00000  Uiso   1.00
C1227  C     0.50661   0.28757   0.69153   0.00000  Uiso   1.00
C1228  C     0.99367   0.21234   0.97513   0.00000  Uiso   1.00
C1229  C     0.73988   0.46316   0.69134   0.00000  Uiso   1.00
C1230  C     0.76054   0.03672   0.97534   0.00000  Uiso   1.00
C1231  C     0.76022   0.03682   0.69157   0.00000  Uiso   1.00
C1232  C     0.73987   0.46317   0.97512   0.00000  Uiso   1.00
C1233  C     0.86801   0.16414   0.80901   0.00000  Uiso   1.00
C1234  C     0.63050   0.33746   0.86134   0.00000  Uiso   1.00
C1235  C     0.58681   0.38096   0.80650   0.00000  Uiso   1.00
C1236  C     0.94166   0.31070   0.83287   0.00000  Uiso   1.00
C1237  C     0.91471   0.11801   0.85791   0.00000  Uiso   1.00
C1238  C     0.60847   0.13999   0.87666   0.00000  Uiso   1.00
C1239  C     0.88245   0.35205   0.79124   0.00000  Uiso   1.00
C1240  C     0.90129   0.36918   0.87304   0.00000  Uiso   1.00
C1241  C     0.61550   0.14802   0.79155   0.00000  Uiso   1.00
C1242  C     0.61942   0.41304   0.80652   0.00000  Uiso   1.00
C1243  C     0.88135   0.08670   0.85976   0.00000  Uiso   1.00
C1244  C     0.83511   0.13243   0.81011   0.00000  Uiso   1.00
C1245  C     0.66369   0.36893   0.86016   0.00000  Uiso   1.00
C1246  C     0.86457   0.39522   0.87590   0.00000  Uiso   1.00
C1247  C     0.94074   0.19054   0.83309   0.00000  Uiso   1.00
C1248  C     0.64272   0.11213   0.79060   0.00000  Uiso   1.00
C1249  C     0.63805   0.10619   0.87606   0.00000  Uiso   1.00
C1250  C     0.84562   0.37811   0.79438   0.00000  Uiso   1.00
C1251  C     0.59260   0.34329   0.83394   0.00000  Uiso   1.00
C1252  C     0.90769   0.15660   0.83244   0.00000  Uiso   1.00
C1253  C     0.90907   0.34550   0.83169   0.00000  Uiso   1.00
C1254  C     0.59606   0.16034   0.83415   0.00000  Uiso   1.00
C1255  C     0.84240   0.09344   0.83453   0.00000  Uiso   1.00
C1256  C     0.65770   0.40665   0.83289   0.00000  Uiso   1.00
C1257  C     0.65557   0.09191   0.83309   0.00000  Uiso   1.00
C1258  C     0.55921   0.30958   0.83352   0.00000  Uiso   1.00
C1259  C     0.83875   0.40261   0.83527   0.00000  Uiso   1.00
C1260  C     0.85916   0.20683   0.78728   0.00000  Uiso   1.00
C1261  C     0.63642   0.29737   0.88926   0.00000  Uiso   1.00
C1262  C     0.54527   0.38850   0.78098   0.00000  Uiso   1.00
C1263  C     0.95760   0.10952   0.88050   0.00000  Uiso   1.00
C1264  C     0.59256   0.15458   0.92296   0.00000  Uiso   1.00
C1265  C     0.89349   0.33406   0.74467   0.00000  Uiso   1.00
C1266  C     0.93324   0.36956   0.91243   0.00000  Uiso   1.00
C1267  C     0.60925   0.17346   0.74774   0.00000  Uiso   1.00
C1268  C     0.61154   0.45543   0.78351   0.00000  Uiso   1.00
C1269  C     0.80760   0.43871   0.83382   0.00000  Uiso   1.00
C1270  C     0.88732   0.04667   0.88763   0.00000  Uiso   1.00
C1271  C     0.79191   0.14160   0.78903   0.00000  Uiso   1.00
C1272  C     0.70564   0.36123   0.88509   0.00000  Uiso   1.00
C1273  C     0.85184   0.41128   0.92266   0.00000  Uiso   1.00
C1274  C     0.65850   0.09732   0.74456   0.00000  Uiso   1.00
C1275  C     0.65237   0.08858   0.92180   0.00000  Uiso   1.00
C1276  C     0.81225   0.37693   0.75633   0.00000  Uiso   1.00
C1277  C     0.68965   0.05867   0.83317   0.00000  Uiso   1.00
C1278  C     0.69092   0.44038   0.83318   0.00000  Uiso   1.00
C1279  C     0.80923   0.05954   0.83362   0.00000  Uiso   1.00
C1280  C     0.99376   0.21233   0.69140   0.00000  Uiso   1.00
Cu1281 Cu    0.50000   0.25000   0.88022   0.00000  Uiso   1.00
Cu1282 Cu    0.50000   0.25000   0.78645   0.00000  Uiso   1.00
Cu1283 Cu    0.75000  -0.00000   0.88022   0.00000  Uiso   1.00
Cu1284 Cu    0.75000  -0.00000   0.78645   0.00000  Uiso   1.00
H1285  H     0.98892   0.18211   0.70999   0.00000  Uiso   1.00
H1286  H     0.64056   0.27056   0.95360   0.00000  Uiso   1.00
H1287  H     0.98036   0.39354   0.78440   0.00000  Uiso   1.00
H1288  H     0.99077   0.09128   0.93841   0.00000  Uiso   1.00
H1289  H     0.59119   0.20250   0.97089   0.00000  Uiso   1.00
H1290  H     0.87648   0.29517   0.69059   0.00000  Uiso   1.00
H1291  H     0.99285   0.38803   0.93513   0.00000  Uiso   1.00
H1292  H     0.61604   0.23117   0.71507   0.00000  Uiso   1.00
H1293  H     0.59712   0.01859   0.79177   0.00000  Uiso   1.00
H1294  H     0.89040   0.02006   0.95210   0.00000  Uiso   1.00
H1295  H     0.72806   0.14878   0.79978   0.00000  Uiso   1.00
H1296  H     0.51256   0.31750   0.95675   0.00000  Uiso   1.00
H1297  H     0.73667   0.34700   0.94564   0.00000  Uiso   1.00
H1298  H     0.86742   0.44625   0.98016   0.00000  Uiso   1.00
H1299  H     0.65704   0.05025   0.69538   0.00000  Uiso   1.00
H1300  H     0.69404   0.09456   0.97601   0.00000  Uiso   1.00
H1301  H     0.79760   0.38443   0.68831   0.00000  Uiso   1.00
H1302  H     0.51179   0.31772   0.71019   0.00000  Uiso   1.00
H1303  H     0.98877   0.18215   0.95643   0.00000  Uiso   1.00
H1304  H     0.73182   0.43358   0.70982   0.00000  Uiso   1.00
H1305  H     0.76885   0.06623   0.95685   0.00000  Uiso   1.00
H1306  H     0.76806   0.06648   0.71021   0.00000  Uiso   1.00
H1307  H     0.73193   0.43360   0.95647   0.00000  Uiso   1.00
H1308  H     0.82720   0.26343   0.79138   0.00000  Uiso   1.00
N1309  N     0.50000   0.25000   0.95069   0.00000  Uiso   1.00
N1310  N     0.50000   0.25000   0.71598   0.00000  Uiso   1.00
N1311  N     0.75000  -0.00000   0.95069   0.00000  Uiso   1.00
N1312  N     0.75000  -0.00000   0.71598   0.00000  Uiso   1.00
O1313  O     0.54508   0.20491   0.87291   0.00000  Uiso   1.00
O1314  O     0.70491   0.04509   0.79375   0.00000  Uiso   1.00
O1315  O     0.70491   0.04509   0.87291   0.00000  Uiso   1.00
O1316  O     0.79508   0.45491   0.79375   0.00000  Uiso   1.00
O1317  O     0.70491   0.45491   0.79375   0.00000  Uiso   1.00
O1318  O     0.79508   0.04509   0.87291   0.00000  Uiso   1.00
O1319  O     0.79508   0.04509   0.79375   0.00000  Uiso   1.00
O1320  O     0.70491   0.45491   0.87291   0.00000  Uiso   1.00
O1321  O     0.87519   0.21617   0.74964   0.00000  Uiso   1.00
O1322  O     0.83153   0.23560   0.80963   0.00000  Uiso   1.00
O1323  O     0.64278   0.26287   0.86954   0.00000  Uiso   1.00
O1324  O     0.95491   0.29509   0.79375   0.00000  Uiso   1.00
O1325  O     0.63414   0.29933   0.93805   0.00000  Uiso   1.00
O1326  O     0.54529   0.39669   0.73909   0.00000  Uiso   1.00
O1327  O     0.50624   0.38662   0.80517   0.00000  Uiso   1.00
O1328  O     0.99081   0.11387   0.85795   0.00000  Uiso   1.00
O1329  O     0.95997   0.09672   0.92739   0.00000  Uiso   1.00
O1330  O     0.56849   0.13107   0.94564   0.00000  Uiso   1.00
O1331  O     0.60575   0.19501   0.94043   0.00000  Uiso   1.00
O1332  O     0.92611   0.34705   0.72493   0.00000  Uiso   1.00
O1333  O     0.86567   0.30421   0.72246   0.00000  Uiso   1.00
O1334  O     0.92329   0.35487   0.95066   0.00000  Uiso   1.00
O1335  O     0.95491   0.29509   0.87291   0.00000  Uiso   1.00
O1336  O     0.97462   0.38714   0.90538   0.00000  Uiso   1.00
O1337  O     0.59209   0.15644   0.71346   0.00000  Uiso   1.00
O1338  O     0.62258   0.21698   0.74634   0.00000  Uiso   1.00
O1339  O     0.61272   0.45853   0.74087   0.00000  Uiso   1.00
O1340  O     0.60316   0.49173   0.81111   0.00000  Uiso   1.00
O1341  O     0.89406   0.01217   0.86806   0.00000  Uiso   1.00
O1342  O     0.88439   0.04879   0.93635   0.00000  Uiso   1.00
O1343  O     0.78881   0.15297   0.74811   0.00000  Uiso   1.00
O1344  O     0.75504   0.13854   0.81678   0.00000  Uiso   1.00
O1345  O     0.73963   0.36357   0.86365   0.00000  Uiso   1.00
O1346  O     0.54508   0.20491   0.79375   0.00000  Uiso   1.00
O1347  O     0.70625   0.35156   0.93289   0.00000  Uiso   1.00
O1348  O     0.81728   0.39933   0.93900   0.00000  Uiso   1.00
O1349  O     0.87966   0.43848   0.94851   0.00000  Uiso   1.00
O1350  O     0.68585   0.11878   0.72400   0.00000  Uiso   1.00
O1351  O     0.64223   0.05858   0.72542   0.00000  Uiso   1.00
O1352  O     0.63638   0.05490   0.93677   0.00000  Uiso   1.00
O1353  O     0.68470   0.11079   0.94700   0.00000  Uiso   1.00
O1354  O     0.77473   0.36734   0.76559   0.00000  Uiso   1.00
O1355  O     0.82344   0.38707   0.71039   0.00000  Uiso   1.00
O1356  O     0.95491   0.20491   0.79375   0.00000  Uiso   1.00
O1357  O     0.54508   0.29509   0.87291   0.00000  Uiso   1.00
O1358  O     0.54508   0.29509   0.79375   0.00000  Uiso   1.00
O1359  O     0.95491   0.20491   0.87291   0.00000  Uiso   1.00
O1360  O     0.79508   0.45491   0.87291   0.00000  Uiso   1.00
C1361  C     0.06090   0.69212   0.83360   0.00000  Uiso   1.00
C1362  C     0.00681   0.78752   0.97530   0.00000  Uiso   1.00
C1363  C     0.00661   0.78757   0.69153   0.00000  Uiso   1.00
C1364  C     0.49367   0.71234   0.97513   0.00000  Uiso   1.00
C1365  C     0.23988   0.96316   0.69134   0.00000  Uiso   1.00
C1366  C     0.26054   0.53672   0.97534   0.00000  Uiso   1.00
C1367  C     0.26022   0.53682   0.69157   0.00000  Uiso   1.00
C1368  C     0.23987   0.96317   0.97512   0.00000  Uiso   1.00
C1369  C     0.36801   0.66414   0.80901   0.00000  Uiso   1.00
C1370  C     0.13050   0.83746   0.86134   0.00000  Uiso   1.00
C1371  C     0.08681   0.88096   0.80650   0.00000  Uiso   1.00
C1372  C     0.44166   0.81070   0.83287   0.00000  Uiso   1.00
C1373  C     0.41471   0.61801   0.85791   0.00000  Uiso   1.00
C1374  C     0.10847   0.63999   0.87666   0.00000  Uiso   1.00
C1375  C     0.38245   0.85205   0.79124   0.00000  Uiso   1.00
C1376  C     0.40129   0.86918   0.87304   0.00000  Uiso   1.00
C1377  C     0.11550   0.64802   0.79155   0.00000  Uiso   1.00
C1378  C     0.11942   0.91304   0.80652   0.00000  Uiso   1.00
C1379  C     0.38135   0.58670   0.85976   0.00000  Uiso   1.00
C1380  C     0.33511   0.63243   0.81011   0.00000  Uiso   1.00
C1381  C     0.16369   0.86893   0.86016   0.00000  Uiso   1.00
C1382  C     0.36457   0.89522   0.87590   0.00000  Uiso   1.00
C1383  C     0.44074   0.69054   0.83309   0.00000  Uiso   1.00
C1384  C     0.14272   0.61213   0.79060   0.00000  Uiso   1.00
C1385  C     0.13805   0.60619   0.87606   0.00000  Uiso   1.00
C1386  C     0.34562   0.87811   0.79438   0.00000  Uiso   1.00
C1387  C     0.09260   0.84329   0.83394   0.00000  Uiso   1.00
C1388  C     0.40769   0.65660   0.83244   0.00000  Uiso   1.00
C1389  C     0.40907   0.84550   0.83169   0.00000  Uiso   1.00
C1390  C     0.09606   0.66034   0.83415   0.00000  Uiso   1.00
C1391  C     0.34240   0.59344   0.83453   0.00000  Uiso   1.00
C1392  C     0.15770   0.90665   0.83289   0.00000  Uiso   1.00
C1393  C     0.15557   0.59191   0.83309   0.00000  Uiso   1.00
C1394  C     0.05921   0.80958   0.83352   0.00000  Uiso   1.00
C1395  C     0.33875   0.90261   0.83527   0.00000  Uiso   1.00
C1396  C     0.35916   0.70683   0.78728   0.00000  Uiso   1.00
C1397  C     0.13642   0.79737   0.88926   0.00000  Uiso   1.00
C1398  C     0.04527   0.88850   0.78098   0.00000  Uiso   1.00
C1399  C     0.45760   0.60952   0.88050   0.00000  Uiso   1.00
C1400  C     0.09256   0.65458   0.92296   0.00000  Uiso   1.00
C1401  C     0.39349   0.83406   0.74467   0.00000  Uiso   1.00
C1402  C     0.43324   0.86956   0.91243   0.00000  Uiso   1.00
C1403  C     0.10925   0.67346   0.74774   0.00000  Uiso   1.00
C1404  C     0.11154   0.95543   0.78351   0.00000  Uiso   1.00
C1405  C     0.30760   0.93871   0.83382   0.00000  Uiso   1.00
C1406  C     0.38732   0.54667   0.88763   0.00000  Uiso   1.00
C1407  C     0.29191   0.64160   0.78903   0.00000  Uiso   1.00
C1408  C     0.20564   0.86123   0.88509   0.00000  Uiso   1.00
C1409  C     0.35184   0.91128   0.92266   0.00000  Uiso   1.00
C1410  C     0.15850   0.59732   0.74456   0.00000  Uiso   1.00
C1411  C     0.15237   0.58858   0.92180   0.00000  Uiso   1.00
C1412  C     0.31225   0.87693   0.75633   0.00000  Uiso   1.00
C1413  C     0.18965   0.55867   0.83317   0.00000  Uiso   1.00
C1414  C     0.19092   0.94038   0.83318   0.00000  Uiso   1.00
C1415  C     0.30923   0.55954   0.83362   0.00000  Uiso   1.00
C1416  C     0.49376   0.71233   0.69140   0.00000  Uiso   1.00
Cu1417 Cu    0.00000   0.75000   0.88022   0.00000  Uiso   1.00
Cu1418 Cu   -0.00000   0.75000   0.78645   0.00000  Uiso   1.00
Cu1419 Cu    0.25000   0.50000   0.88022   0.00000  Uiso   1.00
Cu1420 Cu    0.25000   0.50000   0.78645   0.00000  Uiso   1.00
H1421  H     0.48892   0.68211   0.70999   0.00000  Uiso   1.00
H1422  H     0.14056   0.77056   0.95360   0.00000  Uiso   1.00
H1423  H     0.48036   0.89354   0.78440   0.00000  Uiso   1.00
H1424  H     0.49077   0.59128   0.93841   0.00000  Uiso   1.00
H1425  H     0.09119   0.70250   0.97089   0.00000  Uiso   1.00
H1426  H     0.37648   0.79517   0.69059   0.00000  Uiso   1.00
H1427  H     0.49285   0.88803   0.93513   0.00000  Uiso   1.00
H1428  H     0.11604   0.73117   0.71507   0.00000  Uiso   1.00
H1429  H     0.09712   0.51859   0.79177   0.00000  Uiso   1.00
H1430  H     0.39040   0.52006   0.95210   0.00000  Uiso   1.00
H1431  H     0.22806   0.64878   0.79978   0.00000  Uiso   1.00
H1432  H     0.01256   0.81750   0.95675   0.00000  Uiso   1.00
H1433  H     0.23667   0.84700   0.94564   0.00000  Uiso   1.00
H1434  H     0.36742   0.94625   0.98016   0.00000  Uiso   1.00
H1435  H     0.15704   0.55025   0.69538   0.00000  Uiso   1.00
H1436  H     0.19404   0.59456   0.97601   0.00000  Uiso   1.00
H1437  H     0.29760   0.88443   0.68831   0.00000  Uiso   1.00
H1438  H     0.01179   0.81772   0.71019   0.00000  Uiso   1.00
H1439  H     0.48877   0.68215   0.95643   0.00000  Uiso   1.00
H1440  H     0.23182   0.93358   0.70982   0.00000  Uiso   1.00
H1441  H     0.26885   0.56623   0.95685   0.00000  Uiso   1.00
H1442  H     0.26806   0.56648   0.71021   0.00000  Uiso   1.00
H1443  H     0.23193   0.93360   0.95647   0.00000  Uiso   1.00
H1444  H     0.32720   0.76343   0.79138   0.00000  Uiso   1.00
N1445  N    -0.00000   0.75000   0.95069   0.00000  Uiso   1.00
N1446  N     0.00000   0.75000   0.71598   0.00000  Uiso   1.00
N1447  N     0.25000   0.50000   0.95069   0.00000  Uiso   1.00
N1448  N     0.25000   0.50000   0.71598   0.00000  Uiso   1.00
O1449  O     0.04508   0.70491   0.87291   0.00000  Uiso   1.00
O1450  O     0.20491   0.54509   0.79375   0.00000  Uiso   1.00
O1451  O     0.20491   0.54509   0.87291   0.00000  Uiso   1.00
O1452  O     0.29508   0.95491   0.79375   0.00000  Uiso   1.00
O1453  O     0.20491   0.95491   0.79375   0.00000  Uiso   1.00
O1454  O     0.29508   0.54509   0.87291   0.00000  Uiso   1.00
O1455  O     0.29508   0.54509   0.79375   0.00000  Uiso   1.00
O1456  O     0.20491   0.95491   0.87291   0.00000  Uiso   1.00
O1457  O     0.37519   0.71617   0.74964   0.00000  Uiso   1.00
O1458  O     0.33153   0.73560   0.80963   0.00000  Uiso   1.00
O1459  O     0.14278   0.76287   0.86954   0.00000  Uiso   1.00
O1460  O     0.45491   0.79509   0.79375   0.00000  Uiso   1.00
O1461  O     0.13414   0.79933   0.93805   0.00000  Uiso   1.00
O1462  O     0.04529   0.89669   0.73909   0.00000  Uiso   1.00
O1463  O     0.00624   0.88662   0.80517   0.00000  Uiso   1.00
O1464  O     0.49081   0.61387   0.85795   0.00000  Uiso   1.00
O1465  O     0.45997   0.59672   0.92739   0.00000  Uiso   1.00
O1466  O     0.06849   0.63107   0.94564   0.00000  Uiso   1.00
O1467  O     0.10575   0.69501   0.94043   0.00000  Uiso   1.00
O1468  O     0.42611   0.84705   0.72493   0.00000  Uiso   1.00
O1469  O     0.36567   0.80421   0.72246   0.00000  Uiso   1.00
O1470  O     0.42329   0.85487   0.95066   0.00000  Uiso   1.00
O1471  O     0.45491   0.79509   0.87291   0.00000  Uiso   1.00
O1472  O     0.47462   0.88714   0.90538   0.00000  Uiso   1.00
O1473  O     0.09209   0.65644   0.71346   0.00000  Uiso   1.00
O1474  O     0.12258   0.71698   0.74634   0.00000  Uiso   1.00
O1475  O     0.11272   0.95853   0.74087   0.00000  Uiso   1.00
O1476  O     0.10316   0.99173   0.81111   0.00000  Uiso   1.00
O1477  O     0.39406   0.51217   0.86806   0.00000  Uiso   1.00
O1478  O     0.38439   0.54879   0.93635   0.00000  Uiso   1.00
O1479  O     0.28881   0.65297   0.74811   0.00000  Uiso   1.00
O1480  O     0.25504   0.63854   0.81678   0.00000  Uiso   1.00
O1481  O     0.23963   0.86357   0.86365   0.00000  Uiso   1.00
O1482  O     0.04508   0.70491   0.79375   0.00000  Uiso   1.00
O1483  O     0.20625   0.85156   0.93289   0.00000  Uiso   1.00
O1484  O     0.31728   0.89933   0.93900   0.00000  Uiso   1.00
O1485  O     0.37966   0.93848   0.94851   0.00000  Uiso   1.00
O1486  O     0.18585   0.61878   0.72400   0.00000  Uiso   1.00
O1487  O     0.14223   0.55858   0.72542   0.00000  Uiso   1.00
O1488  O     0.13638   0.55490   0.93677   0.00000  Uiso   1.00
O1489  O     0.18470   0.61079   0.94700   0.00000  Uiso   1.00
O1490  O     0.27473   0.86734   0.76559   0.00000  Uiso   1.00
O1491  O     0.32344   0.88707   0.71039   0.00000  Uiso   1.00
O1492  O     0.45491   0.70491   0.79375   0.00000  Uiso   1.00
O1493  O     0.04508   0.79509   0.87291   0.00000  Uiso   1.00
O1494  O     0.04508   0.79509   0.79375   0.00000  Uiso   1.00
O1495  O     0.45491   0.70491   0.87291   0.00000  Uiso   1.00
O1496  O     0.29508   0.95491   0.87291   0.00000  Uiso   1.00
C1497  C     0.56090   0.69212   0.83360   0.00000  Uiso   1.00
C1498  C     0.50681   0.78752   0.97530   0.00000  Uiso   1.00
C1499  C     0.50661   0.78757   0.69153   0.00000  Uiso   1.00
C1500  C     0.99367   0.71234   0.97513   0.00000  Uiso   1.00
C1501  C     0.73988   0.96316   0.69134   0.00000  Uiso   1.00
C1502  C     0.76054   0.53672   0.97534   0.00000  Uiso   1.00
C1503  C     0.76022   0.53682   0.69157   0.00000  Uiso   1.00
C1504  C     0.73987   0.96317   0.97512   0.00000  Uiso   1.00
C1505  C     0.86801   0.66414   0.80901   0.00000  Uiso   1.00
C1506  C     0.63050   0.83746   0.86134   0.00000  Uiso   1.00
C1507  C     0.58681   0.88096   0.80650   0.00000  Uiso   1.00
C1508  C     0.94166   0.81070   0.83287   0.00000  Uiso   1.00
C1509  C     0.91471   0.61801   0.85791   0.00000  Uiso   1.00
C1510  C     0.60847   0.63999   0.87666   0.00000  Uiso   1.00
C1511  C     0.88245   0.85205   0.79124   0.00000  Uiso   1.00
C1512  C     0.90129   0.86918   0.87304   0.00000  Uiso   1.00
C1513  C     0.61550   0.64802   0.79155   0.00000  Uiso   1.00
C1514  C     0.61942   0.91304   0.80652   0.00000  Uiso   1.00
C1515  C     0.88135   0.58670   0.85976   0.00000  Uiso   1.00
C1516  C     0.83511   0.63243   0.81011   0.00000  Uiso   1.00
C1517  C     0.66369   0.86893   0.86016   0.00000  Uiso   1.00
C1518  C     0.86457   0.89522   0.87590   0.00000  Uiso   1.00
C1519  C     0.94074   0.69054   0.83309   0.00000  Uiso   1.00
C1520  C     0.64272   0.61213   0.79060   0.00000  Uiso   1.00
C1521  C     0.63805   0.60619   0.87606   0.00000  Uiso   1.00
C1522  C     0.84562   0.87811   0.79438   0.00000  Uiso   1.00
C1523  C     0.59260   0.84329   0.83394   0.00000  Uiso   1.00
C1524  C     0.90769   0.65660   0.83244   0.00000  Uiso   1.00
C1525  C     0.90907   0.84550   0.83169   0.00000  Uiso   1.00
C1526  C     0.59606   0.66034   0.83415   0.00000  Uiso   1.00
C1527  C     0.84240   0.59344   0.83453   0.00000  Uiso   1.00
C1528  C     0.65770   0.90665   0.83289   0.00000  Uiso   1.00
C1529  C     0.65557   0.59191   0.83309   0.00000  Uiso   1.00
C1530  C     0.55921   0.80958   0.83352   0.00000  Uiso   1.00
C1531  C     0.83875   0.90261   0.83527   0.00000  Uiso   1.00
C1532  C     0.85916   0.70683   0.78728   0.00000  Uiso   1.00
C1533  C     0.63642   0.79737   0.88926   0.00000  Uiso   1.00
C1534  C     0.54527   0.88850   0.78098   0.00000  Uiso   1.00
C1535  C     0.95760   0.60952   0.88050   0.00000  Uiso   1.00
C1536  C     0.59256   0.65458   0.92296   0.00000  Uiso   1.00
C1537  C     0.89349   0.83406   0.74467   0.00000  Uiso   1.00
C1538  C     0.93324   0.86956   0.91243   0.00000  Uiso   1.00
C1539  C     0.60925   0.67346   0.74774   0.00000  Uiso   1.00
C1540  C     0.61154   0.95543   0.78351   0.00000  Uiso   1.00
C1541  C     0.80760   0.93871   0.83382   0.00000  Uiso   1.00
C1542  C     0.88732   0.54667   0.88763   0.00000  Uiso   1.00
C1543  C     0.79191   0.64160   0.78903   0.00000  Uiso   1.00
C1544  C     0.70564   0.86123   0.88509   0.00000  Uiso   1.00
C1545  C     0.85184   0.91128   0.92266   0.00000  Uiso   1.00
C1546  C     0.65850   0.59732   0.74456   0.00000  Uiso   1.00
C1547  C     0.65237   0.58858   0.92180   0.00000  Uiso   1.00
C1548  C     0.81225   0.87693   0.75633   0.00000  Uiso   1.00
C1549  C     0.68965   0.55867   0.83317   0.00000  Uiso   1.00
C1550  C     0.69092   0.94038   0.83318   0.00000  Uiso   1.00
C1551  C     0.80923   0.55954   0.83362   0.00000  Uiso   1.00
C1552  C     0.99376   0.71233   0.69140   0.00000  Uiso   1.00
Cu1553 Cu    0.50000   0.75000   0.88022   0.00000  Uiso   1.00
Cu1554 Cu    0.50000   0.75000   0.78645   0.00000  Uiso   1.00
Cu1555 Cu    0.75000   0.50000   0.88022   0.00000  Uiso   1.00
Cu1556 Cu    0.75000   0.50000   0.78645   0.00000  Uiso   1.00
H1557  H     0.98892   0.68211   0.70999   0.00000  Uiso   1.00
H1558  H     0.64056   0.77056   0.95360   0.00000  Uiso   1.00
H1559  H     0.98036   0.89354   0.78440   0.00000  Uiso   1.00
H1560  H     0.99077   0.59128   0.93841   0.00000  Uiso   1.00
H1561  H     0.59119   0.70250   0.97089   0.00000  Uiso   1.00
H1562  H     0.87648   0.79517   0.69059   0.00000  Uiso   1.00
H1563  H     0.99285   0.88803   0.93513   0.00000  Uiso   1.00
H1564  H     0.61604   0.73117   0.71507   0.00000  Uiso   1.00
H1565  H     0.59712   0.51859   0.79177   0.00000  Uiso   1.00
H1566  H     0.89040   0.52006   0.95210   0.00000  Uiso   1.00
H1567  H     0.72806   0.64878   0.79978   0.00000  Uiso   1.00
H1568  H     0.51256   0.81750   0.95675   0.00000  Uiso   1.00
H1569  H     0.73667   0.84700   0.94564   0.00000  Uiso   1.00
H1570  H     0.86742   0.94625   0.98016   0.00000  Uiso   1.00
H1571  H     0.65704   0.55025   0.69538   0.00000  Uiso   1.00
H1572  H     0.69404   0.59456   0.97601   0.00000  Uiso   1.00
H1573  H     0.79760   0.88443   0.68831   0.00000  Uiso   1.00
H1574  H     0.51179   0.81772   0.71019   0.00000  Uiso   1.00
H1575  H     0.98877   0.68215   0.95643   0.00000  Uiso   1.00
H1576  H     0.73182   0.93358   0.70982   0.00000  Uiso   1.00
H1577  H     0.76885   0.56623   0.95685   0.00000  Uiso   1.00
H1578  H     0.76806   0.56648   0.71021   0.00000  Uiso   1.00
H1579  H     0.73193   0.93360   0.95647   0.00000  Uiso   1.00
H1580  H     0.82720   0.76343   0.79138   0.00000  Uiso   1.00
N1581  N     0.50000   0.75000   0.95069   0.00000  Uiso   1.00
N1582  N     0.50000   0.75000   0.71598   0.00000  Uiso   1.00
N1583  N     0.75000   0.50000   0.95069   0.00000  Uiso   1.00
N1584  N     0.75000   0.50000   0.71598   0.00000  Uiso   1.00
O1585  O     0.54508   0.70491   0.87291   0.00000  Uiso   1.00
O1586  O     0.70491   0.54509   0.79375   0.00000  Uiso   1.00
O1587  O     0.70491   0.54509   0.87291   0.00000  Uiso   1.00
O1588  O     0.79508   0.95491   0.79375   0.00000  Uiso   1.00
O1589  O     0.70491   0.95491   0.79375   0.00000  Uiso   1.00
O1590  O     0.79508   0.54509   0.87291   0.00000  Uiso   1.00
O1591  O     0.79508   0.54509   0.79375   0.00000  Uiso   1.00
O1592  O     0.70491   0.95491   0.87291   0.00000  Uiso   1.00
O1593  O     0.87519   0.71617   0.74964   0.00000  Uiso   1.00
O1594  O     0.83153   0.73560   0.80963   0.00000  Uiso   1.00
O1595  O     0.64278   0.76287   0.86954   0.00000  Uiso   1.00
O1596  O     0.95491   0.79509   0.79375   0.00000  Uiso   1.00
O1597  O     0.63414   0.79933   0.93805   0.00000  Uiso   1.00
O1598  O     0.54529   0.89669   0.73909   0.00000  Uiso   1.00
O1599  O     0.50624   0.88662   0.80517   0.00000  Uiso   1.00
O1600  O     0.99081   0.61387   0.85795   0.00000  Uiso   1.00
O1601  O     0.95997   0.59672   0.92739   0.00000  Uiso   1.00
O1602  O     0.56849   0.63107   0.94564   0.00000  Uiso   1.00
O1603  O     0.60575   0.69501   0.94043   0.00000  Uiso   1.00
O1604  O     0.92611   0.84705   0.72493   0.00000  Uiso   1.00
O1605  O     0.86567   0.80421   0.72246   0.00000  Uiso   1.00
O1606  O     0.92329   0.85487   0.95066   0.00000  Uiso   1.00
O1607  O     0.95491   0.79509   0.87291   0.00000  Uiso   1.00
O1608  O     0.97462   0.88714   0.90538   0.00000  Uiso   1.00
O1609  O     0.59209   0.65644   0.71346   0.00000  Uiso   1.00
O1610  O     0.62258   0.71698   0.74634   0.00000  Uiso   1.00
O1611  O     0.61272   0.95853   0.74087   0.00000  Uiso   1.00
O1612  O     0.60316   0.99173   0.81111   0.00000  Uiso   1.00
O1613  O     0.89406   0.51217   0.86806   0.00000  Uiso   1.00
O1614  O     0.88439   0.54879   0.93635   0.00000  Uiso   1.00
O1615  O     0.78881   0.65297   0.74811   0.00000  Uiso   1.00
O1616  O     0.75504   0.63854   0.81678   0.00000  Uiso   1.00
O1617  O     0.73963   0.86357   0.86365   0.00000  Uiso   1.00
O1618  O     0.54508   0.70491   0.79375   0.00000  Uiso   1.00
O1619  O     0.70625   0.85156   0.93289   0.00000  Uiso   1.00
O1620  O     0.81728   0.89933   0.93900   0.00000  Uiso   1.00
O1621  O     0.87966   0.93848   0.94851   0.00000  Uiso   1.00
O1622  O     0.68585   0.61878   0.72400   0.00000  Uiso   1.00
O1623  O     0.64223   0.55858   0.72542   0.00000  Uiso   1.00
O1624  O     0.63638   0.55490   0.93677   0.00000  Uiso   1.00
O1625  O     0.68470   0.61079   0.94700   0.00000  Uiso   1.00
O1626  O     0.77473   0.86734   0.76559   0.00000  Uiso   1.00
O1627  O     0.82344   0.88707   0.71039   0.00000  Uiso   1.00
O1628  O     0.95491   0.70491   0.79375   0.00000  Uiso   1.00
O1629  O     0.54508   0.79509   0.87291   0.00000  Uiso   1.00
O1630  O     0.54508   0.79509   0.79375   0.00000  Uiso   1.00
O1631  O     0.95491   0.70491   0.87291   0.00000  Uiso   1.00
O1632  O     0.79508   0.95491   0.87291   0.00000  Uiso   1.00
loop_
_geom_bond_atom_site_label_1
_geom_bond_atom_site_label_2
_geom_bond_distance
_geom_bond_site_symmetry_2
_ccdc_geom_bond_type
C1     O122    1.296   .     A
C1     O89     1.294   .     A
C1     C30     1.470   .     S
C2     H72     1.079   .     S
C2     C547    1.415   .     S
C2     N85     1.366   .     S
C3     N86     1.366   .     A
C3     H78     1.080   .     S
C3     C1090   1.415   1_554 S
C4     H79     1.081   .     S
C4     N221    1.367   .     A
C4     C600    1.417   .     S
C5     N360    1.366   .     A
C5     H80     1.081   .     S
C5     C1096   1.415   1_554 S
C6     H81     1.081   .     S
C6     C551    1.416   .     S
C6     N87     1.366   .     S
C7     H82     1.081   .     S
C7     C1094   1.416   1_554 S
C7     N88     1.367   .     S
C8     H83     1.080   .     S
C8     N359    1.367   .     A
C8     C549    1.415   .     S
C9     C36     1.481   .     S
C9     C20     1.400   .     A
C9     C28     1.410   .     A
C10    C27     1.412   .     A
C10    C37     1.482   .     S
C10    C21     1.402   .     A
C11    C18     1.401   .     A
C11    C38     1.487   .     S
C11    C27     1.412   .     A
C12    C29     1.479   .     S
C12    O100    1.290   .     A
C12    O111    1.304   .     A
C13    C28     1.411   .     A
C13    C19     1.403   .     A
C13    C39     1.491   .     S
C14    C30     1.417   .     A
C14    C25     1.394   .     A
C14    C40     1.488   .     S
C15    C29     1.425   .     A
C15    C41     1.486   .     S
C15    C26     1.403   .     A
C16    C29     1.413   .     A
C16    C42     1.486   .     S
C16    C22     1.400   .     A
C17    C30     1.417   .     A
C17    C24     1.398   .     A
C17    C43     1.488   .     S
C18    C44     1.484   .     S
C18    C32     1.409   .     A
C19    C31     1.411   .     A
C19    C46     1.480   .     S
C20    C47     1.486   .     S
C20    C31     1.408   .     A
C21    C32     1.412   .     A
C21    C48     1.490   .     S
C22    C35     1.419   .     A
C22    C49     1.484   .     S
C23    C28     1.451   .     S
C23    O135    1.290   .     A
C23    O132    1.287   .     A
C24    C50     1.482   .     S
C24    C33     1.419   .     A
C25    C51     1.479   .     S
C25    C33     1.419   .     A
C26    C52     1.487   .     S
C26    C35     1.410   .     A
C27    C34     1.453   .     S
C31    C55     1.453   .     S
C32    C54     1.450   .     S
C33    C53     1.477   .     S
C34    O134    1.289   .     A
C34    O133    1.289   .     A
C35    C45     1.479   .     S
C36    O97     1.222   .     D
C36    O98     1.398   .     S
C37    O99     1.222   .     D
C37    O101    1.397   .     S
C38    O103    1.396   .     S
C38    O102    1.223   .     D
C39    O104    1.223   .     D
C39    O105    1.397   .     S
C40    O107    1.396   .     S
C40    O106    1.222   .     D
C41    O108    1.223   .     D
C41    O109    1.397   .     S
C42    O112    1.397   .     S
C42    O110    1.223   .     D
C43    O114    1.398   .     S
C43    O113    1.222   .     D
C44    O115    1.223   .     D
C44    O116    1.397   .     S
C45    O92     1.304   .     A
C45    O136    1.289   .     A
C46    O118    1.397   .     S
C46    O117    1.222   .     D
C47    O119    1.223   .     D
C47    O120    1.396   .     S
C48    O123    1.397   .     S
C48    O121    1.222   .     D
C49    O124    1.221   .     D
C49    O125    1.396   .     S
C50    O126    1.222   .     D
C50    O127    1.398   .     S
C51    O128    1.223   .     D
C51    O129    1.395   .     S
C52    O131    1.395   .     S
C52    O130    1.223   .     D
C53    O91     1.295   .     A
C53    O90     1.297   .     A
C54    O93     1.289   .     A
C54    O96     1.287   .     A
C55    O94     1.286   .     A
C55    O95     1.291   .     A
C56    H61     1.082   .     S
C56    C1092   1.417   1_554 S
C56    N222    1.367   .     S
Cu57   O89     1.991   .     S
Cu57   O133    1.966   .     S
Cu57   Cu58    2.678   .     S
Cu57   N85     2.013   .     S
Cu57   O247    1.988   1_455 S
Cu57   O271    1.963   1_455 S
Cu58   O268    1.966   1_455 S
Cu58   O236    1.991   1_455 S
Cu58   N86     2.013   .     S
Cu58   O122    1.988   .     S
Cu58   O134    1.963   .     S
Cu59   O408    1.991   1_545 S
Cu59   Cu60    2.678   .     S
Cu59   O368    1.963   1_545 S
Cu59   N87     2.013   .     S
Cu59   O91     1.988   .     S
Cu59   O94     1.966   .     S
Cu60   N88     2.013   .     S
Cu60   O365    1.966   1_545 S
Cu60   O364    1.988   1_545 S
Cu60   O90     1.991   .     S
Cu60   O95     1.963   .     S
H62    O101    1.012   .     S
H63    O239    1.013   .     S
H64    O105    1.013   .     S
H65    O107    1.012   .     S
H66    O109    1.014   .     S
H67    O112    1.013   .     S
H68    O114    1.014   .     S
H69    O388    1.013   1_545 S
H70    O118    1.011   .     S
H71    O120    1.012   .     S
H73    O123    1.014   .     S
H74    O125    1.014   .     S
H75    O127    1.012   .     S
H76    O129    1.008   .     S
H77    O131    1.013   .     S
H84    O98     1.013   .     S
N85    C140    1.367   1_455 A
N86    C192    1.367   1_455 S
N87    C280    1.367   1_545 A
N88    C277    1.366   1_545 A
O92    Cu332   1.988   .     S
O93    Cu332   1.966   .     S
O96    Cu331   1.963   .     S
O100   Cu194   1.991   .     S
O103   H199    1.013   1_455 S
O111   Cu193   1.988   .     S
O116   H341    1.013   .     S
O132   Cu194   1.966   .     S
O135   Cu193   1.963   .     S
O136   Cu331   1.991   .     S
C137   O258    1.296   .     A
C137   O225    1.294   .     A
C137   C166    1.470   .     S
C138   H208    1.079   .     S
C138   C683    1.415   .     S
C138   N221    1.366   .     S
C139   N222    1.366   .     A
C139   H214    1.080   .     S
C139   C1226   1.415   1_554 S
C140   H215    1.081   .     S
C140   N85     1.367   1_655 A
C140   C736    1.417   .     S
C141   N496    1.366   .     A
C141   H216    1.081   .     S
C141   C1232   1.415   1_554 S
C142   H217    1.081   .     S
C142   C687    1.416   .     S
C142   N223    1.366   .     S
C143   H218    1.081   .     S
C143   C1230   1.416   1_554 S
C143   N224    1.367   .     S
C144   H219    1.080   .     S
C144   N495    1.367   .     A
C144   C685    1.415   .     S
C145   C172    1.481   .     S
C145   C156    1.400   .     A
C145   C164    1.410   .     A
C146   C163    1.412   .     A
C146   C173    1.482   .     S
C146   C157    1.402   .     A
C147   C154    1.401   .     A
C147   C174    1.487   .     S
C147   C163    1.412   .     A
C148   C165    1.479   .     S
C148   O236    1.290   .     A
C148   O247    1.304   .     A
C149   C164    1.411   .     A
C149   C155    1.403   .     A
C149   C175    1.491   .     S
C150   C166    1.417   .     A
C150   C161    1.394   .     A
C150   C176    1.488   .     S
C151   C165    1.425   .     A
C151   C177    1.486   .     S
C151   C162    1.403   .     A
C152   C165    1.413   .     A
C152   C178    1.486   .     S
C152   C158    1.400   .     A
C153   C166    1.417   .     A
C153   C160    1.398   .     A
C153   C179    1.488   .     S
C154   C180    1.484   .     S
C154   C168    1.409   .     A
C155   C167    1.411   .     A
C155   C182    1.480   .     S
C156   C183    1.486   .     S
C156   C167    1.408   .     A
C157   C168    1.412   .     A
C157   C184    1.490   .     S
C158   C171    1.419   .     A
C158   C185    1.484   .     S
C159   C164    1.451   .     S
C159   O271    1.290   .     A
C159   O268    1.287   .     A
C160   C186    1.482   .     S
C160   C169    1.419   .     A
C161   C187    1.479   .     S
C161   C169    1.419   .     A
C162   C188    1.487   .     S
C162   C171    1.410   .     A
C163   C170    1.453   .     S
C167   C191    1.453   .     S
C168   C190    1.450   .     S
C169   C189    1.477   .     S
C170   O270    1.289   .     A
C170   O269    1.289   .     A
C171   C181    1.479   .     S
C172   O233    1.222   .     D
C172   O234    1.398   .     S
C173   O235    1.222   .     D
C173   O237    1.397   .     S
C174   O239    1.396   .     S
C174   O238    1.223   .     D
C175   O240    1.223   .     D
C175   O241    1.397   .     S
C176   O243    1.396   .     S
C176   O242    1.222   .     D
C177   O244    1.223   .     D
C177   O245    1.397   .     S
C178   O248    1.397   .     S
C178   O246    1.223   .     D
C179   O250    1.398   .     S
C179   O249    1.222   .     D
C180   O251    1.223   .     D
C180   O252    1.397   .     S
C181   O228    1.304   .     A
C181   O272    1.289   .     A
C182   O254    1.397   .     S
C182   O253    1.222   .     D
C183   O255    1.223   .     D
C183   O256    1.396   .     S
C184   O259    1.397   .     S
C184   O257    1.222   .     D
C185   O260    1.221   .     D
C185   O261    1.396   .     S
C186   O262    1.222   .     D
C186   O263    1.398   .     S
C187   O264    1.223   .     D
C187   O265    1.395   .     S
C188   O267    1.395   .     S
C188   O266    1.223   .     D
C189   O227    1.295   .     A
C189   O226    1.297   .     A
C190   O229    1.289   .     A
C190   O232    1.287   .     A
C191   O230    1.286   .     A
C191   O231    1.291   .     A
C192   H197    1.082   .     S
C192   C1228   1.417   1_554 S
C192   N86     1.367   1_655 S
Cu193  O225    1.991   .     S
Cu193  O269    1.966   .     S
Cu193  Cu194   2.678   .     S
Cu193  N221    2.013   .     S
Cu194  N222    2.013   .     S
Cu194  O258    1.988   .     S
Cu194  O270    1.963   .     S
Cu195  O544    1.991   1_545 S
Cu195  Cu196   2.678   .     S
Cu195  O504    1.963   1_545 S
Cu195  N223    2.013   .     S
Cu195  O227    1.988   .     S
Cu195  O230    1.966   .     S
Cu196  N224    2.013   .     S
Cu196  O501    1.966   1_545 S
Cu196  O500    1.988   1_545 S
Cu196  O226    1.991   .     S
Cu196  O231    1.963   .     S
H198   O237    1.012   .     S
H199   O103    1.013   1_655 S
H200   O241    1.013   .     S
H201   O243    1.012   .     S
H202   O245    1.014   .     S
H203   O248    1.013   .     S
H204   O250    1.014   .     S
H205   O524    1.013   1_545 S
H206   O254    1.011   .     S
H207   O256    1.012   .     S
H209   O259    1.014   .     S
H210   O261    1.014   .     S
H211   O263    1.012   .     S
H212   O265    1.008   .     S
H213   O267    1.013   .     S
H220   O234    1.013   .     S
N223   C416    1.367   1_545 A
N224   C413    1.366   1_545 A
O228   Cu468   1.988   .     S
O229   Cu468   1.966   .     S
O232   Cu467   1.963   .     S
O236   Cu58    1.991   1_655 S
O247   Cu57    1.988   1_655 S
O252   H477    1.013   .     S
O268   Cu58    1.966   1_655 S
O271   Cu57    1.963   1_655 S
O272   Cu467   1.991   .     S
C273   O394    1.296   .     A
C273   O361    1.294   .     A
C273   C302    1.470   .     S
C274   H344    1.079   .     S
C274   C819    1.415   .     S
C274   N357    1.366   .     S
C275   N358    1.366   .     A
C275   H350    1.080   .     S
C275   C1362   1.415   1_554 S
C276   H351    1.081   .     S
C276   N493    1.367   .     A
C276   C872    1.417   .     S
C277   N88     1.366   1_565 A
C277   H352    1.081   .     S
C277   C1368   1.415   1_554 S
C278   H353    1.081   .     S
C278   C823    1.416   .     S
C278   N359    1.366   .     S
C279   H354    1.081   .     S
C279   C1366   1.416   1_554 S
C279   N360    1.367   .     S
C280   H355    1.080   .     S
C280   N87     1.367   1_565 A
C280   C821    1.415   .     S
C281   C308    1.481   .     S
C281   C292    1.400   .     A
C281   C300    1.410   .     A
C282   C299    1.412   .     A
C282   C309    1.482   .     S
C282   C293    1.402   .     A
C283   C290    1.401   .     A
C283   C310    1.487   .     S
C283   C299    1.412   .     A
C284   C301    1.479   .     S
C284   O372    1.290   .     A
C284   O383    1.304   .     A
C285   C300    1.411   .     A
C285   C291    1.403   .     A
C285   C311    1.491   .     S
C286   C302    1.417   .     A
C286   C297    1.394   .     A
C286   C312    1.488   .     S
C287   C301    1.425   .     A
C287   C313    1.486   .     S
C287   C298    1.403   .     A
C288   C301    1.413   .     A
C288   C314    1.486   .     S
C288   C294    1.400   .     A
C289   C302    1.417   .     A
C289   C296    1.398   .     A
C289   C315    1.488   .     S
C290   C316    1.484   .     S
C290   C304    1.409   .     A
C291   C303    1.411   .     A
C291   C318    1.480   .     S
C292   C319    1.486   .     S
C292   C303    1.408   .     A
C293   C304    1.412   .     A
C293   C320    1.490   .     S
C294   C307    1.419   .     A
C294   C321    1.484   .     S
C295   C300    1.451   .     S
C295   O407    1.290   .     A
C295   O404    1.287   .     A
C296   C322    1.482   .     S
C296   C305    1.419   .     A
C297   C323    1.479   .     S
C297   C305    1.419   .     A
C298   C324    1.487   .     S
C298   C307    1.410   .     A
C299   C306    1.453   .     S
C303   C327    1.453   .     S
C304   C326    1.450   .     S
C305   C325    1.477   .     S
C306   O406    1.289   .     A
C306   O405    1.289   .     A
C307   C317    1.479   .     S
C308   O369    1.222   .     D
C308   O370    1.398   .     S
C309   O371    1.222   .     D
C309   O373    1.397   .     S
C310   O375    1.396   .     S
C310   O374    1.223   .     D
C311   O376    1.223   .     D
C311   O377    1.397   .     S
C312   O379    1.396   .     S
C312   O378    1.222   .     D
C313   O380    1.223   .     D
C313   O381    1.397   .     S
C314   O384    1.397   .     S
C314   O382    1.223   .     D
C315   O386    1.398   .     S
C315   O385    1.222   .     D
C316   O387    1.223   .     D
C316   O388    1.397   .     S
C317   O364    1.304   .     A
C317   O408    1.289   .     A
C318   O390    1.397   .     S
C318   O389    1.222   .     D
C319   O391    1.223   .     D
C319   O392    1.396   .     S
C320   O395    1.397   .     S
C320   O393    1.222   .     D
C321   O396    1.221   .     D
C321   O397    1.396   .     S
C322   O398    1.222   .     D
C322   O399    1.398   .     S
C323   O400    1.223   .     D
C323   O401    1.395   .     S
C324   O403    1.395   .     S
C324   O402    1.223   .     D
C325   O363    1.295   .     A
C325   O362    1.297   .     A
C326   O365    1.289   .     A
C326   O368    1.287   .     A
C327   O366    1.286   .     A
C327   O367    1.291   .     A
C328   H333    1.082   .     S
C328   C1364   1.417   1_554 S
C328   N494    1.367   .     S
Cu329  O361    1.991   .     S
Cu329  O405    1.966   .     S
Cu329  Cu330   2.678   .     S
Cu329  N357    2.013   .     S
Cu329  O519    1.988   1_455 S
Cu329  O543    1.963   1_455 S
Cu330  O540    1.966   1_455 S
Cu330  O508    1.991   1_455 S
Cu330  N358    2.013   .     S
Cu330  O394    1.988   .     S
Cu330  O406    1.963   .     S
Cu331  Cu332   2.678   .     S
Cu331  N359    2.013   .     S
Cu331  O363    1.988   .     S
Cu331  O366    1.966   .     S
Cu332  N360    2.013   .     S
Cu332  O362    1.991   .     S
Cu332  O367    1.963   .     S
H334   O373    1.012   .     S
H335   O511    1.013   .     S
H336   O377    1.013   .     S
H337   O379    1.012   .     S
H338   O381    1.014   .     S
H339   O384    1.013   .     S
H340   O386    1.014   .     S
H342   O390    1.011   .     S
H343   O392    1.012   .     S
H345   O395    1.014   .     S
H346   O397    1.014   .     S
H347   O399    1.012   .     S
H348   O401    1.008   .     S
H349   O403    1.013   .     S
H356   O370    1.013   .     S
N357   C412    1.367   1_455 A
N358   C464    1.367   1_455 S
O364   Cu60    1.988   1_565 S
O365   Cu60    1.966   1_565 S
O368   Cu59    1.963   1_565 S
O372   Cu466   1.991   .     S
O375   H471    1.013   1_455 S
O383   Cu465   1.988   .     S
O388   H69     1.013   1_565 S
O404   Cu466   1.966   .     S
O407   Cu465   1.963   .     S
O408   Cu59    1.991   1_565 S
C409   O530    1.296   .     A
C409   O497    1.294   .     A
C409   C438    1.470   .     S
C410   H480    1.079   .     S
C410   C955    1.415   .     S
C410   N493    1.366   .     S
C411   N494    1.366   .     A
C411   H486    1.080   .     S
C411   C1498   1.415   1_554 S
C412   H487    1.081   .     S
C412   N357    1.367   1_655 A
C412   C1008   1.417   .     S
C413   N224    1.366   1_565 A
C413   H488    1.081   .     S
C413   C1504   1.415   1_554 S
C414   H489    1.081   .     S
C414   C959    1.416   .     S
C414   N495    1.366   .     S
C415   H490    1.081   .     S
C415   C1502   1.416   1_554 S
C415   N496    1.367   .     S
C416   H491    1.080   .     S
C416   N223    1.367   1_565 A
C416   C957    1.415   .     S
C417   C444    1.481   .     S
C417   C428    1.400   .     A
C417   C436    1.410   .     A
C418   C435    1.412   .     A
C418   C445    1.482   .     S
C418   C429    1.402   .     A
C419   C426    1.401   .     A
C419   C446    1.487   .     S
C419   C435    1.412   .     A
C420   C437    1.479   .     S
C420   O508    1.290   .     A
C420   O519    1.304   .     A
C421   C436    1.411   .     A
C421   C427    1.403   .     A
C421   C447    1.491   .     S
C422   C438    1.417   .     A
C422   C433    1.394   .     A
C422   C448    1.488   .     S
C423   C437    1.425   .     A
C423   C449    1.486   .     S
C423   C434    1.403   .     A
C424   C437    1.413   .     A
C424   C450    1.486   .     S
C424   C430    1.400   .     A
C425   C438    1.417   .     A
C425   C432    1.398   .     A
C425   C451    1.488   .     S
C426   C452    1.484   .     S
C426   C440    1.409   .     A
C427   C439    1.411   .     A
C427   C454    1.480   .     S
C428   C455    1.486   .     S
C428   C439    1.408   .     A
C429   C440    1.412   .     A
C429   C456    1.490   .     S
C430   C443    1.419   .     A
C430   C457    1.484   .     S
C431   C436    1.451   .     S
C431   O543    1.290   .     A
C431   O540    1.287   .     A
C432   C458    1.482   .     S
C432   C441    1.419   .     A
C433   C459    1.479   .     S
C433   C441    1.419   .     A
C434   C460    1.487   .     S
C434   C443    1.410   .     A
C435   C442    1.453   .     S
C439   C463    1.453   .     S
C440   C462    1.450   .     S
C441   C461    1.477   .     S
C442   O542    1.289   .     A
C442   O541    1.289   .     A
C443   C453    1.479   .     S
C444   O505    1.222   .     D
C444   O506    1.398   .     S
C445   O507    1.222   .     D
C445   O509    1.397   .     S
C446   O511    1.396   .     S
C446   O510    1.223   .     D
C447   O512    1.223   .     D
C447   O513    1.397   .     S
C448   O515    1.396   .     S
C448   O514    1.222   .     D
C449   O516    1.223   .     D
C449   O517    1.397   .     S
C450   O520    1.397   .     S
C450   O518    1.223   .     D
C451   O522    1.398   .     S
C451   O521    1.222   .     D
C452   O523    1.223   .     D
C452   O524    1.397   .     S
C453   O500    1.304   .     A
C453   O544    1.289   .     A
C454   O526    1.397   .     S
C454   O525    1.222   .     D
C455   O527    1.223   .     D
C455   O528    1.396   .     S
C456   O531    1.397   .     S
C456   O529    1.222   .     D
C457   O532    1.221   .     D
C457   O533    1.396   .     S
C458   O534    1.222   .     D
C458   O535    1.398   .     S
C459   O536    1.223   .     D
C459   O537    1.395   .     S
C460   O539    1.395   .     S
C460   O538    1.223   .     D
C461   O499    1.295   .     A
C461   O498    1.297   .     A
C462   O501    1.289   .     A
C462   O504    1.287   .     A
C463   O502    1.286   .     A
C463   O503    1.291   .     A
C464   H469    1.082   .     S
C464   C1500   1.417   1_554 S
C464   N358    1.367   1_655 S
Cu465  O497    1.991   .     S
Cu465  O541    1.966   .     S
Cu465  Cu466   2.678   .     S
Cu465  N493    2.013   .     S
Cu466  N494    2.013   .     S
Cu466  O530    1.988   .     S
Cu466  O542    1.963   .     S
Cu467  Cu468   2.678   .     S
Cu467  N495    2.013   .     S
Cu467  O499    1.988   .     S
Cu467  O502    1.966   .     S
Cu468  N496    2.013   .     S
Cu468  O498    1.991   .     S
Cu468  O503    1.963   .     S
H470   O509    1.012   .     S
H471   O375    1.013   1_655 S
H472   O513    1.013   .     S
H473   O515    1.012   .     S
H474   O517    1.014   .     S
H475   O520    1.013   .     S
H476   O522    1.014   .     S
H478   O526    1.011   .     S
H479   O528    1.012   .     S
H481   O531    1.014   .     S
H482   O533    1.014   .     S
H483   O535    1.012   .     S
H484   O537    1.008   .     S
H485   O539    1.013   .     S
H492   O506    1.013   .     S
O500   Cu196   1.988   1_565 S
O501   Cu196   1.966   1_565 S
O504   Cu195   1.963   1_565 S
O508   Cu330   1.991   1_655 S
O519   Cu329   1.988   1_655 S
O524   H205    1.013   1_565 S
O540   Cu330   1.966   1_655 S
O543   Cu329   1.963   1_655 S
O544   Cu195   1.991   1_565 S
C545   O666    1.296   .     A
C545   O633    1.294   .     A
C545   C574    1.470   .     S
C546   H616    1.079   .     S
C546   C1091   1.415   .     S
C546   N629    1.366   .     S
C547   N630    1.366   .     A
C547   H622    1.080   .     S
C548   H623    1.081   .     S
C548   N765    1.367   .     A
C548   C1144   1.417   .     S
C549   N904    1.366   .     A
C549   H624    1.081   .     S
C550   H625    1.081   .     S
C550   C1095   1.416   .     S
C550   N631    1.366   .     S
C551   H626    1.081   .     S
C551   N632    1.367   .     S
C552   H627    1.080   .     S
C552   N903    1.367   .     A
C552   C1093   1.415   .     S
C553   C580    1.481   .     S
C553   C564    1.400   .     A
C553   C572    1.410   .     A
C554   C571    1.412   .     A
C554   C581    1.482   .     S
C554   C565    1.402   .     A
C555   C562    1.401   .     A
C555   C582    1.487   .     S
C555   C571    1.412   .     A
C556   C573    1.479   .     S
C556   O644    1.290   .     A
C556   O655    1.304   .     A
C557   C572    1.411   .     A
C557   C563    1.403   .     A
C557   C583    1.491   .     S
C558   C574    1.417   .     A
C558   C569    1.394   .     A
C558   C584    1.488   .     S
C559   C573    1.425   .     A
C559   C585    1.486   .     S
C559   C570    1.403   .     A
C560   C573    1.413   .     A
C560   C586    1.486   .     S
C560   C566    1.400   .     A
C561   C574    1.417   .     A
C561   C568    1.398   .     A
C561   C587    1.488   .     S
C562   C588    1.484   .     S
C562   C576    1.409   .     A
C563   C575    1.411   .     A
C563   C590    1.480   .     S
C564   C591    1.486   .     S
C564   C575    1.408   .     A
C565   C576    1.412   .     A
C565   C592    1.490   .     S
C566   C579    1.419   .     A
C566   C593    1.484   .     S
C567   C572    1.451   .     S
C567   O679    1.290   .     A
C567   O676    1.287   .     A
C568   C594    1.482   .     S
C568   C577    1.419   .     A
C569   C595    1.479   .     S
C569   C577    1.419   .     A
C570   C596    1.487   .     S
C570   C579    1.410   .     A
C571   C578    1.453   .     S
C575   C599    1.453   .     S
C576   C598    1.450   .     S
C577   C597    1.477   .     S
C578   O678    1.289   .     A
C578   O677    1.289   .     A
C579   C589    1.479   .     S
C580   O641    1.222   .     D
C580   O642    1.398   .     S
C581   O643    1.222   .     D
C581   O645    1.397   .     S
C582   O647    1.396   .     S
C582   O646    1.223   .     D
C583   O648    1.223   .     D
C583   O649    1.397   .     S
C584   O651    1.396   .     S
C584   O650    1.222   .     D
C585   O652    1.223   .     D
C585   O653    1.397   .     S
C586   O656    1.397   .     S
C586   O654    1.223   .     D
C587   O658    1.398   .     S
C587   O657    1.222   .     D
C588   O659    1.223   .     D
C588   O660    1.397   .     S
C589   O636    1.304   .     A
C589   O680    1.289   .     A
C590   O662    1.397   .     S
C590   O661    1.222   .     D
C591   O663    1.223   .     D
C591   O664    1.396   .     S
C592   O667    1.397   .     S
C592   O665    1.222   .     D
C593   O668    1.221   .     D
C593   O669    1.396   .     S
C594   O670    1.222   .     D
C594   O671    1.398   .     S
C595   O672    1.223   .     D
C595   O673    1.395   .     S
C596   O675    1.395   .     S
C596   O674    1.223   .     D
C597   O635    1.295   .     A
C597   O634    1.297   .     A
C598   O637    1.289   .     A
C598   O640    1.287   .     A
C599   O638    1.286   .     A
C599   O639    1.291   .     A
C600   H605    1.082   .     S
C600   N766    1.367   .     S
Cu601  O633    1.991   .     S
Cu601  O677    1.966   .     S
Cu601  Cu602   2.678   .     S
Cu601  N629    2.013   .     S
Cu601  O791    1.988   1_455 S
Cu601  O815    1.963   1_455 S
Cu602  O812    1.966   1_455 S
Cu602  O780    1.991   1_455 S
Cu602  N630    2.013   .     S
Cu602  O666    1.988   .     S
Cu602  O678    1.963   .     S
Cu603  O952    1.991   1_545 S
Cu603  Cu604   2.678   .     S
Cu603  O912    1.963   1_545 S
Cu603  N631    2.013   .     S
Cu603  O635    1.988   .     S
Cu603  O638    1.966   .     S
Cu604  N632    2.013   .     S
Cu604  O909    1.966   1_545 S
Cu604  O908    1.988   1_545 S
Cu604  O634    1.991   .     S
Cu604  O639    1.963   .     S
H606   O645    1.012   .     S
H607   O783    1.013   .     S
H608   O649    1.013   .     S
H609   O651    1.012   .     S
H610   O653    1.014   .     S
H611   O656    1.013   .     S
H612   O658    1.014   .     S
H613   O932    1.013   1_545 S
H614   O662    1.011   .     S
H615   O664    1.012   .     S
H617   O667    1.014   .     S
H618   O669    1.014   .     S
H619   O671    1.012   .     S
H620   O673    1.008   .     S
H621   O675    1.013   .     S
H628   O642    1.013   .     S
N629   C684    1.367   1_455 A
N630   C736    1.367   1_455 S
N631   C824    1.367   1_545 A
N632   C821    1.366   1_545 A
O636   Cu876   1.988   .     S
O637   Cu876   1.966   .     S
O640   Cu875   1.963   .     S
O644   Cu738   1.991   .     S
O647   H743    1.013   1_455 S
O655   Cu737   1.988   .     S
O660   H885    1.013   .     S
O676   Cu738   1.966   .     S
O679   Cu737   1.963   .     S
O680   Cu875   1.991   .     S
C681   O802    1.296   .     A
C681   O769    1.294   .     A
C681   C710    1.470   .     S
C682   H752    1.079   .     S
C682   C1227   1.415   .     S
C682   N765    1.366   .     S
C683   N766    1.366   .     A
C683   H758    1.080   .     S
C684   H759    1.081   .     S
C684   N629    1.367   1_655 A
C684   C1280   1.417   .     S
C685   N1040   1.366   .     A
C685   H760    1.081   .     S
C686   H761    1.081   .     S
C686   C1231   1.416   .     S
C686   N767    1.366   .     S
C687   H762    1.081   .     S
C687   N768    1.367   .     S
C688   H763    1.080   .     S
C688   N1039   1.367   .     A
C688   C1229   1.415   .     S
C689   C716    1.481   .     S
C689   C700    1.400   .     A
C689   C708    1.410   .     A
C690   C707    1.412   .     A
C690   C717    1.482   .     S
C690   C701    1.402   .     A
C691   C698    1.401   .     A
C691   C718    1.487   .     S
C691   C707    1.412   .     A
C692   C709    1.479   .     S
C692   O780    1.290   .     A
C692   O791    1.304   .     A
C693   C708    1.411   .     A
C693   C699    1.403   .     A
C693   C719    1.491   .     S
C694   C710    1.417   .     A
C694   C705    1.394   .     A
C694   C720    1.488   .     S
C695   C709    1.425   .     A
C695   C721    1.486   .     S
C695   C706    1.403   .     A
C696   C709    1.413   .     A
C696   C722    1.486   .     S
C696   C702    1.400   .     A
C697   C710    1.417   .     A
C697   C704    1.398   .     A
C697   C723    1.488   .     S
C698   C724    1.484   .     S
C698   C712    1.409   .     A
C699   C711    1.411   .     A
C699   C726    1.480   .     S
C700   C727    1.486   .     S
C700   C711    1.408   .     A
C701   C712    1.412   .     A
C701   C728    1.490   .     S
C702   C715    1.419   .     A
C702   C729    1.484   .     S
C703   C708    1.451   .     S
C703   O815    1.290   .     A
C703   O812    1.287   .     A
C704   C730    1.482   .     S
C704   C713    1.419   .     A
C705   C731    1.479   .     S
C705   C713    1.419   .     A
C706   C732    1.487   .     S
C706   C715    1.410   .     A
C707   C714    1.453   .     S
C711   C735    1.453   .     S
C712   C734    1.450   .     S
C713   C733    1.477   .     S
C714   O814    1.289   .     A
C714   O813    1.289   .     A
C715   C725    1.479   .     S
C716   O777    1.222   .     D
C716   O778    1.398   .     S
C717   O779    1.222   .     D
C717   O781    1.397   .     S
C718   O783    1.396   .     S
C718   O782    1.223   .     D
C719   O784    1.223   .     D
C719   O785    1.397   .     S
C720   O787    1.396   .     S
C720   O786    1.222   .     D
C721   O788    1.223   .     D
C721   O789    1.397   .     S
C722   O792    1.397   .     S
C722   O790    1.223   .     D
C723   O794    1.398   .     S
C723   O793    1.222   .     D
C724   O795    1.223   .     D
C724   O796    1.397   .     S
C725   O772    1.304   .     A
C725   O816    1.289   .     A
C726   O798    1.397   .     S
C726   O797    1.222   .     D
C727   O799    1.223   .     D
C727   O800    1.396   .     S
C728   O803    1.397   .     S
C728   O801    1.222   .     D
C729   O804    1.221   .     D
C729   O805    1.396   .     S
C730   O806    1.222   .     D
C730   O807    1.398   .     S
C731   O808    1.223   .     D
C731   O809    1.395   .     S
C732   O811    1.395   .     S
C732   O810    1.223   .     D
C733   O771    1.295   .     A
C733   O770    1.297   .     A
C734   O773    1.289   .     A
C734   O776    1.287   .     A
C735   O774    1.286   .     A
C735   O775    1.291   .     A
C736   H741    1.082   .     S
C736   N630    1.367   1_655 S
Cu737  O769    1.991   .     S
Cu737  O813    1.966   .     S
Cu737  Cu738   2.678   .     S
Cu737  N765    2.013   .     S
Cu738  N766    2.013   .     S
Cu738  O802    1.988   .     S
Cu738  O814    1.963   .     S
Cu739  O1088   1.991   1_545 S
Cu739  Cu740   2.678   .     S
Cu739  O1048   1.963   1_545 S
Cu739  N767    2.013   .     S
Cu739  O771    1.988   .     S
Cu739  O774    1.966   .     S
Cu740  N768    2.013   .     S
Cu740  O1045   1.966   1_545 S
Cu740  O1044   1.988   1_545 S
Cu740  O770    1.991   .     S
Cu740  O775    1.963   .     S
H742   O781    1.012   .     S
H743   O647    1.013   1_655 S
H744   O785    1.013   .     S
H745   O787    1.012   .     S
H746   O789    1.014   .     S
H747   O792    1.013   .     S
H748   O794    1.014   .     S
H749   O1068   1.013   1_545 S
H750   O798    1.011   .     S
H751   O800    1.012   .     S
H753   O803    1.014   .     S
H754   O805    1.014   .     S
H755   O807    1.012   .     S
H756   O809    1.008   .     S
H757   O811    1.013   .     S
H764   O778    1.013   .     S
N767   C960    1.367   1_545 A
N768   C957    1.366   1_545 A
O772   Cu1012  1.988   .     S
O773   Cu1012  1.966   .     S
O776   Cu1011  1.963   .     S
O780   Cu602   1.991   1_655 S
O791   Cu601   1.988   1_655 S
O796   H1021   1.013   .     S
O812   Cu602   1.966   1_655 S
O815   Cu601   1.963   1_655 S
O816   Cu1011  1.991   .     S
C817   O938    1.296   .     A
C817   O905    1.294   .     A
C817   C846    1.470   .     S
C818   H888    1.079   .     S
C818   C1363   1.415   .     S
C818   N901    1.366   .     S
C819   N902    1.366   .     A
C819   H894    1.080   .     S
C820   H895    1.081   .     S
C820   N1037   1.367   .     A
C820   C1416   1.417   .     S
C821   N632    1.366   1_565 A
C821   H896    1.081   .     S
C822   H897    1.081   .     S
C822   C1367   1.416   .     S
C822   N903    1.366   .     S
C823   H898    1.081   .     S
C823   N904    1.367   .     S
C824   H899    1.080   .     S
C824   N631    1.367   1_565 A
C824   C1365   1.415   .     S
C825   C852    1.481   .     S
C825   C836    1.400   .     A
C825   C844    1.410   .     A
C826   C843    1.412   .     A
C826   C853    1.482   .     S
C826   C837    1.402   .     A
C827   C834    1.401   .     A
C827   C854    1.487   .     S
C827   C843    1.412   .     A
C828   C845    1.479   .     S
C828   O916    1.290   .     A
C828   O927    1.304   .     A
C829   C844    1.411   .     A
C829   C835    1.403   .     A
C829   C855    1.491   .     S
C830   C846    1.417   .     A
C830   C841    1.394   .     A
C830   C856    1.488   .     S
C831   C845    1.425   .     A
C831   C857    1.486   .     S
C831   C842    1.403   .     A
C832   C845    1.413   .     A
C832   C858    1.486   .     S
C832   C838    1.400   .     A
C833   C846    1.417   .     A
C833   C840    1.398   .     A
C833   C859    1.488   .     S
C834   C860    1.484   .     S
C834   C848    1.409   .     A
C835   C847    1.411   .     A
C835   C862    1.480   .     S
C836   C863    1.486   .     S
C836   C847    1.408   .     A
C837   C848    1.412   .     A
C837   C864    1.490   .     S
C838   C851    1.419   .     A
C838   C865    1.484   .     S
C839   C844    1.451   .     S
C839   O951    1.290   .     A
C839   O948    1.287   .     A
C840   C866    1.482   .     S
C840   C849    1.419   .     A
C841   C867    1.479   .     S
C841   C849    1.419   .     A
C842   C868    1.487   .     S
C842   C851    1.410   .     A
C843   C850    1.453   .     S
C847   C871    1.453   .     S
C848   C870    1.450   .     S
C849   C869    1.477   .     S
C850   O950    1.289   .     A
C850   O949    1.289   .     A
C851   C861    1.479   .     S
C852   O913    1.222   .     D
C852   O914    1.398   .     S
C853   O915    1.222   .     D
C853   O917    1.397   .     S
C854   O919    1.396   .     S
C854   O918    1.223   .     D
C855   O920    1.223   .     D
C855   O921    1.397   .     S
C856   O923    1.396   .     S
C856   O922    1.222   .     D
C857   O924    1.223   .     D
C857   O925    1.397   .     S
C858   O928    1.397   .     S
C858   O926    1.223   .     D
C859   O930    1.398   .     S
C859   O929    1.222   .     D
C860   O931    1.223   .     D
C860   O932    1.397   .     S
C861   O908    1.304   .     A
C861   O952    1.289   .     A
C862   O934    1.397   .     S
C862   O933    1.222   .     D
C863   O935    1.223   .     D
C863   O936    1.396   .     S
C864   O939    1.397   .     S
C864   O937    1.222   .     D
C865   O940    1.221   .     D
C865   O941    1.396   .     S
C866   O942    1.222   .     D
C866   O943    1.398   .     S
C867   O944    1.223   .     D
C867   O945    1.395   .     S
C868   O947    1.395   .     S
C868   O946    1.223   .     D
C869   O907    1.295   .     A
C869   O906    1.297   .     A
C870   O909    1.289   .     A
C870   O912    1.287   .     A
C871   O910    1.286   .     A
C871   O911    1.291   .     A
C872   H877    1.082   .     S
C872   N1038   1.367   .     S
Cu873  O905    1.991   .     S
Cu873  O949    1.966   .     S
Cu873  Cu874   2.678   .     S
Cu873  N901    2.013   .     S
Cu873  O1063   1.988   1_455 S
Cu873  O1087   1.963   1_455 S
Cu874  O1084   1.966   1_455 S
Cu874  O1052   1.991   1_455 S
Cu874  N902    2.013   .     S
Cu874  O938    1.988   .     S
Cu874  O950    1.963   .     S
Cu875  Cu876   2.678   .     S
Cu875  N903    2.013   .     S
Cu875  O907    1.988   .     S
Cu875  O910    1.966   .     S
Cu876  N904    2.013   .     S
Cu876  O906    1.991   .     S
Cu876  O911    1.963   .     S
H878   O917    1.012   .     S
H879   O1055   1.013   .     S
H880   O921    1.013   .     S
H881   O923    1.012   .     S
H882   O925    1.014   .     S
H883   O928    1.013   .     S
H884   O930    1.014   .     S
H886   O934    1.011   .     S
H887   O936    1.012   .     S
H889   O939    1.014   .     S
H890   O941    1.014   .     S
H891   O943    1.012   .     S
H892   O945    1.008   .     S
H893   O947    1.013   .     S
H900   O914    1.013   .     S
N901   C956    1.367   1_455 A
N902   C1008   1.367   1_455 S
O908   Cu604   1.988   1_565 S
O909   Cu604   1.966   1_565 S
O912   Cu603   1.963   1_565 S
O916   Cu1010  1.991   .     S
O919   H1015   1.013   1_455 S
O927   Cu1009  1.988   .     S
O932   H613    1.013   1_565 S
O948   Cu1010  1.966   .     S
O951   Cu1009  1.963   .     S
O952   Cu603   1.991   1_565 S
C953   O1074   1.296   .     A
C953   O1041   1.294   .     A
C953   C982    1.470   .     S
C954   H1024   1.079   .     S
C954   C1499   1.415   .     S
C954   N1037   1.366   .     S
C955   N1038   1.366   .     A
C955   H1030   1.080   .     S
C956   H1031   1.081   .     S
C956   N901    1.367   1_655 A
C956   C1552   1.417   .     S
C957   N768    1.366   1_565 A
C957   H1032   1.081   .     S
C958   H1033   1.081   .     S
C958   C1503   1.416   .     S
C958   N1039   1.366   .     S
C959   H1034   1.081   .     S
C959   N1040   1.367   .     S
C960   H1035   1.080   .     S
C960   N767    1.367   1_565 A
C960   C1501   1.415   .     S
C961   C988    1.481   .     S
C961   C972    1.400   .     A
C961   C980    1.410   .     A
C962   C979    1.412   .     A
C962   C989    1.482   .     S
C962   C973    1.402   .     A
C963   C970    1.401   .     A
C963   C990    1.487   .     S
C963   C979    1.412   .     A
C964   C981    1.479   .     S
C964   O1052   1.290   .     A
C964   O1063   1.304   .     A
C965   C980    1.411   .     A
C965   C971    1.403   .     A
C965   C991    1.491   .     S
C966   C982    1.417   .     A
C966   C977    1.394   .     A
C966   C992    1.488   .     S
C967   C981    1.425   .     A
C967   C993    1.486   .     S
C967   C978    1.403   .     A
C968   C981    1.413   .     A
C968   C994    1.486   .     S
C968   C974    1.400   .     A
C969   C982    1.417   .     A
C969   C976    1.398   .     A
C969   C995    1.488   .     S
C970   C996    1.484   .     S
C970   C984    1.409   .     A
C971   C983    1.411   .     A
C971   C998    1.480   .     S
C972   C999    1.486   .     S
C972   C983    1.408   .     A
C973   C984    1.412   .     A
C973   C1000   1.490   .     S
C974   C987    1.419   .     A
C974   C1001   1.484   .     S
C975   C980    1.451   .     S
C975   O1087   1.290   .     A
C975   O1084   1.287   .     A
C976   C1002   1.482   .     S
C976   C985    1.419   .     A
C977   C1003   1.479   .     S
C977   C985    1.419   .     A
C978   C1004   1.487   .     S
C978   C987    1.410   .     A
C979   C986    1.453   .     S
C983   C1007   1.453   .     S
C984   C1006   1.450   .     S
C985   C1005   1.477   .     S
C986   O1086   1.289   .     A
C986   O1085   1.289   .     A
C987   C997    1.479   .     S
C988   O1049   1.222   .     D
C988   O1050   1.398   .     S
C989   O1051   1.222   .     D
C989   O1053   1.397   .     S
C990   O1055   1.396   .     S
C990   O1054   1.223   .     D
C991   O1056   1.223   .     D
C991   O1057   1.397   .     S
C992   O1059   1.396   .     S
C992   O1058   1.222   .     D
C993   O1060   1.223   .     D
C993   O1061   1.397   .     S
C994   O1064   1.397   .     S
C994   O1062   1.223   .     D
C995   O1066   1.398   .     S
C995   O1065   1.222   .     D
C996   O1067   1.223   .     D
C996   O1068   1.397   .     S
C997   O1044   1.304   .     A
C997   O1088   1.289   .     A
C998   O1070   1.397   .     S
C998   O1069   1.222   .     D
C999   O1071   1.223   .     D
C999   O1072   1.396   .     S
C1000  O1075   1.397   .     S
C1000  O1073   1.222   .     D
C1001  O1076   1.221   .     D
C1001  O1077   1.396   .     S
C1002  O1078   1.222   .     D
C1002  O1079   1.398   .     S
C1003  O1080   1.223   .     D
C1003  O1081   1.395   .     S
C1004  O1083   1.395   .     S
C1004  O1082   1.223   .     D
C1005  O1043   1.295   .     A
C1005  O1042   1.297   .     A
C1006  O1045   1.289   .     A
C1006  O1048   1.287   .     A
C1007  O1046   1.286   .     A
C1007  O1047   1.291   .     A
C1008  H1013   1.082   .     S
C1008  N902    1.367   1_655 S
Cu1009 O1041   1.991   .     S
Cu1009 O1085   1.966   .     S
Cu1009 Cu1010  2.678   .     S
Cu1009 N1037   2.013   .     S
Cu1010 N1038   2.013   .     S
Cu1010 O1074   1.988   .     S
Cu1010 O1086   1.963   .     S
Cu1011 Cu1012  2.678   .     S
Cu1011 N1039   2.013   .     S
Cu1011 O1043   1.988   .     S
Cu1011 O1046   1.966   .     S
Cu1012 N1040   2.013   .     S
Cu1012 O1042   1.991   .     S
Cu1012 O1047   1.963   .     S
H1014  O1053   1.012   .     S
H1015  O919    1.013   1_655 S
H1016  O1057   1.013   .     S
H1017  O1059   1.012   .     S
H1018  O1061   1.014   .     S
H1019  O1064   1.013   .     S
H1020  O1066   1.014   .     S
H1022  O1070   1.011   .     S
H1023  O1072   1.012   .     S
H1025  O1075   1.014   .     S
H1026  O1077   1.014   .     S
H1027  O1079   1.012   .     S
H1028  O1081   1.008   .     S
H1029  O1083   1.013   .     S
H1036  O1050   1.013   .     S
O1044  Cu740   1.988   1_565 S
O1045  Cu740   1.966   1_565 S
O1048  Cu739   1.963   1_565 S
O1052  Cu874   1.991   1_655 S
O1063  Cu873   1.988   1_655 S
O1068  H749    1.013   1_565 S
O1084  Cu874   1.966   1_655 S
O1087  Cu873   1.963   1_655 S
O1088  Cu739   1.991   1_565 S
C1089  O1210   1.296   .     A
C1089  O1177   1.294   .     A
C1089  C1118   1.470   .     S
C1090  H1160   1.079   .     S
C1090  C3      1.415   1_556 S
C1090  N1173   1.366   .     S
C1091  N1174   1.366   .     A
C1091  H1166   1.080   .     S
C1092  H1167   1.081   .     S
C1092  N1309   1.367   .     A
C1092  C56     1.417   1_556 S
C1093  N1448   1.366   .     A
C1093  H1168   1.081   .     S
C1094  H1169   1.081   .     S
C1094  C7      1.416   1_556 S
C1094  N1175   1.366   .     S
C1095  H1170   1.081   .     S
C1095  N1176   1.367   .     S
C1096  H1171   1.080   .     S
C1096  N1447   1.367   .     A
C1096  C5      1.415   1_556 S
C1097  C1124   1.481   .     S
C1097  C1108   1.400   .     A
C1097  C1116   1.410   .     A
C1098  C1115   1.412   .     A
C1098  C1125   1.482   .     S
C1098  C1109   1.402   .     A
C1099  C1106   1.401   .     A
C1099  C1126   1.487   .     S
C1099  C1115   1.412   .     A
C1100  C1117   1.479   .     S
C1100  O1188   1.290   .     A
C1100  O1199   1.304   .     A
C1101  C1116   1.411   .     A
C1101  C1107   1.403   .     A
C1101  C1127   1.491   .     S
C1102  C1118   1.417   .     A
C1102  C1113   1.394   .     A
C1102  C1128   1.488   .     S
C1103  C1117   1.425   .     A
C1103  C1129   1.486   .     S
C1103  C1114   1.403   .     A
C1104  C1117   1.413   .     A
C1104  C1130   1.486   .     S
C1104  C1110   1.400   .     A
C1105  C1118   1.417   .     A
C1105  C1112   1.398   .     A
C1105  C1131   1.488   .     S
C1106  C1132   1.484   .     S
C1106  C1120   1.409   .     A
C1107  C1119   1.411   .     A
C1107  C1134   1.480   .     S
C1108  C1135   1.486   .     S
C1108  C1119   1.408   .     A
C1109  C1120   1.412   .     A
C1109  C1136   1.490   .     S
C1110  C1123   1.419   .     A
C1110  C1137   1.484   .     S
C1111  C1116   1.451   .     S
C1111  O1223   1.290   .     A
C1111  O1220   1.287   .     A
C1112  C1138   1.482   .     S
C1112  C1121   1.419   .     A
C1113  C1139   1.479   .     S
C1113  C1121   1.419   .     A
C1114  C1140   1.487   .     S
C1114  C1123   1.410   .     A
C1115  C1122   1.453   .     S
C1119  C1143   1.453   .     S
C1120  C1142   1.450   .     S
C1121  C1141   1.477   .     S
C1122  O1222   1.289   .     A
C1122  O1221   1.289   .     A
C1123  C1133   1.479   .     S
C1124  O1185   1.222   .     D
C1124  O1186   1.398   .     S
C1125  O1187   1.222   .     D
C1125  O1189   1.397   .     S
C1126  O1191   1.396   .     S
C1126  O1190   1.223   .     D
C1127  O1192   1.223   .     D
C1127  O1193   1.397   .     S
C1128  O1195   1.396   .     S
C1128  O1194   1.222   .     D
C1129  O1196   1.223   .     D
C1129  O1197   1.397   .     S
C1130  O1200   1.397   .     S
C1130  O1198   1.223   .     D
C1131  O1202   1.398   .     S
C1131  O1201   1.222   .     D
C1132  O1203   1.223   .     D
C1132  O1204   1.397   .     S
C1133  O1180   1.304   .     A
C1133  O1224   1.289   .     A
C1134  O1206   1.397   .     S
C1134  O1205   1.222   .     D
C1135  O1207   1.223   .     D
C1135  O1208   1.396   .     S
C1136  O1211   1.397   .     S
C1136  O1209   1.222   .     D
C1137  O1212   1.221   .     D
C1137  O1213   1.396   .     S
C1138  O1214   1.222   .     D
C1138  O1215   1.398   .     S
C1139  O1216   1.223   .     D
C1139  O1217   1.395   .     S
C1140  O1219   1.395   .     S
C1140  O1218   1.223   .     D
C1141  O1179   1.295   .     A
C1141  O1178   1.297   .     A
C1142  O1181   1.289   .     A
C1142  O1184   1.287   .     A
C1143  O1182   1.286   .     A
C1143  O1183   1.291   .     A
C1144  H1149   1.082   .     S
C1144  N1310   1.367   .     S
Cu1145 O1177   1.991   .     S
Cu1145 O1221   1.966   .     S
Cu1145 Cu1146  2.678   .     S
Cu1145 N1173   2.013   .     S
Cu1145 O1335   1.988   1_455 S
Cu1145 O1359   1.963   1_455 S
Cu1146 O1356   1.966   1_455 S
Cu1146 O1324   1.991   1_455 S
Cu1146 N1174   2.013   .     S
Cu1146 O1210   1.988   .     S
Cu1146 O1222   1.963   .     S
Cu1147 O1496   1.991   1_545 S
Cu1147 Cu1148  2.678   .     S
Cu1147 O1456   1.963   1_545 S
Cu1147 N1175   2.013   .     S
Cu1147 O1179   1.988   .     S
Cu1147 O1182   1.966   .     S
Cu1148 N1176   2.013   .     S
Cu1148 O1453   1.966   1_545 S
Cu1148 O1452   1.988   1_545 S
Cu1148 O1178   1.991   .     S
Cu1148 O1183   1.963   .     S
H1150  O1189   1.012   .     S
H1151  O1327   1.013   .     S
H1152  O1193   1.013   .     S
H1153  O1195   1.012   .     S
H1154  O1197   1.014   .     S
H1155  O1200   1.013   .     S
H1156  O1202   1.014   .     S
H1157  O1476   1.013   1_545 S
H1158  O1206   1.011   .     S
H1159  O1208   1.012   .     S
H1161  O1211   1.014   .     S
H1162  O1213   1.014   .     S
H1163  O1215   1.012   .     S
H1164  O1217   1.008   .     S
H1165  O1219   1.013   .     S
H1172  O1186   1.013   .     S
N1173  C1228   1.367   1_455 A
N1174  C1280   1.367   1_455 S
N1175  C1368   1.367   1_545 A
N1176  C1365   1.366   1_545 A
O1180  Cu1420  1.988   .     S
O1181  Cu1420  1.966   .     S
O1184  Cu1419  1.963   .     S
O1188  Cu1282  1.991   .     S
O1191  H1287   1.013   1_455 S
O1199  Cu1281  1.988   .     S
O1204  H1429   1.013   .     S
O1220  Cu1282  1.966   .     S
O1223  Cu1281  1.963   .     S
O1224  Cu1419  1.991   .     S
C1225  O1346   1.296   .     A
C1225  O1313   1.294   .     A
C1225  C1254   1.470   .     S
C1226  H1296   1.079   .     S
C1226  C139    1.415   1_556 S
C1226  N1309   1.366   .     S
C1227  N1310   1.366   .     A
C1227  H1302   1.080   .     S
C1228  H1303   1.081   .     S
C1228  N1173   1.367   1_655 A
C1228  C192    1.417   1_556 S
C1229  N1584   1.366   .     A
C1229  H1304   1.081   .     S
C1230  H1305   1.081   .     S
C1230  C143    1.416   1_556 S
C1230  N1311   1.366   .     S
C1231  H1306   1.081   .     S
C1231  N1312   1.367   .     S
C1232  H1307   1.080   .     S
C1232  N1583   1.367   .     A
C1232  C141    1.415   1_556 S
C1233  C1260   1.481   .     S
C1233  C1244   1.400   .     A
C1233  C1252   1.410   .     A
C1234  C1251   1.412   .     A
C1234  C1261   1.482   .     S
C1234  C1245   1.402   .     A
C1235  C1242   1.401   .     A
C1235  C1262   1.487   .     S
C1235  C1251   1.412   .     A
C1236  C1253   1.479   .     S
C1236  O1324   1.290   .     A
C1236  O1335   1.304   .     A
C1237  C1252   1.411   .     A
C1237  C1243   1.403   .     A
C1237  C1263   1.491   .     S
C1238  C1254   1.417   .     A
C1238  C1249   1.394   .     A
C1238  C1264   1.488   .     S
C1239  C1253   1.425   .     A
C1239  C1265   1.486   .     S
C1239  C1250   1.403   .     A
C1240  C1253   1.413   .     A
C1240  C1266   1.486   .     S
C1240  C1246   1.400   .     A
C1241  C1254   1.417   .     A
C1241  C1248   1.398   .     A
C1241  C1267   1.488   .     S
C1242  C1268   1.484   .     S
C1242  C1256   1.409   .     A
C1243  C1255   1.411   .     A
C1243  C1270   1.480   .     S
C1244  C1271   1.486   .     S
C1244  C1255   1.408   .     A
C1245  C1256   1.412   .     A
C1245  C1272   1.490   .     S
C1246  C1259   1.419   .     A
C1246  C1273   1.484   .     S
C1247  C1252   1.451   .     S
C1247  O1359   1.290   .     A
C1247  O1356   1.287   .     A
C1248  C1274   1.482   .     S
C1248  C1257   1.419   .     A
C1249  C1275   1.479   .     S
C1249  C1257   1.419   .     A
C1250  C1276   1.487   .     S
C1250  C1259   1.410   .     A
C1251  C1258   1.453   .     S
C1255  C1279   1.453   .     S
C1256  C1278   1.450   .     S
C1257  C1277   1.477   .     S
C1258  O1358   1.289   .     A
C1258  O1357   1.289   .     A
C1259  C1269   1.479   .     S
C1260  O1321   1.222   .     D
C1260  O1322   1.398   .     S
C1261  O1323   1.222   .     D
C1261  O1325   1.397   .     S
C1262  O1327   1.396   .     S
C1262  O1326   1.223   .     D
C1263  O1328   1.223   .     D
C1263  O1329   1.397   .     S
C1264  O1331   1.396   .     S
C1264  O1330   1.222   .     D
C1265  O1332   1.223   .     D
C1265  O1333   1.397   .     S
C1266  O1336   1.397   .     S
C1266  O1334   1.223   .     D
C1267  O1338   1.398   .     S
C1267  O1337   1.222   .     D
C1268  O1339   1.223   .     D
C1268  O1340   1.397   .     S
C1269  O1316   1.304   .     A
C1269  O1360   1.289   .     A
C1270  O1342   1.397   .     S
C1270  O1341   1.222   .     D
C1271  O1343   1.223   .     D
C1271  O1344   1.396   .     S
C1272  O1347   1.397   .     S
C1272  O1345   1.222   .     D
C1273  O1348   1.221   .     D
C1273  O1349   1.396   .     S
C1274  O1350   1.222   .     D
C1274  O1351   1.398   .     S
C1275  O1352   1.223   .     D
C1275  O1353   1.395   .     S
C1276  O1355   1.395   .     S
C1276  O1354   1.223   .     D
C1277  O1315   1.295   .     A
C1277  O1314   1.297   .     A
C1278  O1317   1.289   .     A
C1278  O1320   1.287   .     A
C1279  O1318   1.286   .     A
C1279  O1319   1.291   .     A
C1280  H1285   1.082   .     S
C1280  N1174   1.367   1_655 S
Cu1281 O1313   1.991   .     S
Cu1281 O1357   1.966   .     S
Cu1281 Cu1282  2.678   .     S
Cu1281 N1309   2.013   .     S
Cu1282 N1310   2.013   .     S
Cu1282 O1346   1.988   .     S
Cu1282 O1358   1.963   .     S
Cu1283 O1632   1.991   1_545 S
Cu1283 Cu1284  2.678   .     S
Cu1283 O1592   1.963   1_545 S
Cu1283 N1311   2.013   .     S
Cu1283 O1315   1.988   .     S
Cu1283 O1318   1.966   .     S
Cu1284 N1312   2.013   .     S
Cu1284 O1589   1.966   1_545 S
Cu1284 O1588   1.988   1_545 S
Cu1284 O1314   1.991   .     S
Cu1284 O1319   1.963   .     S
H1286  O1325   1.012   .     S
H1287  O1191   1.013   1_655 S
H1288  O1329   1.013   .     S
H1289  O1331   1.012   .     S
H1290  O1333   1.014   .     S
H1291  O1336   1.013   .     S
H1292  O1338   1.014   .     S
H1293  O1612   1.013   1_545 S
H1294  O1342   1.011   .     S
H1295  O1344   1.012   .     S
H1297  O1347   1.014   .     S
H1298  O1349   1.014   .     S
H1299  O1351   1.012   .     S
H1300  O1353   1.008   .     S
H1301  O1355   1.013   .     S
H1308  O1322   1.013   .     S
N1311  C1504   1.367   1_545 A
N1312  C1501   1.366   1_545 A
O1316  Cu1556  1.988   .     S
O1317  Cu1556  1.966   .     S
O1320  Cu1555  1.963   .     S
O1324  Cu1146  1.991   1_655 S
O1335  Cu1145  1.988   1_655 S
O1340  H1565   1.013   .     S
O1356  Cu1146  1.966   1_655 S
O1359  Cu1145  1.963   1_655 S
O1360  Cu1555  1.991   .     S
C1361  O1482   1.296   .     A
C1361  O1449   1.294   .     A
C1361  C1390   1.470   .     S
C1362  H1432   1.079   .     S
C1362  C275    1.415   1_556 S
C1362  N1445   1.366   .     S
C1363  N1446   1.366   .     A
C1363  H1438   1.080   .     S
C1364  H1439   1.081   .     S
C1364  N1581   1.367   .     A
C1364  C328    1.417   1_556 S
C1365  N1176   1.366   1_565 A
C1365  H1440   1.081   .     S
C1366  H1441   1.081   .     S
C1366  C279    1.416   1_556 S
C1366  N1447   1.366   .     S
C1367  H1442   1.081   .     S
C1367  N1448   1.367   .     S
C1368  H1443   1.080   .     S
C1368  N1175   1.367   1_565 A
C1368  C277    1.415   1_556 S
C1369  C1396   1.481   .     S
C1369  C1380   1.400   .     A
C1369  C1388   1.410   .     A
C1370  C1387   1.412   .     A
C1370  C1397   1.482   .     S
C1370  C1381   1.402   .     A
C1371  C1378   1.401   .     A
C1371  C1398   1.487   .     S
C1371  C1387   1.412   .     A
C1372  C1389   1.479   .     S
C1372  O1460   1.290   .     A
C1372  O1471   1.304   .     A
C1373  C1388   1.411   .     A
C1373  C1379   1.403   .     A
C1373  C1399   1.491   .     S
C1374  C1390   1.417   .     A
C1374  C1385   1.394   .     A
C1374  C1400   1.488   .     S
C1375  C1389   1.425   .     A
C1375  C1401   1.486   .     S
C1375  C1386   1.403   .     A
C1376  C1389   1.413   .     A
C1376  C1402   1.486   .     S
C1376  C1382   1.400   .     A
C1377  C1390   1.417   .     A
C1377  C1384   1.398   .     A
C1377  C1403   1.488   .     S
C1378  C1404   1.484   .     S
C1378  C1392   1.409   .     A
C1379  C1391   1.411   .     A
C1379  C1406   1.480   .     S
C1380  C1407   1.486   .     S
C1380  C1391   1.408   .     A
C1381  C1392   1.412   .     A
C1381  C1408   1.490   .     S
C1382  C1395   1.419   .     A
C1382  C1409   1.484   .     S
C1383  C1388   1.451   .     S
C1383  O1495   1.290   .     A
C1383  O1492   1.287   .     A
C1384  C1410   1.482   .     S
C1384  C1393   1.419   .     A
C1385  C1411   1.479   .     S
C1385  C1393   1.419   .     A
C1386  C1412   1.487   .     S
C1386  C1395   1.410   .     A
C1387  C1394   1.453   .     S
C1391  C1415   1.453   .     S
C1392  C1414   1.450   .     S
C1393  C1413   1.477   .     S
C1394  O1494   1.289   .     A
C1394  O1493   1.289   .     A
C1395  C1405   1.479   .     S
C1396  O1457   1.222   .     D
C1396  O1458   1.398   .     S
C1397  O1459   1.222   .     D
C1397  O1461   1.397   .     S
C1398  O1463   1.396   .     S
C1398  O1462   1.223   .     D
C1399  O1464   1.223   .     D
C1399  O1465   1.397   .     S
C1400  O1467   1.396   .     S
C1400  O1466   1.222   .     D
C1401  O1468   1.223   .     D
C1401  O1469   1.397   .     S
C1402  O1472   1.397   .     S
C1402  O1470   1.223   .     D
C1403  O1474   1.398   .     S
C1403  O1473   1.222   .     D
C1404  O1475   1.223   .     D
C1404  O1476   1.397   .     S
C1405  O1452   1.304   .     A
C1405  O1496   1.289   .     A
C1406  O1478   1.397   .     S
C1406  O1477   1.222   .     D
C1407  O1479   1.223   .     D
C1407  O1480   1.396   .     S
C1408  O1483   1.397   .     S
C1408  O1481   1.222   .     D
C1409  O1484   1.221   .     D
C1409  O1485   1.396   .     S
C1410  O1486   1.222   .     D
C1410  O1487   1.398   .     S
C1411  O1488   1.223   .     D
C1411  O1489   1.395   .     S
C1412  O1491   1.395   .     S
C1412  O1490   1.223   .     D
C1413  O1451   1.295   .     A
C1413  O1450   1.297   .     A
C1414  O1453   1.289   .     A
C1414  O1456   1.287   .     A
C1415  O1454   1.286   .     A
C1415  O1455   1.291   .     A
C1416  H1421   1.082   .     S
C1416  N1582   1.367   .     S
Cu1417 O1449   1.991   .     S
Cu1417 O1493   1.966   .     S
Cu1417 Cu1418  2.678   .     S
Cu1417 N1445   2.013   .     S
Cu1417 O1607   1.988   1_455 S
Cu1417 O1631   1.963   1_455 S
Cu1418 O1628   1.966   1_455 S
Cu1418 O1596   1.991   1_455 S
Cu1418 N1446   2.013   .     S
Cu1418 O1482   1.988   .     S
Cu1418 O1494   1.963   .     S
Cu1419 Cu1420  2.678   .     S
Cu1419 N1447   2.013   .     S
Cu1419 O1451   1.988   .     S
Cu1419 O1454   1.966   .     S
Cu1420 N1448   2.013   .     S
Cu1420 O1450   1.991   .     S
Cu1420 O1455   1.963   .     S
H1422  O1461   1.012   .     S
H1423  O1599   1.013   .     S
H1424  O1465   1.013   .     S
H1425  O1467   1.012   .     S
H1426  O1469   1.014   .     S
H1427  O1472   1.013   .     S
H1428  O1474   1.014   .     S
H1430  O1478   1.011   .     S
H1431  O1480   1.012   .     S
H1433  O1483   1.014   .     S
H1434  O1485   1.014   .     S
H1435  O1487   1.012   .     S
H1436  O1489   1.008   .     S
H1437  O1491   1.013   .     S
H1444  O1458   1.013   .     S
N1445  C1500   1.367   1_455 A
N1446  C1552   1.367   1_455 S
O1452  Cu1148  1.988   1_565 S
O1453  Cu1148  1.966   1_565 S
O1456  Cu1147  1.963   1_565 S
O1460  Cu1554  1.991   .     S
O1463  H1559   1.013   1_455 S
O1471  Cu1553  1.988   .     S
O1476  H1157   1.013   1_565 S
O1492  Cu1554  1.966   .     S
O1495  Cu1553  1.963   .     S
O1496  Cu1147  1.991   1_565 S
C1497  O1618   1.296   .     A
C1497  O1585   1.294   .     A
C1497  C1526   1.470   .     S
C1498  H1568   1.079   .     S
C1498  C411    1.415   1_556 S
C1498  N1581   1.366   .     S
C1499  N1582   1.366   .     A
C1499  H1574   1.080   .     S
C1500  H1575   1.081   .     S
C1500  N1445   1.367   1_655 A
C1500  C464    1.417   1_556 S
C1501  N1312   1.366   1_565 A
C1501  H1576   1.081   .     S
C1502  H1577   1.081   .     S
C1502  C415    1.416   1_556 S
C1502  N1583   1.366   .     S
C1503  H1578   1.081   .     S
C1503  N1584   1.367   .     S
C1504  H1579   1.080   .     S
C1504  N1311   1.367   1_565 A
C1504  C413    1.415   1_556 S
C1505  C1532   1.481   .     S
C1505  C1516   1.400   .     A
C1505  C1524   1.410   .     A
C1506  C1523   1.412   .     A
C1506  C1533   1.482   .     S
C1506  C1517   1.402   .     A
C1507  C1514   1.401   .     A
C1507  C1534   1.487   .     S
C1507  C1523   1.412   .     A
C1508  C1525   1.479   .     S
C1508  O1596   1.290   .     A
C1508  O1607   1.304   .     A
C1509  C1524   1.411   .     A
C1509  C1515   1.403   .     A
C1509  C1535   1.491   .     S
C1510  C1526   1.417   .     A
C1510  C1521   1.394   .     A
C1510  C1536   1.488   .     S
C1511  C1525   1.425   .     A
C1511  C1537   1.486   .     S
C1511  C1522   1.403   .     A
C1512  C1525   1.413   .     A
C1512  C1538   1.486   .     S
C1512  C1518   1.400   .     A
C1513  C1526   1.417   .     A
C1513  C1520   1.398   .     A
C1513  C1539   1.488   .     S
C1514  C1540   1.484   .     S
C1514  C1528   1.409   .     A
C1515  C1527   1.411   .     A
C1515  C1542   1.480   .     S
C1516  C1543   1.486   .     S
C1516  C1527   1.408   .     A
C1517  C1528   1.412   .     A
C1517  C1544   1.490   .     S
C1518  C1531   1.419   .     A
C1518  C1545   1.484   .     S
C1519  C1524   1.451   .     S
C1519  O1631   1.290   .     A
C1519  O1628   1.287   .     A
C1520  C1546   1.482   .     S
C1520  C1529   1.419   .     A
C1521  C1547   1.479   .     S
C1521  C1529   1.419   .     A
C1522  C1548   1.487   .     S
C1522  C1531   1.410   .     A
C1523  C1530   1.453   .     S
C1527  C1551   1.453   .     S
C1528  C1550   1.450   .     S
C1529  C1549   1.477   .     S
C1530  O1630   1.289   .     A
C1530  O1629   1.289   .     A
C1531  C1541   1.479   .     S
C1532  O1593   1.222   .     D
C1532  O1594   1.398   .     S
C1533  O1595   1.222   .     D
C1533  O1597   1.397   .     S
C1534  O1599   1.396   .     S
C1534  O1598   1.223   .     D
C1535  O1600   1.223   .     D
C1535  O1601   1.397   .     S
C1536  O1603   1.396   .     S
C1536  O1602   1.222   .     D
C1537  O1604   1.223   .     D
C1537  O1605   1.397   .     S
C1538  O1608   1.397   .     S
C1538  O1606   1.223   .     D
C1539  O1610   1.398   .     S
C1539  O1609   1.222   .     D
C1540  O1611   1.223   .     D
C1540  O1612   1.397   .     S
C1541  O1588   1.304   .     A
C1541  O1632   1.289   .     A
C1542  O1614   1.397   .     S
C1542  O1613   1.222   .     D
C1543  O1615   1.223   .     D
C1543  O1616   1.396   .     S
C1544  O1619   1.397   .     S
C1544  O1617   1.222   .     D
C1545  O1620   1.221   .     D
C1545  O1621   1.396   .     S
C1546  O1622   1.222   .     D
C1546  O1623   1.398   .     S
C1547  O1624   1.223   .     D
C1547  O1625   1.395   .     S
C1548  O1627   1.395   .     S
C1548  O1626   1.223   .     D
C1549  O1587   1.295   .     A
C1549  O1586   1.297   .     A
C1550  O1589   1.289   .     A
C1550  O1592   1.287   .     A
C1551  O1590   1.286   .     A
C1551  O1591   1.291   .     A
C1552  H1557   1.082   .     S
C1552  N1446   1.367   1_655 S
Cu1553 O1585   1.991   .     S
Cu1553 O1629   1.966   .     S
Cu1553 Cu1554  2.678   .     S
Cu1553 N1581   2.013   .     S
Cu1554 N1582   2.013   .     S
Cu1554 O1618   1.988   .     S
Cu1554 O1630   1.963   .     S
Cu1555 Cu1556  2.678   .     S
Cu1555 N1583   2.013   .     S
Cu1555 O1587   1.988   .     S
Cu1555 O1590   1.966   .     S
Cu1556 N1584   2.013   .     S
Cu1556 O1586   1.991   .     S
Cu1556 O1591   1.963   .     S
H1558  O1597   1.012   .     S
H1559  O1463   1.013   1_655 S
H1560  O1601   1.013   .     S
H1561  O1603   1.012   .     S
H1562  O1605   1.014   .     S
H1563  O1608   1.013   .     S
H1564  O1610   1.014   .     S
H1566  O1614   1.011   .     S
H1567  O1616   1.012   .     S
H1569  O1619   1.014   .     S
H1570  O1621   1.014   .     S
H1571  O1623   1.012   .     S
H1572  O1625   1.008   .     S
H1573  O1627   1.013   .     S
H1580  O1594   1.013   .     S
O1588  Cu1284  1.988   1_565 S
O1589  Cu1284  1.966   1_565 S
O1592  Cu1283  1.963   1_565 S
O1596  Cu1418  1.991   1_655 S
O1607  Cu1417  1.988   1_655 S
O1612  H1293   1.013   1_565 S
O1628  Cu1418  1.966   1_655 S
O1631  Cu1417  1.963   1_655 S
O1632  Cu1283  1.991   1_565 S
