data_str_m2_o1_o16_pcu_sym.42
_audit_creation_date              2020-01-03
_audit_creation_method            'Materials Studio'
_symmetry_space_group_name_H-M    'P1'
_symmetry_Int_Tables_number       1
_symmetry_cell_setting            triclinic
loop_
_symmetry_equiv_pos_as_xyz
  x,y,z
_cell_length_a                    28.5810
_cell_length_b                    32.4680
_cell_length_c                    26.7934
_cell_angle_alpha                 90.2194
_cell_angle_beta                  72.4506
_cell_angle_gamma                 89.7470
loop_
_atom_site_label
_atom_site_type_symbol
_atom_site_fract_x
_atom_site_fract_y
_atom_site_fract_z
_atom_site_U_iso_or_equiv
_atom_site_adp_type
_atom_site_occupancy
C1     C     0.16670   0.24591   0.24939   0.00000  Uiso   1.00
C2     C     0.12352   0.16852   0.40781   0.00000  Uiso   1.00
C3     C     0.19638   0.31142   0.27310   0.00000  Uiso   1.00
C4     C     0.14025   0.16817   0.35020   0.00000  Uiso   1.00
C5     C     0.19762   0.02092   0.27307   0.00000  Uiso   1.00
C6     C     0.16743   0.04272   0.24926   0.00000  Uiso   1.00
C7     C     0.13833   0.02171   0.22375   0.00000  Uiso   1.00
C8     C     0.13664   0.31217   0.22456   0.00000  Uiso   1.00
C9     C     0.16654   0.29048   0.24874   0.00000  Uiso   1.00
C10    C     0.29921   0.19205   0.28283   0.00000  Uiso   1.00
C11    C     0.01530   0.19182   0.28319   0.00000  Uiso   1.00
C12    C     0.14341   0.17080   0.49028   0.00000  Uiso   1.00
C13    C     0.03413   0.14143   0.21686   0.00000  Uiso   1.00
C14    C     0.31787   0.14140   0.21700   0.00000  Uiso   1.00
C15    C     0.16685   0.08739   0.24987   0.00000  Uiso   1.00
C16    C     0.19292   0.16721   0.14994   0.00000  Uiso   1.00
C17    C     0.25377   0.21370   0.01918   0.00000  Uiso   1.00
C18    C     0.20770   0.17378   0.09341   0.00000  Uiso   1.00
C19    C     0.07847   0.15000   0.43357   0.00000  Uiso   1.00
C20    C     0.06434   0.14449   0.48737   0.00000  Uiso   1.00
C21    C     0.09652   0.15423   0.01553   0.00000  Uiso   1.00
C22    C     0.27500   0.03557   0.27540   0.00000  Uiso   1.00
C23    C     0.15360   0.18322   0.43740   0.00000  Uiso   1.00
C24    C     0.05928   0.29526   0.22437   0.00000  Uiso   1.00
C25    C     0.17094   0.08989   0.06839   0.00000  Uiso   1.00
C26    C     0.17926   0.17783   0.01646   0.00000  Uiso   1.00
C27    C     0.21964   0.20392   0.49286   0.00000  Uiso   1.00
C28    C     0.22467   0.22122   0.44398   0.00000  Uiso   1.00
C29    C     0.19200   0.21136   0.41661   0.00000  Uiso   1.00
C30    C     0.17711   0.15943   0.06492   0.00000  Uiso   1.00
C31    C     0.24704   0.19966   0.06981   0.00000  Uiso   1.00
Cu32   Cu    0.11978   0.16666   0.25000   0.00000  Uiso   1.00
Cu33   Cu    0.21355   0.16667   0.25000   0.00000  Uiso   1.00
F34    F     0.11325   0.04268   0.19614   0.00000  Uiso   1.00
F35    F     0.02881   0.21687   0.31692   0.00000  Uiso   1.00
F36    F     0.06663   0.11598   0.18349   0.00000  Uiso   1.00
F37    F     0.19480   0.23310   0.37267   0.00000  Uiso   1.00
H38    H     0.27125   0.21044   0.09129   0.00000  Uiso   1.00
H39    H     0.29583   0.05725   0.29266   0.00000  Uiso   1.00
H40    H     0.28508   0.04222   0.23270   0.00000  Uiso   1.00
H41    H     0.28660   0.00385   0.28195   0.00000  Uiso   1.00
H42    H     0.05100   0.28929   0.26708   0.00000  Uiso   1.00
H43    H     0.03899   0.27209   0.20857   0.00000  Uiso   1.00
H44    H     0.04525   0.32612   0.21802   0.00000  Uiso   1.00
H45    H     0.20250   0.08636   0.08429   0.00000  Uiso   1.00
H46    H     0.18355   0.08735   0.02490   0.00000  Uiso   1.00
H47    H     0.14542   0.06406   0.08361   0.00000  Uiso   1.00
H48    H     0.27326   0.21263   0.30883   0.00000  Uiso   1.00
H49    H     0.30666   0.12114   0.19061   0.00000  Uiso   1.00
H50    H     0.25385   0.24287   0.42697   0.00000  Uiso   1.00
H51    H     0.28431   0.23393   0.00159   0.00000  Uiso   1.00
H52    H     0.05423   0.13939   0.41203   0.00000  Uiso   1.00
H53    H     0.08273   0.15053   0.05736   0.00000  Uiso   1.00
H54    H     0.02875   0.13157   0.00723   0.00000  Uiso   1.00
H55    H     0.21792   0.29446   0.29328   0.00000  Uiso   1.00
N56    N     0.04931   0.16666   0.24999   0.00000  Uiso   1.00
N57    N     0.28402   0.16669   0.25000   0.00000  Uiso   1.00
O58    O     0.12708   0.22678   0.25001   0.00000  Uiso   1.00
O59    O     0.10981   0.29126   0.19731   0.00000  Uiso   1.00
O60    O     0.14564   0.12724   0.08508   0.00000  Uiso   1.00
O61    O     0.20627   0.22679   0.25001   0.00000  Uiso   1.00
O62    O     0.10775   0.16665   0.32549   0.00000  Uiso   1.00
O63    O     0.18694   0.16666   0.32549   0.00000  Uiso   1.00
O64    O     0.12706   0.10654   0.25000   0.00000  Uiso   1.00
O65    O     0.20625   0.10655   0.25000   0.00000  Uiso   1.00
O66    O     0.14640   0.16667   0.17451   0.00000  Uiso   1.00
O67    O     0.22559   0.16668   0.17451   0.00000  Uiso   1.00
O68    O     0.22441   0.04168   0.30051   0.00000  Uiso   1.00
C69    C     0.50003   0.24591   0.24939   0.00000  Uiso   1.00
C70    C     0.45685   0.16852   0.40781   0.00000  Uiso   1.00
C71    C     0.52972   0.31142   0.27310   0.00000  Uiso   1.00
C72    C     0.47359   0.16817   0.35020   0.00000  Uiso   1.00
C73    C     0.53095   0.02092   0.27307   0.00000  Uiso   1.00
C74    C     0.50076   0.04272   0.24926   0.00000  Uiso   1.00
C75    C     0.47167   0.02171   0.22375   0.00000  Uiso   1.00
C76    C     0.46997   0.31217   0.22456   0.00000  Uiso   1.00
C77    C     0.49988   0.29048   0.24874   0.00000  Uiso   1.00
C78    C     0.63254   0.19205   0.28283   0.00000  Uiso   1.00
C79    C     0.34863   0.19182   0.28319   0.00000  Uiso   1.00
C80    C     0.47674   0.17080   0.49028   0.00000  Uiso   1.00
C81    C     0.36746   0.14143   0.21686   0.00000  Uiso   1.00
C82    C     0.65121   0.14140   0.21700   0.00000  Uiso   1.00
C83    C     0.50018   0.08739   0.24987   0.00000  Uiso   1.00
C84    C     0.52626   0.16721   0.14994   0.00000  Uiso   1.00
C85    C     0.58711   0.21370   0.01918   0.00000  Uiso   1.00
C86    C     0.54103   0.17378   0.09341   0.00000  Uiso   1.00
C87    C     0.41180   0.15000   0.43357   0.00000  Uiso   1.00
C88    C     0.39768   0.14449   0.48737   0.00000  Uiso   1.00
C89    C     0.42985   0.15423   0.01553   0.00000  Uiso   1.00
C90    C     0.60834   0.03557   0.27540   0.00000  Uiso   1.00
C91    C     0.48693   0.18322   0.43740   0.00000  Uiso   1.00
C92    C     0.39261   0.29526   0.22437   0.00000  Uiso   1.00
C93    C     0.50427   0.08989   0.06839   0.00000  Uiso   1.00
C94    C     0.51260   0.17783   0.01646   0.00000  Uiso   1.00
C95    C     0.55297   0.20392   0.49286   0.00000  Uiso   1.00
C96    C     0.55800   0.22122   0.44398   0.00000  Uiso   1.00
C97    C     0.52533   0.21136   0.41661   0.00000  Uiso   1.00
C98    C     0.51044   0.15943   0.06492   0.00000  Uiso   1.00
C99    C     0.58037   0.19966   0.06981   0.00000  Uiso   1.00
Cu100  Cu    0.45311   0.16666   0.25000   0.00000  Uiso   1.00
Cu101  Cu    0.54689   0.16667   0.25000   0.00000  Uiso   1.00
F102   F     0.44658   0.04268   0.19614   0.00000  Uiso   1.00
F103   F     0.36214   0.21687   0.31692   0.00000  Uiso   1.00
F104   F     0.39996   0.11598   0.18349   0.00000  Uiso   1.00
F105   F     0.52813   0.23310   0.37267   0.00000  Uiso   1.00
H106   H     0.60459   0.21044   0.09129   0.00000  Uiso   1.00
H107   H     0.62916   0.05725   0.29266   0.00000  Uiso   1.00
H108   H     0.61842   0.04222   0.23270   0.00000  Uiso   1.00
H109   H     0.61993   0.00385   0.28195   0.00000  Uiso   1.00
H110   H     0.38434   0.28929   0.26708   0.00000  Uiso   1.00
H111   H     0.37233   0.27209   0.20857   0.00000  Uiso   1.00
H112   H     0.37858   0.32612   0.21802   0.00000  Uiso   1.00
H113   H     0.53583   0.08636   0.08429   0.00000  Uiso   1.00
H114   H     0.51688   0.08735   0.02490   0.00000  Uiso   1.00
H115   H     0.47875   0.06406   0.08361   0.00000  Uiso   1.00
H116   H     0.60660   0.21263   0.30883   0.00000  Uiso   1.00
H117   H     0.63999   0.12114   0.19061   0.00000  Uiso   1.00
H118   H     0.58718   0.24287   0.42697   0.00000  Uiso   1.00
H119   H     0.61765   0.23393   0.00159   0.00000  Uiso   1.00
H120   H     0.38757   0.13939   0.41203   0.00000  Uiso   1.00
H121   H     0.41606   0.15053   0.05736   0.00000  Uiso   1.00
H122   H     0.36209   0.13157   0.00723   0.00000  Uiso   1.00
H123   H     0.55125   0.29446   0.29328   0.00000  Uiso   1.00
N124   N     0.38265   0.16666   0.24999   0.00000  Uiso   1.00
N125   N     0.61735   0.16669   0.25000   0.00000  Uiso   1.00
O126   O     0.46042   0.22678   0.25001   0.00000  Uiso   1.00
O127   O     0.44314   0.29126   0.19731   0.00000  Uiso   1.00
O128   O     0.47897   0.12724   0.08508   0.00000  Uiso   1.00
O129   O     0.53961   0.22679   0.25001   0.00000  Uiso   1.00
O130   O     0.44108   0.16665   0.32549   0.00000  Uiso   1.00
O131   O     0.52027   0.16666   0.32549   0.00000  Uiso   1.00
O132   O     0.46039   0.10654   0.25000   0.00000  Uiso   1.00
O133   O     0.53958   0.10655   0.25000   0.00000  Uiso   1.00
O134   O     0.47973   0.16667   0.17451   0.00000  Uiso   1.00
O135   O     0.55892   0.16668   0.17451   0.00000  Uiso   1.00
O136   O     0.55774   0.04168   0.30051   0.00000  Uiso   1.00
C137   C     0.83336   0.24591   0.24939   0.00000  Uiso   1.00
C138   C     0.79019   0.16852   0.40781   0.00000  Uiso   1.00
C139   C     0.86305   0.31142   0.27310   0.00000  Uiso   1.00
C140   C     0.80692   0.16817   0.35020   0.00000  Uiso   1.00
C141   C     0.86428   0.02092   0.27307   0.00000  Uiso   1.00
C142   C     0.83410   0.04272   0.24926   0.00000  Uiso   1.00
C143   C     0.80500   0.02171   0.22375   0.00000  Uiso   1.00
C144   C     0.80330   0.31217   0.22456   0.00000  Uiso   1.00
C145   C     0.83321   0.29048   0.24874   0.00000  Uiso   1.00
C146   C     0.96587   0.19205   0.28283   0.00000  Uiso   1.00
C147   C     0.68196   0.19182   0.28319   0.00000  Uiso   1.00
C148   C     0.81008   0.17080   0.49028   0.00000  Uiso   1.00
C149   C     0.70079   0.14143   0.21686   0.00000  Uiso   1.00
C150   C     0.98454   0.14140   0.21700   0.00000  Uiso   1.00
C151   C     0.83352   0.08739   0.24987   0.00000  Uiso   1.00
C152   C     0.85959   0.16721   0.14994   0.00000  Uiso   1.00
C153   C     0.92044   0.21370   0.01918   0.00000  Uiso   1.00
C154   C     0.87437   0.17378   0.09341   0.00000  Uiso   1.00
C155   C     0.74514   0.15000   0.43357   0.00000  Uiso   1.00
C156   C     0.73101   0.14449   0.48737   0.00000  Uiso   1.00
C157   C     0.76319   0.15423   0.01553   0.00000  Uiso   1.00
C158   C     0.94167   0.03557   0.27540   0.00000  Uiso   1.00
C159   C     0.82027   0.18322   0.43740   0.00000  Uiso   1.00
C160   C     0.72594   0.29526   0.22437   0.00000  Uiso   1.00
C161   C     0.83760   0.08989   0.06839   0.00000  Uiso   1.00
C162   C     0.84593   0.17783   0.01646   0.00000  Uiso   1.00
C163   C     0.88631   0.20392   0.49286   0.00000  Uiso   1.00
C164   C     0.89134   0.22122   0.44398   0.00000  Uiso   1.00
C165   C     0.85866   0.21136   0.41661   0.00000  Uiso   1.00
C166   C     0.84378   0.15943   0.06492   0.00000  Uiso   1.00
C167   C     0.91371   0.19966   0.06981   0.00000  Uiso   1.00
Cu168  Cu    0.78645   0.16666   0.25000   0.00000  Uiso   1.00
Cu169  Cu    0.88022   0.16667   0.25000   0.00000  Uiso   1.00
F170   F     0.77992   0.04268   0.19614   0.00000  Uiso   1.00
F171   F     0.69548   0.21687   0.31692   0.00000  Uiso   1.00
F172   F     0.73330   0.11598   0.18349   0.00000  Uiso   1.00
F173   F     0.86146   0.23310   0.37267   0.00000  Uiso   1.00
H174   H     0.93792   0.21044   0.09129   0.00000  Uiso   1.00
H175   H     0.96250   0.05725   0.29266   0.00000  Uiso   1.00
H176   H     0.95175   0.04222   0.23270   0.00000  Uiso   1.00
H177   H     0.95327   0.00385   0.28195   0.00000  Uiso   1.00
H178   H     0.71767   0.28929   0.26708   0.00000  Uiso   1.00
H179   H     0.70566   0.27209   0.20857   0.00000  Uiso   1.00
H180   H     0.71191   0.32612   0.21802   0.00000  Uiso   1.00
H181   H     0.86916   0.08636   0.08429   0.00000  Uiso   1.00
H182   H     0.85022   0.08735   0.02490   0.00000  Uiso   1.00
H183   H     0.81209   0.06406   0.08361   0.00000  Uiso   1.00
H184   H     0.93993   0.21263   0.30883   0.00000  Uiso   1.00
H185   H     0.97333   0.12114   0.19061   0.00000  Uiso   1.00
H186   H     0.92051   0.24287   0.42697   0.00000  Uiso   1.00
H187   H     0.95098   0.23393   0.00159   0.00000  Uiso   1.00
H188   H     0.72090   0.13939   0.41203   0.00000  Uiso   1.00
H189   H     0.74940   0.15053   0.05736   0.00000  Uiso   1.00
H190   H     0.69542   0.13157   0.00723   0.00000  Uiso   1.00
H191   H     0.88458   0.29446   0.29328   0.00000  Uiso   1.00
N192   N     0.71598   0.16666   0.24999   0.00000  Uiso   1.00
N193   N     0.95069   0.16669   0.25000   0.00000  Uiso   1.00
O194   O     0.79375   0.22678   0.25001   0.00000  Uiso   1.00
O195   O     0.77648   0.29126   0.19731   0.00000  Uiso   1.00
O196   O     0.81230   0.12724   0.08508   0.00000  Uiso   1.00
O197   O     0.87294   0.22679   0.25001   0.00000  Uiso   1.00
O198   O     0.77441   0.16665   0.32549   0.00000  Uiso   1.00
O199   O     0.85360   0.16666   0.32549   0.00000  Uiso   1.00
O200   O     0.79373   0.10654   0.25000   0.00000  Uiso   1.00
O201   O     0.87292   0.10655   0.25000   0.00000  Uiso   1.00
O202   O     0.81306   0.16667   0.17451   0.00000  Uiso   1.00
O203   O     0.89225   0.16668   0.17451   0.00000  Uiso   1.00
O204   O     0.89107   0.04168   0.30051   0.00000  Uiso   1.00
C205   C     0.16670   0.57924   0.24939   0.00000  Uiso   1.00
C206   C     0.12352   0.50186   0.40781   0.00000  Uiso   1.00
C207   C     0.19638   0.64475   0.27310   0.00000  Uiso   1.00
C208   C     0.14025   0.50150   0.35020   0.00000  Uiso   1.00
C209   C     0.19762   0.35426   0.27307   0.00000  Uiso   1.00
C210   C     0.16743   0.37605   0.24926   0.00000  Uiso   1.00
C211   C     0.13833   0.35504   0.22375   0.00000  Uiso   1.00
C212   C     0.13664   0.64551   0.22456   0.00000  Uiso   1.00
C213   C     0.16654   0.62382   0.24874   0.00000  Uiso   1.00
C214   C     0.29921   0.52538   0.28283   0.00000  Uiso   1.00
C215   C     0.01530   0.52515   0.28319   0.00000  Uiso   1.00
C216   C     0.14341   0.50414   0.49028   0.00000  Uiso   1.00
C217   C     0.03413   0.47476   0.21686   0.00000  Uiso   1.00
C218   C     0.31787   0.47474   0.21700   0.00000  Uiso   1.00
C219   C     0.16685   0.42072   0.24987   0.00000  Uiso   1.00
C220   C     0.19292   0.50055   0.14994   0.00000  Uiso   1.00
C221   C     0.25377   0.54703   0.01918   0.00000  Uiso   1.00
C222   C     0.20770   0.50711   0.09341   0.00000  Uiso   1.00
C223   C     0.07847   0.48334   0.43357   0.00000  Uiso   1.00
C224   C     0.06434   0.47782   0.48737   0.00000  Uiso   1.00
C225   C     0.09652   0.48756   0.01553   0.00000  Uiso   1.00
C226   C     0.27500   0.36890   0.27540   0.00000  Uiso   1.00
C227   C     0.15360   0.51656   0.43740   0.00000  Uiso   1.00
C228   C     0.05928   0.62859   0.22437   0.00000  Uiso   1.00
C229   C     0.17094   0.42323   0.06839   0.00000  Uiso   1.00
C230   C     0.17926   0.51116   0.01646   0.00000  Uiso   1.00
C231   C     0.21964   0.53725   0.49286   0.00000  Uiso   1.00
C232   C     0.22467   0.55455   0.44398   0.00000  Uiso   1.00
C233   C     0.19200   0.54469   0.41661   0.00000  Uiso   1.00
C234   C     0.17711   0.49276   0.06492   0.00000  Uiso   1.00
C235   C     0.24704   0.53299   0.06981   0.00000  Uiso   1.00
Cu236  Cu    0.11978   0.49999   0.25000   0.00000  Uiso   1.00
Cu237  Cu    0.21355   0.50001   0.25000   0.00000  Uiso   1.00
F238   F     0.11325   0.37601   0.19614   0.00000  Uiso   1.00
F239   F     0.02881   0.55021   0.31692   0.00000  Uiso   1.00
F240   F     0.06663   0.44931   0.18349   0.00000  Uiso   1.00
F241   F     0.19480   0.56644   0.37267   0.00000  Uiso   1.00
H242   H     0.27125   0.54378   0.09129   0.00000  Uiso   1.00
H243   H     0.29583   0.39058   0.29266   0.00000  Uiso   1.00
H244   H     0.28508   0.37555   0.23270   0.00000  Uiso   1.00
H245   H     0.28660   0.33718   0.28195   0.00000  Uiso   1.00
H246   H     0.05100   0.62263   0.26708   0.00000  Uiso   1.00
H247   H     0.03899   0.60542   0.20857   0.00000  Uiso   1.00
H248   H     0.04525   0.65945   0.21802   0.00000  Uiso   1.00
H249   H     0.20250   0.41970   0.08429   0.00000  Uiso   1.00
H250   H     0.18355   0.42069   0.02490   0.00000  Uiso   1.00
H251   H     0.14542   0.39739   0.08361   0.00000  Uiso   1.00
H252   H     0.27326   0.54596   0.30883   0.00000  Uiso   1.00
H253   H     0.30666   0.45448   0.19061   0.00000  Uiso   1.00
H254   H     0.25385   0.57620   0.42697   0.00000  Uiso   1.00
H255   H     0.28431   0.56727   0.00159   0.00000  Uiso   1.00
H256   H     0.05423   0.47273   0.41203   0.00000  Uiso   1.00
H257   H     0.08273   0.48387   0.05736   0.00000  Uiso   1.00
H258   H     0.02875   0.46491   0.00723   0.00000  Uiso   1.00
H259   H     0.21792   0.62780   0.29328   0.00000  Uiso   1.00
N260   N     0.04931   0.49999   0.24999   0.00000  Uiso   1.00
N261   N     0.28402   0.50002   0.25000   0.00000  Uiso   1.00
O262   O     0.12708   0.56011   0.25001   0.00000  Uiso   1.00
O263   O     0.10981   0.62460   0.19731   0.00000  Uiso   1.00
O264   O     0.14564   0.46058   0.08508   0.00000  Uiso   1.00
O265   O     0.20627   0.56012   0.25001   0.00000  Uiso   1.00
O266   O     0.10775   0.49998   0.32549   0.00000  Uiso   1.00
O267   O     0.18694   0.49999   0.32549   0.00000  Uiso   1.00
O268   O     0.12706   0.43988   0.25000   0.00000  Uiso   1.00
O269   O     0.20625   0.43989   0.25000   0.00000  Uiso   1.00
O270   O     0.14640   0.50001   0.17451   0.00000  Uiso   1.00
O271   O     0.22559   0.50002   0.17451   0.00000  Uiso   1.00
O272   O     0.22441   0.37501   0.30051   0.00000  Uiso   1.00
C273   C     0.50003   0.57924   0.24939   0.00000  Uiso   1.00
C274   C     0.45685   0.50186   0.40781   0.00000  Uiso   1.00
C275   C     0.52972   0.64475   0.27310   0.00000  Uiso   1.00
C276   C     0.47359   0.50150   0.35020   0.00000  Uiso   1.00
C277   C     0.53095   0.35426   0.27307   0.00000  Uiso   1.00
C278   C     0.50076   0.37605   0.24926   0.00000  Uiso   1.00
C279   C     0.47167   0.35504   0.22375   0.00000  Uiso   1.00
C280   C     0.46997   0.64551   0.22456   0.00000  Uiso   1.00
C281   C     0.49988   0.62382   0.24874   0.00000  Uiso   1.00
C282   C     0.63254   0.52538   0.28283   0.00000  Uiso   1.00
C283   C     0.34863   0.52515   0.28319   0.00000  Uiso   1.00
C284   C     0.47674   0.50414   0.49028   0.00000  Uiso   1.00
C285   C     0.36746   0.47476   0.21686   0.00000  Uiso   1.00
C286   C     0.65121   0.47474   0.21700   0.00000  Uiso   1.00
C287   C     0.50018   0.42072   0.24987   0.00000  Uiso   1.00
C288   C     0.52626   0.50055   0.14994   0.00000  Uiso   1.00
C289   C     0.58711   0.54703   0.01918   0.00000  Uiso   1.00
C290   C     0.54103   0.50711   0.09341   0.00000  Uiso   1.00
C291   C     0.41180   0.48334   0.43357   0.00000  Uiso   1.00
C292   C     0.39768   0.47782   0.48737   0.00000  Uiso   1.00
C293   C     0.42985   0.48756   0.01553   0.00000  Uiso   1.00
C294   C     0.60834   0.36890   0.27540   0.00000  Uiso   1.00
C295   C     0.48693   0.51656   0.43740   0.00000  Uiso   1.00
C296   C     0.39261   0.62859   0.22437   0.00000  Uiso   1.00
C297   C     0.50427   0.42323   0.06839   0.00000  Uiso   1.00
C298   C     0.51260   0.51116   0.01646   0.00000  Uiso   1.00
C299   C     0.55297   0.53725   0.49286   0.00000  Uiso   1.00
C300   C     0.55800   0.55455   0.44398   0.00000  Uiso   1.00
C301   C     0.52533   0.54469   0.41661   0.00000  Uiso   1.00
C302   C     0.51044   0.49276   0.06492   0.00000  Uiso   1.00
C303   C     0.58037   0.53299   0.06981   0.00000  Uiso   1.00
Cu304  Cu    0.45311   0.49999   0.25000   0.00000  Uiso   1.00
Cu305  Cu    0.54689   0.50001   0.25000   0.00000  Uiso   1.00
F306   F     0.44658   0.37601   0.19614   0.00000  Uiso   1.00
F307   F     0.36214   0.55021   0.31692   0.00000  Uiso   1.00
F308   F     0.39996   0.44931   0.18349   0.00000  Uiso   1.00
F309   F     0.52813   0.56644   0.37267   0.00000  Uiso   1.00
H310   H     0.60459   0.54378   0.09129   0.00000  Uiso   1.00
H311   H     0.62916   0.39058   0.29266   0.00000  Uiso   1.00
H312   H     0.61842   0.37555   0.23270   0.00000  Uiso   1.00
H313   H     0.61993   0.33718   0.28195   0.00000  Uiso   1.00
H314   H     0.38434   0.62263   0.26708   0.00000  Uiso   1.00
H315   H     0.37233   0.60542   0.20857   0.00000  Uiso   1.00
H316   H     0.37858   0.65945   0.21802   0.00000  Uiso   1.00
H317   H     0.53583   0.41970   0.08429   0.00000  Uiso   1.00
H318   H     0.51688   0.42069   0.02490   0.00000  Uiso   1.00
H319   H     0.47875   0.39739   0.08361   0.00000  Uiso   1.00
H320   H     0.60660   0.54596   0.30883   0.00000  Uiso   1.00
H321   H     0.63999   0.45448   0.19061   0.00000  Uiso   1.00
H322   H     0.58718   0.57620   0.42697   0.00000  Uiso   1.00
H323   H     0.61765   0.56727   0.00159   0.00000  Uiso   1.00
H324   H     0.38757   0.47273   0.41203   0.00000  Uiso   1.00
H325   H     0.41606   0.48387   0.05736   0.00000  Uiso   1.00
H326   H     0.36209   0.46491   0.00723   0.00000  Uiso   1.00
H327   H     0.55125   0.62780   0.29328   0.00000  Uiso   1.00
N328   N     0.38265   0.49999   0.24999   0.00000  Uiso   1.00
N329   N     0.61735   0.50002   0.25000   0.00000  Uiso   1.00
O330   O     0.46042   0.56011   0.25001   0.00000  Uiso   1.00
O331   O     0.44314   0.62460   0.19731   0.00000  Uiso   1.00
O332   O     0.47897   0.46058   0.08508   0.00000  Uiso   1.00
O333   O     0.53961   0.56012   0.25001   0.00000  Uiso   1.00
O334   O     0.44108   0.49998   0.32549   0.00000  Uiso   1.00
O335   O     0.52027   0.49999   0.32549   0.00000  Uiso   1.00
O336   O     0.46039   0.43988   0.25000   0.00000  Uiso   1.00
O337   O     0.53958   0.43989   0.25000   0.00000  Uiso   1.00
O338   O     0.47973   0.50001   0.17451   0.00000  Uiso   1.00
O339   O     0.55892   0.50002   0.17451   0.00000  Uiso   1.00
O340   O     0.55774   0.37501   0.30051   0.00000  Uiso   1.00
C341   C     0.83336   0.57924   0.24939   0.00000  Uiso   1.00
C342   C     0.79019   0.50186   0.40781   0.00000  Uiso   1.00
C343   C     0.86305   0.64475   0.27310   0.00000  Uiso   1.00
C344   C     0.80692   0.50150   0.35020   0.00000  Uiso   1.00
C345   C     0.86428   0.35426   0.27307   0.00000  Uiso   1.00
C346   C     0.83410   0.37605   0.24926   0.00000  Uiso   1.00
C347   C     0.80500   0.35504   0.22375   0.00000  Uiso   1.00
C348   C     0.80330   0.64551   0.22456   0.00000  Uiso   1.00
C349   C     0.83321   0.62382   0.24874   0.00000  Uiso   1.00
C350   C     0.96587   0.52538   0.28283   0.00000  Uiso   1.00
C351   C     0.68196   0.52515   0.28319   0.00000  Uiso   1.00
C352   C     0.81008   0.50414   0.49028   0.00000  Uiso   1.00
C353   C     0.70079   0.47476   0.21686   0.00000  Uiso   1.00
C354   C     0.98454   0.47474   0.21700   0.00000  Uiso   1.00
C355   C     0.83352   0.42072   0.24987   0.00000  Uiso   1.00
C356   C     0.85959   0.50055   0.14994   0.00000  Uiso   1.00
C357   C     0.92044   0.54703   0.01918   0.00000  Uiso   1.00
C358   C     0.87437   0.50711   0.09341   0.00000  Uiso   1.00
C359   C     0.74514   0.48334   0.43357   0.00000  Uiso   1.00
C360   C     0.73101   0.47782   0.48737   0.00000  Uiso   1.00
C361   C     0.76319   0.48756   0.01553   0.00000  Uiso   1.00
C362   C     0.94167   0.36890   0.27540   0.00000  Uiso   1.00
C363   C     0.82027   0.51656   0.43740   0.00000  Uiso   1.00
C364   C     0.72594   0.62859   0.22437   0.00000  Uiso   1.00
C365   C     0.83760   0.42323   0.06839   0.00000  Uiso   1.00
C366   C     0.84593   0.51116   0.01646   0.00000  Uiso   1.00
C367   C     0.88631   0.53725   0.49286   0.00000  Uiso   1.00
C368   C     0.89134   0.55455   0.44398   0.00000  Uiso   1.00
C369   C     0.85866   0.54469   0.41661   0.00000  Uiso   1.00
C370   C     0.84378   0.49276   0.06492   0.00000  Uiso   1.00
C371   C     0.91371   0.53299   0.06981   0.00000  Uiso   1.00
Cu372  Cu    0.78645   0.49999   0.25000   0.00000  Uiso   1.00
Cu373  Cu    0.88022   0.50001   0.25000   0.00000  Uiso   1.00
F374   F     0.77992   0.37601   0.19614   0.00000  Uiso   1.00
F375   F     0.69548   0.55021   0.31692   0.00000  Uiso   1.00
F376   F     0.73330   0.44931   0.18349   0.00000  Uiso   1.00
F377   F     0.86146   0.56644   0.37267   0.00000  Uiso   1.00
H378   H     0.93792   0.54378   0.09129   0.00000  Uiso   1.00
H379   H     0.96250   0.39058   0.29266   0.00000  Uiso   1.00
H380   H     0.95175   0.37555   0.23270   0.00000  Uiso   1.00
H381   H     0.95327   0.33718   0.28195   0.00000  Uiso   1.00
H382   H     0.71767   0.62263   0.26708   0.00000  Uiso   1.00
H383   H     0.70566   0.60542   0.20857   0.00000  Uiso   1.00
H384   H     0.71191   0.65945   0.21802   0.00000  Uiso   1.00
H385   H     0.86916   0.41970   0.08429   0.00000  Uiso   1.00
H386   H     0.85022   0.42069   0.02490   0.00000  Uiso   1.00
H387   H     0.81209   0.39739   0.08361   0.00000  Uiso   1.00
H388   H     0.93993   0.54596   0.30883   0.00000  Uiso   1.00
H389   H     0.97333   0.45448   0.19061   0.00000  Uiso   1.00
H390   H     0.92051   0.57620   0.42697   0.00000  Uiso   1.00
H391   H     0.95098   0.56727   0.00159   0.00000  Uiso   1.00
H392   H     0.72090   0.47273   0.41203   0.00000  Uiso   1.00
H393   H     0.74940   0.48387   0.05736   0.00000  Uiso   1.00
H394   H     0.69542   0.46491   0.00723   0.00000  Uiso   1.00
H395   H     0.88458   0.62780   0.29328   0.00000  Uiso   1.00
N396   N     0.71598   0.49999   0.24999   0.00000  Uiso   1.00
N397   N     0.95069   0.50002   0.25000   0.00000  Uiso   1.00
O398   O     0.79375   0.56011   0.25001   0.00000  Uiso   1.00
O399   O     0.77648   0.62460   0.19731   0.00000  Uiso   1.00
O400   O     0.81230   0.46058   0.08508   0.00000  Uiso   1.00
O401   O     0.87294   0.56012   0.25001   0.00000  Uiso   1.00
O402   O     0.77441   0.49998   0.32549   0.00000  Uiso   1.00
O403   O     0.85360   0.49999   0.32549   0.00000  Uiso   1.00
O404   O     0.79373   0.43988   0.25000   0.00000  Uiso   1.00
O405   O     0.87292   0.43989   0.25000   0.00000  Uiso   1.00
O406   O     0.81306   0.50001   0.17451   0.00000  Uiso   1.00
O407   O     0.89225   0.50002   0.17451   0.00000  Uiso   1.00
O408   O     0.89107   0.37501   0.30051   0.00000  Uiso   1.00
C409   C     0.16670   0.91257   0.24939   0.00000  Uiso   1.00
C410   C     0.12352   0.83519   0.40781   0.00000  Uiso   1.00
C411   C     0.19638   0.97808   0.27310   0.00000  Uiso   1.00
C412   C     0.14025   0.83484   0.35020   0.00000  Uiso   1.00
C413   C     0.19762   0.68759   0.27307   0.00000  Uiso   1.00
C414   C     0.16743   0.70939   0.24926   0.00000  Uiso   1.00
C415   C     0.13833   0.68837   0.22375   0.00000  Uiso   1.00
C416   C     0.13664   0.97884   0.22456   0.00000  Uiso   1.00
C417   C     0.16654   0.95715   0.24874   0.00000  Uiso   1.00
C418   C     0.29921   0.85871   0.28283   0.00000  Uiso   1.00
C419   C     0.01530   0.85849   0.28319   0.00000  Uiso   1.00
C420   C     0.14341   0.83747   0.49028   0.00000  Uiso   1.00
C421   C     0.03413   0.80810   0.21686   0.00000  Uiso   1.00
C422   C     0.31787   0.80807   0.21700   0.00000  Uiso   1.00
C423   C     0.16685   0.75406   0.24987   0.00000  Uiso   1.00
C424   C     0.19292   0.83388   0.14994   0.00000  Uiso   1.00
C425   C     0.25377   0.88037   0.01918   0.00000  Uiso   1.00
C426   C     0.20770   0.84045   0.09341   0.00000  Uiso   1.00
C427   C     0.07847   0.81667   0.43357   0.00000  Uiso   1.00
C428   C     0.06434   0.81115   0.48737   0.00000  Uiso   1.00
C429   C     0.09652   0.82090   0.01553   0.00000  Uiso   1.00
C430   C     0.27500   0.70223   0.27540   0.00000  Uiso   1.00
C431   C     0.15360   0.84989   0.43740   0.00000  Uiso   1.00
C432   C     0.05928   0.96193   0.22437   0.00000  Uiso   1.00
C433   C     0.17094   0.75656   0.06839   0.00000  Uiso   1.00
C434   C     0.17926   0.84450   0.01646   0.00000  Uiso   1.00
C435   C     0.21964   0.87059   0.49286   0.00000  Uiso   1.00
C436   C     0.22467   0.88788   0.44398   0.00000  Uiso   1.00
C437   C     0.19200   0.87802   0.41661   0.00000  Uiso   1.00
C438   C     0.17711   0.82609   0.06492   0.00000  Uiso   1.00
C439   C     0.24704   0.86633   0.06981   0.00000  Uiso   1.00
Cu440  Cu    0.11978   0.83333   0.25000   0.00000  Uiso   1.00
Cu441  Cu    0.21355   0.83334   0.25000   0.00000  Uiso   1.00
F442   F     0.11325   0.70934   0.19614   0.00000  Uiso   1.00
F443   F     0.02881   0.88354   0.31692   0.00000  Uiso   1.00
F444   F     0.06663   0.78265   0.18349   0.00000  Uiso   1.00
F445   F     0.19480   0.89977   0.37267   0.00000  Uiso   1.00
H446   H     0.27125   0.87711   0.09129   0.00000  Uiso   1.00
H447   H     0.29583   0.72391   0.29266   0.00000  Uiso   1.00
H448   H     0.28508   0.70889   0.23270   0.00000  Uiso   1.00
H449   H     0.28660   0.67052   0.28195   0.00000  Uiso   1.00
H450   H     0.05100   0.95596   0.26708   0.00000  Uiso   1.00
H451   H     0.03899   0.93875   0.20857   0.00000  Uiso   1.00
H452   H     0.04525   0.99278   0.21802   0.00000  Uiso   1.00
H453   H     0.20250   0.75303   0.08429   0.00000  Uiso   1.00
H454   H     0.18355   0.75402   0.02490   0.00000  Uiso   1.00
H455   H     0.14542   0.73073   0.08361   0.00000  Uiso   1.00
H456   H     0.27326   0.87929   0.30883   0.00000  Uiso   1.00
H457   H     0.30666   0.78781   0.19061   0.00000  Uiso   1.00
H458   H     0.25385   0.90953   0.42697   0.00000  Uiso   1.00
H459   H     0.28431   0.90060   0.00159   0.00000  Uiso   1.00
H460   H     0.05423   0.80606   0.41203   0.00000  Uiso   1.00
H461   H     0.08273   0.81720   0.05736   0.00000  Uiso   1.00
H462   H     0.02875   0.79824   0.00723   0.00000  Uiso   1.00
H463   H     0.21792   0.96113   0.29328   0.00000  Uiso   1.00
N464   N     0.04931   0.83332   0.24999   0.00000  Uiso   1.00
N465   N     0.28402   0.83335   0.25000   0.00000  Uiso   1.00
O466   O     0.12708   0.89345   0.25001   0.00000  Uiso   1.00
O467   O     0.10981   0.95793   0.19731   0.00000  Uiso   1.00
O468   O     0.14564   0.79391   0.08508   0.00000  Uiso   1.00
O469   O     0.20627   0.89346   0.25001   0.00000  Uiso   1.00
O470   O     0.10775   0.83332   0.32549   0.00000  Uiso   1.00
O471   O     0.18694   0.83333   0.32549   0.00000  Uiso   1.00
O472   O     0.12706   0.77321   0.25000   0.00000  Uiso   1.00
O473   O     0.20625   0.77322   0.25000   0.00000  Uiso   1.00
O474   O     0.14640   0.83334   0.17451   0.00000  Uiso   1.00
O475   O     0.22559   0.83335   0.17451   0.00000  Uiso   1.00
O476   O     0.22441   0.70834   0.30051   0.00000  Uiso   1.00
C477   C     0.50003   0.91257   0.24939   0.00000  Uiso   1.00
C478   C     0.45685   0.83519   0.40781   0.00000  Uiso   1.00
C479   C     0.52972   0.97808   0.27310   0.00000  Uiso   1.00
C480   C     0.47359   0.83484   0.35020   0.00000  Uiso   1.00
C481   C     0.53095   0.68759   0.27307   0.00000  Uiso   1.00
C482   C     0.50076   0.70939   0.24926   0.00000  Uiso   1.00
C483   C     0.47167   0.68837   0.22375   0.00000  Uiso   1.00
C484   C     0.46997   0.97884   0.22456   0.00000  Uiso   1.00
C485   C     0.49988   0.95715   0.24874   0.00000  Uiso   1.00
C486   C     0.63254   0.85871   0.28283   0.00000  Uiso   1.00
C487   C     0.34863   0.85849   0.28319   0.00000  Uiso   1.00
C488   C     0.47674   0.83747   0.49028   0.00000  Uiso   1.00
C489   C     0.36746   0.80810   0.21686   0.00000  Uiso   1.00
C490   C     0.65121   0.80807   0.21700   0.00000  Uiso   1.00
C491   C     0.50018   0.75406   0.24987   0.00000  Uiso   1.00
C492   C     0.52626   0.83388   0.14994   0.00000  Uiso   1.00
C493   C     0.58711   0.88037   0.01918   0.00000  Uiso   1.00
C494   C     0.54103   0.84045   0.09341   0.00000  Uiso   1.00
C495   C     0.41180   0.81667   0.43357   0.00000  Uiso   1.00
C496   C     0.39768   0.81115   0.48737   0.00000  Uiso   1.00
C497   C     0.42985   0.82090   0.01553   0.00000  Uiso   1.00
C498   C     0.60834   0.70223   0.27540   0.00000  Uiso   1.00
C499   C     0.48693   0.84989   0.43740   0.00000  Uiso   1.00
C500   C     0.39261   0.96193   0.22437   0.00000  Uiso   1.00
C501   C     0.50427   0.75656   0.06839   0.00000  Uiso   1.00
C502   C     0.51260   0.84450   0.01646   0.00000  Uiso   1.00
C503   C     0.55297   0.87059   0.49286   0.00000  Uiso   1.00
C504   C     0.55800   0.88788   0.44398   0.00000  Uiso   1.00
C505   C     0.52533   0.87802   0.41661   0.00000  Uiso   1.00
C506   C     0.51044   0.82609   0.06492   0.00000  Uiso   1.00
C507   C     0.58037   0.86633   0.06981   0.00000  Uiso   1.00
Cu508  Cu    0.45311   0.83333   0.25000   0.00000  Uiso   1.00
Cu509  Cu    0.54689   0.83334   0.25000   0.00000  Uiso   1.00
F510   F     0.44658   0.70934   0.19614   0.00000  Uiso   1.00
F511   F     0.36214   0.88354   0.31692   0.00000  Uiso   1.00
F512   F     0.39996   0.78265   0.18349   0.00000  Uiso   1.00
F513   F     0.52813   0.89977   0.37267   0.00000  Uiso   1.00
H514   H     0.60459   0.87711   0.09129   0.00000  Uiso   1.00
H515   H     0.62916   0.72391   0.29266   0.00000  Uiso   1.00
H516   H     0.61842   0.70889   0.23270   0.00000  Uiso   1.00
H517   H     0.61993   0.67052   0.28195   0.00000  Uiso   1.00
H518   H     0.38434   0.95596   0.26708   0.00000  Uiso   1.00
H519   H     0.37233   0.93875   0.20857   0.00000  Uiso   1.00
H520   H     0.37858   0.99278   0.21802   0.00000  Uiso   1.00
H521   H     0.53583   0.75303   0.08429   0.00000  Uiso   1.00
H522   H     0.51688   0.75402   0.02490   0.00000  Uiso   1.00
H523   H     0.47875   0.73073   0.08361   0.00000  Uiso   1.00
H524   H     0.60660   0.87929   0.30883   0.00000  Uiso   1.00
H525   H     0.63999   0.78781   0.19061   0.00000  Uiso   1.00
H526   H     0.58718   0.90953   0.42697   0.00000  Uiso   1.00
H527   H     0.61765   0.90060   0.00159   0.00000  Uiso   1.00
H528   H     0.38757   0.80606   0.41203   0.00000  Uiso   1.00
H529   H     0.41606   0.81720   0.05736   0.00000  Uiso   1.00
H530   H     0.36209   0.79824   0.00723   0.00000  Uiso   1.00
H531   H     0.55125   0.96113   0.29328   0.00000  Uiso   1.00
N532   N     0.38265   0.83332   0.24999   0.00000  Uiso   1.00
N533   N     0.61735   0.83335   0.25000   0.00000  Uiso   1.00
O534   O     0.46042   0.89345   0.25001   0.00000  Uiso   1.00
O535   O     0.44314   0.95793   0.19731   0.00000  Uiso   1.00
O536   O     0.47897   0.79391   0.08508   0.00000  Uiso   1.00
O537   O     0.53961   0.89346   0.25001   0.00000  Uiso   1.00
O538   O     0.44108   0.83332   0.32549   0.00000  Uiso   1.00
O539   O     0.52027   0.83333   0.32549   0.00000  Uiso   1.00
O540   O     0.46039   0.77321   0.25000   0.00000  Uiso   1.00
O541   O     0.53958   0.77322   0.25000   0.00000  Uiso   1.00
O542   O     0.47973   0.83334   0.17451   0.00000  Uiso   1.00
O543   O     0.55892   0.83335   0.17451   0.00000  Uiso   1.00
O544   O     0.55774   0.70834   0.30051   0.00000  Uiso   1.00
C545   C     0.83336   0.91257   0.24939   0.00000  Uiso   1.00
C546   C     0.79019   0.83519   0.40781   0.00000  Uiso   1.00
C547   C     0.86305   0.97808   0.27310   0.00000  Uiso   1.00
C548   C     0.80692   0.83484   0.35020   0.00000  Uiso   1.00
C549   C     0.86428   0.68759   0.27307   0.00000  Uiso   1.00
C550   C     0.83410   0.70939   0.24926   0.00000  Uiso   1.00
C551   C     0.80500   0.68837   0.22375   0.00000  Uiso   1.00
C552   C     0.80330   0.97884   0.22456   0.00000  Uiso   1.00
C553   C     0.83321   0.95715   0.24874   0.00000  Uiso   1.00
C554   C     0.96587   0.85871   0.28283   0.00000  Uiso   1.00
C555   C     0.68196   0.85849   0.28319   0.00000  Uiso   1.00
C556   C     0.81008   0.83747   0.49028   0.00000  Uiso   1.00
C557   C     0.70079   0.80810   0.21686   0.00000  Uiso   1.00
C558   C     0.98454   0.80807   0.21700   0.00000  Uiso   1.00
C559   C     0.83352   0.75406   0.24987   0.00000  Uiso   1.00
C560   C     0.85959   0.83388   0.14994   0.00000  Uiso   1.00
C561   C     0.92044   0.88037   0.01918   0.00000  Uiso   1.00
C562   C     0.87437   0.84045   0.09341   0.00000  Uiso   1.00
C563   C     0.74514   0.81667   0.43357   0.00000  Uiso   1.00
C564   C     0.73101   0.81115   0.48737   0.00000  Uiso   1.00
C565   C     0.76319   0.82090   0.01553   0.00000  Uiso   1.00
C566   C     0.94167   0.70223   0.27540   0.00000  Uiso   1.00
C567   C     0.82027   0.84989   0.43740   0.00000  Uiso   1.00
C568   C     0.72594   0.96193   0.22437   0.00000  Uiso   1.00
C569   C     0.83760   0.75656   0.06839   0.00000  Uiso   1.00
C570   C     0.84593   0.84450   0.01646   0.00000  Uiso   1.00
C571   C     0.88631   0.87059   0.49286   0.00000  Uiso   1.00
C572   C     0.89134   0.88788   0.44398   0.00000  Uiso   1.00
C573   C     0.85866   0.87802   0.41661   0.00000  Uiso   1.00
C574   C     0.84378   0.82609   0.06492   0.00000  Uiso   1.00
C575   C     0.91371   0.86633   0.06981   0.00000  Uiso   1.00
Cu576  Cu    0.78645   0.83333   0.25000   0.00000  Uiso   1.00
Cu577  Cu    0.88022   0.83334   0.25000   0.00000  Uiso   1.00
F578   F     0.77992   0.70934   0.19614   0.00000  Uiso   1.00
F579   F     0.69548   0.88354   0.31692   0.00000  Uiso   1.00
F580   F     0.73330   0.78265   0.18349   0.00000  Uiso   1.00
F581   F     0.86146   0.89977   0.37267   0.00000  Uiso   1.00
H582   H     0.93792   0.87711   0.09129   0.00000  Uiso   1.00
H583   H     0.96250   0.72391   0.29266   0.00000  Uiso   1.00
H584   H     0.95175   0.70889   0.23270   0.00000  Uiso   1.00
H585   H     0.95327   0.67052   0.28195   0.00000  Uiso   1.00
H586   H     0.71767   0.95596   0.26708   0.00000  Uiso   1.00
H587   H     0.70566   0.93875   0.20857   0.00000  Uiso   1.00
H588   H     0.71191   0.99278   0.21802   0.00000  Uiso   1.00
H589   H     0.86916   0.75303   0.08429   0.00000  Uiso   1.00
H590   H     0.85022   0.75402   0.02490   0.00000  Uiso   1.00
H591   H     0.81209   0.73073   0.08361   0.00000  Uiso   1.00
H592   H     0.93993   0.87929   0.30883   0.00000  Uiso   1.00
H593   H     0.97333   0.78781   0.19061   0.00000  Uiso   1.00
H594   H     0.92051   0.90953   0.42697   0.00000  Uiso   1.00
H595   H     0.95098   0.90060   0.00159   0.00000  Uiso   1.00
H596   H     0.72090   0.80606   0.41203   0.00000  Uiso   1.00
H597   H     0.74940   0.81720   0.05736   0.00000  Uiso   1.00
H598   H     0.69542   0.79824   0.00723   0.00000  Uiso   1.00
H599   H     0.88458   0.96113   0.29328   0.00000  Uiso   1.00
N600   N     0.71598   0.83332   0.24999   0.00000  Uiso   1.00
N601   N     0.95069   0.83335   0.25000   0.00000  Uiso   1.00
O602   O     0.79375   0.89345   0.25001   0.00000  Uiso   1.00
O603   O     0.77648   0.95793   0.19731   0.00000  Uiso   1.00
O604   O     0.81230   0.79391   0.08508   0.00000  Uiso   1.00
O605   O     0.87294   0.89346   0.25001   0.00000  Uiso   1.00
O606   O     0.77441   0.83332   0.32549   0.00000  Uiso   1.00
O607   O     0.85360   0.83333   0.32549   0.00000  Uiso   1.00
O608   O     0.79373   0.77321   0.25000   0.00000  Uiso   1.00
O609   O     0.87292   0.77322   0.25000   0.00000  Uiso   1.00
O610   O     0.81306   0.83334   0.17451   0.00000  Uiso   1.00
O611   O     0.89225   0.83335   0.17451   0.00000  Uiso   1.00
O612   O     0.89107   0.70834   0.30051   0.00000  Uiso   1.00
C613   C     0.16670   0.24591   0.74939   0.00000  Uiso   1.00
C614   C     0.12352   0.16852   0.90781   0.00000  Uiso   1.00
C615   C     0.19638   0.31142   0.77310   0.00000  Uiso   1.00
C616   C     0.14025   0.16817   0.85020   0.00000  Uiso   1.00
C617   C     0.19762   0.02092   0.77307   0.00000  Uiso   1.00
C618   C     0.16743   0.04272   0.74926   0.00000  Uiso   1.00
C619   C     0.13833   0.02171   0.72375   0.00000  Uiso   1.00
C620   C     0.13664   0.31217   0.72456   0.00000  Uiso   1.00
C621   C     0.16654   0.29048   0.74874   0.00000  Uiso   1.00
C622   C     0.29921   0.19205   0.78283   0.00000  Uiso   1.00
C623   C     0.01530   0.19182   0.78319   0.00000  Uiso   1.00
C624   C     0.14341   0.17080   0.99028   0.00000  Uiso   1.00
C625   C     0.03413   0.14143   0.71686   0.00000  Uiso   1.00
C626   C     0.31787   0.14140   0.71700   0.00000  Uiso   1.00
C627   C     0.16685   0.08739   0.74987   0.00000  Uiso   1.00
C628   C     0.19292   0.16721   0.64994   0.00000  Uiso   1.00
C629   C     0.25377   0.21370   0.51918   0.00000  Uiso   1.00
C630   C     0.20770   0.17378   0.59341   0.00000  Uiso   1.00
C631   C     0.07847   0.15000   0.93357   0.00000  Uiso   1.00
C632   C     0.06434   0.14449   0.98737   0.00000  Uiso   1.00
C633   C     0.09652   0.15423   0.51553   0.00000  Uiso   1.00
C634   C     0.27500   0.03557   0.77540   0.00000  Uiso   1.00
C635   C     0.15360   0.18322   0.93740   0.00000  Uiso   1.00
C636   C     0.05928   0.29526   0.72437   0.00000  Uiso   1.00
C637   C     0.17094   0.08989   0.56839   0.00000  Uiso   1.00
C638   C     0.17926   0.17783   0.51646   0.00000  Uiso   1.00
C639   C     0.21964   0.20392   0.99286   0.00000  Uiso   1.00
C640   C     0.22467   0.22122   0.94398   0.00000  Uiso   1.00
C641   C     0.19200   0.21136   0.91661   0.00000  Uiso   1.00
C642   C     0.17711   0.15943   0.56492   0.00000  Uiso   1.00
C643   C     0.24704   0.19966   0.56981   0.00000  Uiso   1.00
Cu644  Cu    0.11978   0.16666   0.75000   0.00000  Uiso   1.00
Cu645  Cu    0.21355   0.16667   0.75000   0.00000  Uiso   1.00
F646   F     0.11325   0.04268   0.69614   0.00000  Uiso   1.00
F647   F     0.02881   0.21687   0.81692   0.00000  Uiso   1.00
F648   F     0.06663   0.11598   0.68349   0.00000  Uiso   1.00
F649   F     0.19480   0.23310   0.87267   0.00000  Uiso   1.00
H650   H     0.27125   0.21044   0.59129   0.00000  Uiso   1.00
H651   H     0.29583   0.05725   0.79266   0.00000  Uiso   1.00
H652   H     0.28508   0.04222   0.73270   0.00000  Uiso   1.00
H653   H     0.28660   0.00385   0.78195   0.00000  Uiso   1.00
H654   H     0.05100   0.28929   0.76708   0.00000  Uiso   1.00
H655   H     0.03899   0.27209   0.70857   0.00000  Uiso   1.00
H656   H     0.04525   0.32612   0.71802   0.00000  Uiso   1.00
H657   H     0.20250   0.08636   0.58429   0.00000  Uiso   1.00
H658   H     0.18355   0.08735   0.52490   0.00000  Uiso   1.00
H659   H     0.14542   0.06406   0.58361   0.00000  Uiso   1.00
H660   H     0.27326   0.21263   0.80883   0.00000  Uiso   1.00
H661   H     0.30666   0.12114   0.69061   0.00000  Uiso   1.00
H662   H     0.25385   0.24287   0.92697   0.00000  Uiso   1.00
H663   H     0.28431   0.23393   0.50159   0.00000  Uiso   1.00
H664   H     0.05423   0.13939   0.91203   0.00000  Uiso   1.00
H665   H     0.08273   0.15053   0.55736   0.00000  Uiso   1.00
H666   H     0.02875   0.13157   0.50723   0.00000  Uiso   1.00
H667   H     0.21792   0.29446   0.79328   0.00000  Uiso   1.00
N668   N     0.04931   0.16666   0.74999   0.00000  Uiso   1.00
N669   N     0.28402   0.16669   0.75000   0.00000  Uiso   1.00
O670   O     0.12708   0.22678   0.75001   0.00000  Uiso   1.00
O671   O     0.10981   0.29126   0.69731   0.00000  Uiso   1.00
O672   O     0.14564   0.12724   0.58508   0.00000  Uiso   1.00
O673   O     0.20627   0.22679   0.75001   0.00000  Uiso   1.00
O674   O     0.10775   0.16665   0.82549   0.00000  Uiso   1.00
O675   O     0.18694   0.16666   0.82549   0.00000  Uiso   1.00
O676   O     0.12706   0.10654   0.75000   0.00000  Uiso   1.00
O677   O     0.20625   0.10655   0.75000   0.00000  Uiso   1.00
O678   O     0.14640   0.16667   0.67451   0.00000  Uiso   1.00
O679   O     0.22559   0.16668   0.67451   0.00000  Uiso   1.00
O680   O     0.22441   0.04168   0.80051   0.00000  Uiso   1.00
C681   C     0.50003   0.24591   0.74939   0.00000  Uiso   1.00
C682   C     0.45685   0.16852   0.90781   0.00000  Uiso   1.00
C683   C     0.52972   0.31142   0.77310   0.00000  Uiso   1.00
C684   C     0.47359   0.16817   0.85020   0.00000  Uiso   1.00
C685   C     0.53095   0.02092   0.77307   0.00000  Uiso   1.00
C686   C     0.50076   0.04272   0.74926   0.00000  Uiso   1.00
C687   C     0.47167   0.02171   0.72375   0.00000  Uiso   1.00
C688   C     0.46997   0.31217   0.72456   0.00000  Uiso   1.00
C689   C     0.49988   0.29048   0.74874   0.00000  Uiso   1.00
C690   C     0.63254   0.19205   0.78283   0.00000  Uiso   1.00
C691   C     0.34863   0.19182   0.78319   0.00000  Uiso   1.00
C692   C     0.47674   0.17080   0.99028   0.00000  Uiso   1.00
C693   C     0.36746   0.14143   0.71686   0.00000  Uiso   1.00
C694   C     0.65121   0.14140   0.71700   0.00000  Uiso   1.00
C695   C     0.50018   0.08739   0.74987   0.00000  Uiso   1.00
C696   C     0.52626   0.16721   0.64994   0.00000  Uiso   1.00
C697   C     0.58711   0.21370   0.51918   0.00000  Uiso   1.00
C698   C     0.54103   0.17378   0.59341   0.00000  Uiso   1.00
C699   C     0.41180   0.15000   0.93357   0.00000  Uiso   1.00
C700   C     0.39768   0.14449   0.98737   0.00000  Uiso   1.00
C701   C     0.42985   0.15423   0.51553   0.00000  Uiso   1.00
C702   C     0.60834   0.03557   0.77540   0.00000  Uiso   1.00
C703   C     0.48693   0.18322   0.93740   0.00000  Uiso   1.00
C704   C     0.39261   0.29526   0.72437   0.00000  Uiso   1.00
C705   C     0.50427   0.08989   0.56839   0.00000  Uiso   1.00
C706   C     0.51260   0.17783   0.51646   0.00000  Uiso   1.00
C707   C     0.55297   0.20392   0.99286   0.00000  Uiso   1.00
C708   C     0.55800   0.22122   0.94398   0.00000  Uiso   1.00
C709   C     0.52533   0.21136   0.91661   0.00000  Uiso   1.00
C710   C     0.51044   0.15943   0.56492   0.00000  Uiso   1.00
C711   C     0.58037   0.19966   0.56981   0.00000  Uiso   1.00
Cu712  Cu    0.45311   0.16666   0.75000   0.00000  Uiso   1.00
Cu713  Cu    0.54689   0.16667   0.75000   0.00000  Uiso   1.00
F714   F     0.44658   0.04268   0.69614   0.00000  Uiso   1.00
F715   F     0.36214   0.21687   0.81692   0.00000  Uiso   1.00
F716   F     0.39996   0.11598   0.68349   0.00000  Uiso   1.00
F717   F     0.52813   0.23310   0.87267   0.00000  Uiso   1.00
H718   H     0.60459   0.21044   0.59129   0.00000  Uiso   1.00
H719   H     0.62916   0.05725   0.79266   0.00000  Uiso   1.00
H720   H     0.61842   0.04222   0.73270   0.00000  Uiso   1.00
H721   H     0.61993   0.00385   0.78195   0.00000  Uiso   1.00
H722   H     0.38434   0.28929   0.76708   0.00000  Uiso   1.00
H723   H     0.37233   0.27209   0.70857   0.00000  Uiso   1.00
H724   H     0.37858   0.32612   0.71802   0.00000  Uiso   1.00
H725   H     0.53583   0.08636   0.58429   0.00000  Uiso   1.00
H726   H     0.51688   0.08735   0.52490   0.00000  Uiso   1.00
H727   H     0.47875   0.06406   0.58361   0.00000  Uiso   1.00
H728   H     0.60660   0.21263   0.80883   0.00000  Uiso   1.00
H729   H     0.63999   0.12114   0.69061   0.00000  Uiso   1.00
H730   H     0.58718   0.24287   0.92697   0.00000  Uiso   1.00
H731   H     0.61765   0.23393   0.50159   0.00000  Uiso   1.00
H732   H     0.38757   0.13939   0.91203   0.00000  Uiso   1.00
H733   H     0.41606   0.15053   0.55736   0.00000  Uiso   1.00
H734   H     0.36209   0.13157   0.50723   0.00000  Uiso   1.00
H735   H     0.55125   0.29446   0.79328   0.00000  Uiso   1.00
N736   N     0.38265   0.16666   0.74999   0.00000  Uiso   1.00
N737   N     0.61735   0.16669   0.75000   0.00000  Uiso   1.00
O738   O     0.46042   0.22678   0.75001   0.00000  Uiso   1.00
O739   O     0.44314   0.29126   0.69731   0.00000  Uiso   1.00
O740   O     0.47897   0.12724   0.58508   0.00000  Uiso   1.00
O741   O     0.53961   0.22679   0.75001   0.00000  Uiso   1.00
O742   O     0.44108   0.16665   0.82549   0.00000  Uiso   1.00
O743   O     0.52027   0.16666   0.82549   0.00000  Uiso   1.00
O744   O     0.46039   0.10654   0.75000   0.00000  Uiso   1.00
O745   O     0.53958   0.10655   0.75000   0.00000  Uiso   1.00
O746   O     0.47973   0.16667   0.67451   0.00000  Uiso   1.00
O747   O     0.55892   0.16668   0.67451   0.00000  Uiso   1.00
O748   O     0.55774   0.04168   0.80051   0.00000  Uiso   1.00
C749   C     0.83336   0.24591   0.74939   0.00000  Uiso   1.00
C750   C     0.79019   0.16852   0.90781   0.00000  Uiso   1.00
C751   C     0.86305   0.31142   0.77310   0.00000  Uiso   1.00
C752   C     0.80692   0.16817   0.85020   0.00000  Uiso   1.00
C753   C     0.86428   0.02092   0.77307   0.00000  Uiso   1.00
C754   C     0.83410   0.04272   0.74926   0.00000  Uiso   1.00
C755   C     0.80500   0.02171   0.72375   0.00000  Uiso   1.00
C756   C     0.80330   0.31217   0.72456   0.00000  Uiso   1.00
C757   C     0.83321   0.29048   0.74874   0.00000  Uiso   1.00
C758   C     0.96587   0.19205   0.78283   0.00000  Uiso   1.00
C759   C     0.68196   0.19182   0.78319   0.00000  Uiso   1.00
C760   C     0.81008   0.17080   0.99028   0.00000  Uiso   1.00
C761   C     0.70079   0.14143   0.71686   0.00000  Uiso   1.00
C762   C     0.98454   0.14140   0.71700   0.00000  Uiso   1.00
C763   C     0.83352   0.08739   0.74987   0.00000  Uiso   1.00
C764   C     0.85959   0.16721   0.64994   0.00000  Uiso   1.00
C765   C     0.92044   0.21370   0.51918   0.00000  Uiso   1.00
C766   C     0.87437   0.17378   0.59341   0.00000  Uiso   1.00
C767   C     0.74514   0.15000   0.93357   0.00000  Uiso   1.00
C768   C     0.73101   0.14449   0.98737   0.00000  Uiso   1.00
C769   C     0.76319   0.15423   0.51553   0.00000  Uiso   1.00
C770   C     0.94167   0.03557   0.77540   0.00000  Uiso   1.00
C771   C     0.82027   0.18322   0.93740   0.00000  Uiso   1.00
C772   C     0.72594   0.29526   0.72437   0.00000  Uiso   1.00
C773   C     0.83760   0.08989   0.56839   0.00000  Uiso   1.00
C774   C     0.84593   0.17783   0.51646   0.00000  Uiso   1.00
C775   C     0.88631   0.20392   0.99286   0.00000  Uiso   1.00
C776   C     0.89134   0.22122   0.94398   0.00000  Uiso   1.00
C777   C     0.85866   0.21136   0.91661   0.00000  Uiso   1.00
C778   C     0.84378   0.15943   0.56492   0.00000  Uiso   1.00
C779   C     0.91371   0.19966   0.56981   0.00000  Uiso   1.00
Cu780  Cu    0.78645   0.16666   0.75000   0.00000  Uiso   1.00
Cu781  Cu    0.88022   0.16667   0.75000   0.00000  Uiso   1.00
F782   F     0.77992   0.04268   0.69614   0.00000  Uiso   1.00
F783   F     0.69548   0.21687   0.81692   0.00000  Uiso   1.00
F784   F     0.73330   0.11598   0.68349   0.00000  Uiso   1.00
F785   F     0.86146   0.23310   0.87267   0.00000  Uiso   1.00
H786   H     0.93792   0.21044   0.59129   0.00000  Uiso   1.00
H787   H     0.96250   0.05725   0.79266   0.00000  Uiso   1.00
H788   H     0.95175   0.04222   0.73270   0.00000  Uiso   1.00
H789   H     0.95327   0.00385   0.78195   0.00000  Uiso   1.00
H790   H     0.71767   0.28929   0.76708   0.00000  Uiso   1.00
H791   H     0.70566   0.27209   0.70857   0.00000  Uiso   1.00
H792   H     0.71191   0.32612   0.71802   0.00000  Uiso   1.00
H793   H     0.86916   0.08636   0.58429   0.00000  Uiso   1.00
H794   H     0.85022   0.08735   0.52490   0.00000  Uiso   1.00
H795   H     0.81209   0.06406   0.58361   0.00000  Uiso   1.00
H796   H     0.93993   0.21263   0.80883   0.00000  Uiso   1.00
H797   H     0.97333   0.12114   0.69061   0.00000  Uiso   1.00
H798   H     0.92051   0.24287   0.92697   0.00000  Uiso   1.00
H799   H     0.95098   0.23393   0.50159   0.00000  Uiso   1.00
H800   H     0.72090   0.13939   0.91203   0.00000  Uiso   1.00
H801   H     0.74940   0.15053   0.55736   0.00000  Uiso   1.00
H802   H     0.69542   0.13157   0.50723   0.00000  Uiso   1.00
H803   H     0.88458   0.29446   0.79328   0.00000  Uiso   1.00
N804   N     0.71598   0.16666   0.74999   0.00000  Uiso   1.00
N805   N     0.95069   0.16669   0.75000   0.00000  Uiso   1.00
O806   O     0.79375   0.22678   0.75001   0.00000  Uiso   1.00
O807   O     0.77648   0.29126   0.69731   0.00000  Uiso   1.00
O808   O     0.81230   0.12724   0.58508   0.00000  Uiso   1.00
O809   O     0.87294   0.22679   0.75001   0.00000  Uiso   1.00
O810   O     0.77441   0.16665   0.82549   0.00000  Uiso   1.00
O811   O     0.85360   0.16666   0.82549   0.00000  Uiso   1.00
O812   O     0.79373   0.10654   0.75000   0.00000  Uiso   1.00
O813   O     0.87292   0.10655   0.75000   0.00000  Uiso   1.00
O814   O     0.81306   0.16667   0.67451   0.00000  Uiso   1.00
O815   O     0.89225   0.16668   0.67451   0.00000  Uiso   1.00
O816   O     0.89107   0.04168   0.80051   0.00000  Uiso   1.00
C817   C     0.16670   0.57924   0.74939   0.00000  Uiso   1.00
C818   C     0.12352   0.50186   0.90781   0.00000  Uiso   1.00
C819   C     0.19638   0.64475   0.77310   0.00000  Uiso   1.00
C820   C     0.14025   0.50150   0.85020   0.00000  Uiso   1.00
C821   C     0.19762   0.35426   0.77307   0.00000  Uiso   1.00
C822   C     0.16743   0.37605   0.74926   0.00000  Uiso   1.00
C823   C     0.13833   0.35504   0.72375   0.00000  Uiso   1.00
C824   C     0.13664   0.64551   0.72456   0.00000  Uiso   1.00
C825   C     0.16654   0.62382   0.74874   0.00000  Uiso   1.00
C826   C     0.29921   0.52538   0.78283   0.00000  Uiso   1.00
C827   C     0.01530   0.52515   0.78319   0.00000  Uiso   1.00
C828   C     0.14341   0.50414   0.99028   0.00000  Uiso   1.00
C829   C     0.03413   0.47476   0.71686   0.00000  Uiso   1.00
C830   C     0.31787   0.47474   0.71700   0.00000  Uiso   1.00
C831   C     0.16685   0.42072   0.74987   0.00000  Uiso   1.00
C832   C     0.19292   0.50055   0.64994   0.00000  Uiso   1.00
C833   C     0.25377   0.54703   0.51918   0.00000  Uiso   1.00
C834   C     0.20770   0.50711   0.59341   0.00000  Uiso   1.00
C835   C     0.07847   0.48334   0.93357   0.00000  Uiso   1.00
C836   C     0.06434   0.47782   0.98737   0.00000  Uiso   1.00
C837   C     0.09652   0.48756   0.51553   0.00000  Uiso   1.00
C838   C     0.27500   0.36890   0.77540   0.00000  Uiso   1.00
C839   C     0.15360   0.51656   0.93740   0.00000  Uiso   1.00
C840   C     0.05928   0.62859   0.72437   0.00000  Uiso   1.00
C841   C     0.17094   0.42323   0.56839   0.00000  Uiso   1.00
C842   C     0.17926   0.51116   0.51646   0.00000  Uiso   1.00
C843   C     0.21964   0.53725   0.99286   0.00000  Uiso   1.00
C844   C     0.22467   0.55455   0.94398   0.00000  Uiso   1.00
C845   C     0.19200   0.54469   0.91661   0.00000  Uiso   1.00
C846   C     0.17711   0.49276   0.56492   0.00000  Uiso   1.00
C847   C     0.24704   0.53299   0.56981   0.00000  Uiso   1.00
Cu848  Cu    0.11978   0.49999   0.75000   0.00000  Uiso   1.00
Cu849  Cu    0.21355   0.50001   0.75000   0.00000  Uiso   1.00
F850   F     0.11325   0.37601   0.69614   0.00000  Uiso   1.00
F851   F     0.02881   0.55021   0.81692   0.00000  Uiso   1.00
F852   F     0.06663   0.44931   0.68349   0.00000  Uiso   1.00
F853   F     0.19480   0.56644   0.87267   0.00000  Uiso   1.00
H854   H     0.27125   0.54378   0.59129   0.00000  Uiso   1.00
H855   H     0.29583   0.39058   0.79266   0.00000  Uiso   1.00
H856   H     0.28508   0.37555   0.73270   0.00000  Uiso   1.00
H857   H     0.28660   0.33718   0.78195   0.00000  Uiso   1.00
H858   H     0.05100   0.62263   0.76708   0.00000  Uiso   1.00
H859   H     0.03899   0.60542   0.70857   0.00000  Uiso   1.00
H860   H     0.04525   0.65945   0.71802   0.00000  Uiso   1.00
H861   H     0.20250   0.41970   0.58429   0.00000  Uiso   1.00
H862   H     0.18355   0.42069   0.52490   0.00000  Uiso   1.00
H863   H     0.14542   0.39739   0.58361   0.00000  Uiso   1.00
H864   H     0.27326   0.54596   0.80883   0.00000  Uiso   1.00
H865   H     0.30666   0.45448   0.69061   0.00000  Uiso   1.00
H866   H     0.25385   0.57620   0.92697   0.00000  Uiso   1.00
H867   H     0.28431   0.56727   0.50159   0.00000  Uiso   1.00
H868   H     0.05423   0.47273   0.91203   0.00000  Uiso   1.00
H869   H     0.08273   0.48387   0.55736   0.00000  Uiso   1.00
H870   H     0.02875   0.46491   0.50723   0.00000  Uiso   1.00
H871   H     0.21792   0.62780   0.79328   0.00000  Uiso   1.00
N872   N     0.04931   0.49999   0.74999   0.00000  Uiso   1.00
N873   N     0.28402   0.50002   0.75000   0.00000  Uiso   1.00
O874   O     0.12708   0.56011   0.75001   0.00000  Uiso   1.00
O875   O     0.10981   0.62460   0.69731   0.00000  Uiso   1.00
O876   O     0.14564   0.46058   0.58508   0.00000  Uiso   1.00
O877   O     0.20627   0.56012   0.75001   0.00000  Uiso   1.00
O878   O     0.10775   0.49998   0.82549   0.00000  Uiso   1.00
O879   O     0.18694   0.49999   0.82549   0.00000  Uiso   1.00
O880   O     0.12706   0.43988   0.75000   0.00000  Uiso   1.00
O881   O     0.20625   0.43989   0.75000   0.00000  Uiso   1.00
O882   O     0.14640   0.50001   0.67451   0.00000  Uiso   1.00
O883   O     0.22559   0.50002   0.67451   0.00000  Uiso   1.00
O884   O     0.22441   0.37501   0.80051   0.00000  Uiso   1.00
C885   C     0.50003   0.57924   0.74939   0.00000  Uiso   1.00
C886   C     0.45685   0.50186   0.90781   0.00000  Uiso   1.00
C887   C     0.52972   0.64475   0.77310   0.00000  Uiso   1.00
C888   C     0.47359   0.50150   0.85020   0.00000  Uiso   1.00
C889   C     0.53095   0.35426   0.77307   0.00000  Uiso   1.00
C890   C     0.50076   0.37605   0.74926   0.00000  Uiso   1.00
C891   C     0.47167   0.35504   0.72375   0.00000  Uiso   1.00
C892   C     0.46997   0.64551   0.72456   0.00000  Uiso   1.00
C893   C     0.49988   0.62382   0.74874   0.00000  Uiso   1.00
C894   C     0.63254   0.52538   0.78283   0.00000  Uiso   1.00
C895   C     0.34863   0.52515   0.78319   0.00000  Uiso   1.00
C896   C     0.47674   0.50414   0.99028   0.00000  Uiso   1.00
C897   C     0.36746   0.47476   0.71686   0.00000  Uiso   1.00
C898   C     0.65121   0.47474   0.71700   0.00000  Uiso   1.00
C899   C     0.50018   0.42072   0.74987   0.00000  Uiso   1.00
C900   C     0.52626   0.50055   0.64994   0.00000  Uiso   1.00
C901   C     0.58711   0.54703   0.51918   0.00000  Uiso   1.00
C902   C     0.54103   0.50711   0.59341   0.00000  Uiso   1.00
C903   C     0.41180   0.48334   0.93357   0.00000  Uiso   1.00
C904   C     0.39768   0.47782   0.98737   0.00000  Uiso   1.00
C905   C     0.42985   0.48756   0.51553   0.00000  Uiso   1.00
C906   C     0.60834   0.36890   0.77540   0.00000  Uiso   1.00
C907   C     0.48693   0.51656   0.93740   0.00000  Uiso   1.00
C908   C     0.39261   0.62859   0.72437   0.00000  Uiso   1.00
C909   C     0.50427   0.42323   0.56839   0.00000  Uiso   1.00
C910   C     0.51260   0.51116   0.51646   0.00000  Uiso   1.00
C911   C     0.55297   0.53725   0.99286   0.00000  Uiso   1.00
C912   C     0.55800   0.55455   0.94398   0.00000  Uiso   1.00
C913   C     0.52533   0.54469   0.91661   0.00000  Uiso   1.00
C914   C     0.51044   0.49276   0.56492   0.00000  Uiso   1.00
C915   C     0.58037   0.53299   0.56981   0.00000  Uiso   1.00
Cu916  Cu    0.45311   0.49999   0.75000   0.00000  Uiso   1.00
Cu917  Cu    0.54689   0.50001   0.75000   0.00000  Uiso   1.00
F918   F     0.44658   0.37601   0.69614   0.00000  Uiso   1.00
F919   F     0.36214   0.55021   0.81692   0.00000  Uiso   1.00
F920   F     0.39996   0.44931   0.68349   0.00000  Uiso   1.00
F921   F     0.52813   0.56644   0.87267   0.00000  Uiso   1.00
H922   H     0.60459   0.54378   0.59129   0.00000  Uiso   1.00
H923   H     0.62916   0.39058   0.79266   0.00000  Uiso   1.00
H924   H     0.61842   0.37555   0.73270   0.00000  Uiso   1.00
H925   H     0.61993   0.33718   0.78195   0.00000  Uiso   1.00
H926   H     0.38434   0.62263   0.76708   0.00000  Uiso   1.00
H927   H     0.37233   0.60542   0.70857   0.00000  Uiso   1.00
H928   H     0.37858   0.65945   0.71802   0.00000  Uiso   1.00
H929   H     0.53583   0.41970   0.58429   0.00000  Uiso   1.00
H930   H     0.51688   0.42069   0.52490   0.00000  Uiso   1.00
H931   H     0.47875   0.39739   0.58361   0.00000  Uiso   1.00
H932   H     0.60660   0.54596   0.80883   0.00000  Uiso   1.00
H933   H     0.63999   0.45448   0.69061   0.00000  Uiso   1.00
H934   H     0.58718   0.57620   0.92697   0.00000  Uiso   1.00
H935   H     0.61765   0.56727   0.50159   0.00000  Uiso   1.00
H936   H     0.38757   0.47273   0.91203   0.00000  Uiso   1.00
H937   H     0.41606   0.48387   0.55736   0.00000  Uiso   1.00
H938   H     0.36209   0.46491   0.50723   0.00000  Uiso   1.00
H939   H     0.55125   0.62780   0.79328   0.00000  Uiso   1.00
N940   N     0.38265   0.49999   0.74999   0.00000  Uiso   1.00
N941   N     0.61735   0.50002   0.75000   0.00000  Uiso   1.00
O942   O     0.46042   0.56011   0.75001   0.00000  Uiso   1.00
O943   O     0.44314   0.62460   0.69731   0.00000  Uiso   1.00
O944   O     0.47897   0.46058   0.58508   0.00000  Uiso   1.00
O945   O     0.53961   0.56012   0.75001   0.00000  Uiso   1.00
O946   O     0.44108   0.49998   0.82549   0.00000  Uiso   1.00
O947   O     0.52027   0.49999   0.82549   0.00000  Uiso   1.00
O948   O     0.46039   0.43988   0.75000   0.00000  Uiso   1.00
O949   O     0.53958   0.43989   0.75000   0.00000  Uiso   1.00
O950   O     0.47973   0.50001   0.67451   0.00000  Uiso   1.00
O951   O     0.55892   0.50002   0.67451   0.00000  Uiso   1.00
O952   O     0.55774   0.37501   0.80051   0.00000  Uiso   1.00
C953   C     0.83336   0.57924   0.74939   0.00000  Uiso   1.00
C954   C     0.79019   0.50186   0.90781   0.00000  Uiso   1.00
C955   C     0.86305   0.64475   0.77310   0.00000  Uiso   1.00
C956   C     0.80692   0.50150   0.85020   0.00000  Uiso   1.00
C957   C     0.86428   0.35426   0.77307   0.00000  Uiso   1.00
C958   C     0.83410   0.37605   0.74926   0.00000  Uiso   1.00
C959   C     0.80500   0.35504   0.72375   0.00000  Uiso   1.00
C960   C     0.80330   0.64551   0.72456   0.00000  Uiso   1.00
C961   C     0.83321   0.62382   0.74874   0.00000  Uiso   1.00
C962   C     0.96587   0.52538   0.78283   0.00000  Uiso   1.00
C963   C     0.68196   0.52515   0.78319   0.00000  Uiso   1.00
C964   C     0.81008   0.50414   0.99028   0.00000  Uiso   1.00
C965   C     0.70079   0.47476   0.71686   0.00000  Uiso   1.00
C966   C     0.98454   0.47474   0.71700   0.00000  Uiso   1.00
C967   C     0.83352   0.42072   0.74987   0.00000  Uiso   1.00
C968   C     0.85959   0.50055   0.64994   0.00000  Uiso   1.00
C969   C     0.92044   0.54703   0.51918   0.00000  Uiso   1.00
C970   C     0.87437   0.50711   0.59341   0.00000  Uiso   1.00
C971   C     0.74514   0.48334   0.93357   0.00000  Uiso   1.00
C972   C     0.73101   0.47782   0.98737   0.00000  Uiso   1.00
C973   C     0.76319   0.48756   0.51553   0.00000  Uiso   1.00
C974   C     0.94167   0.36890   0.77540   0.00000  Uiso   1.00
C975   C     0.82027   0.51656   0.93740   0.00000  Uiso   1.00
C976   C     0.72594   0.62859   0.72437   0.00000  Uiso   1.00
C977   C     0.83760   0.42323   0.56839   0.00000  Uiso   1.00
C978   C     0.84593   0.51116   0.51646   0.00000  Uiso   1.00
C979   C     0.88631   0.53725   0.99286   0.00000  Uiso   1.00
C980   C     0.89134   0.55455   0.94398   0.00000  Uiso   1.00
C981   C     0.85866   0.54469   0.91661   0.00000  Uiso   1.00
C982   C     0.84378   0.49276   0.56492   0.00000  Uiso   1.00
C983   C     0.91371   0.53299   0.56981   0.00000  Uiso   1.00
Cu984  Cu    0.78645   0.49999   0.75000   0.00000  Uiso   1.00
Cu985  Cu    0.88022   0.50001   0.75000   0.00000  Uiso   1.00
F986   F     0.77992   0.37601   0.69614   0.00000  Uiso   1.00
F987   F     0.69548   0.55021   0.81692   0.00000  Uiso   1.00
F988   F     0.73330   0.44931   0.68349   0.00000  Uiso   1.00
F989   F     0.86146   0.56644   0.87267   0.00000  Uiso   1.00
H990   H     0.93792   0.54378   0.59129   0.00000  Uiso   1.00
H991   H     0.96250   0.39058   0.79266   0.00000  Uiso   1.00
H992   H     0.95175   0.37555   0.73270   0.00000  Uiso   1.00
H993   H     0.95327   0.33718   0.78195   0.00000  Uiso   1.00
H994   H     0.71767   0.62263   0.76708   0.00000  Uiso   1.00
H995   H     0.70566   0.60542   0.70857   0.00000  Uiso   1.00
H996   H     0.71191   0.65945   0.71802   0.00000  Uiso   1.00
H997   H     0.86916   0.41970   0.58429   0.00000  Uiso   1.00
H998   H     0.85022   0.42069   0.52490   0.00000  Uiso   1.00
H999   H     0.81209   0.39739   0.58361   0.00000  Uiso   1.00
H1000  H     0.93993   0.54596   0.80883   0.00000  Uiso   1.00
H1001  H     0.97333   0.45448   0.69061   0.00000  Uiso   1.00
H1002  H     0.92051   0.57620   0.92697   0.00000  Uiso   1.00
H1003  H     0.95098   0.56727   0.50159   0.00000  Uiso   1.00
H1004  H     0.72090   0.47273   0.91203   0.00000  Uiso   1.00
H1005  H     0.74940   0.48387   0.55736   0.00000  Uiso   1.00
H1006  H     0.69542   0.46491   0.50723   0.00000  Uiso   1.00
H1007  H     0.88458   0.62780   0.79328   0.00000  Uiso   1.00
N1008  N     0.71598   0.49999   0.74999   0.00000  Uiso   1.00
N1009  N     0.95069   0.50002   0.75000   0.00000  Uiso   1.00
O1010  O     0.79375   0.56011   0.75001   0.00000  Uiso   1.00
O1011  O     0.77648   0.62460   0.69731   0.00000  Uiso   1.00
O1012  O     0.81230   0.46058   0.58508   0.00000  Uiso   1.00
O1013  O     0.87294   0.56012   0.75001   0.00000  Uiso   1.00
O1014  O     0.77441   0.49998   0.82549   0.00000  Uiso   1.00
O1015  O     0.85360   0.49999   0.82549   0.00000  Uiso   1.00
O1016  O     0.79373   0.43988   0.75000   0.00000  Uiso   1.00
O1017  O     0.87292   0.43989   0.75000   0.00000  Uiso   1.00
O1018  O     0.81306   0.50001   0.67451   0.00000  Uiso   1.00
O1019  O     0.89225   0.50002   0.67451   0.00000  Uiso   1.00
O1020  O     0.89107   0.37501   0.80051   0.00000  Uiso   1.00
C1021  C     0.16670   0.91257   0.74939   0.00000  Uiso   1.00
C1022  C     0.12352   0.83519   0.90781   0.00000  Uiso   1.00
C1023  C     0.19638   0.97808   0.77310   0.00000  Uiso   1.00
C1024  C     0.14025   0.83484   0.85020   0.00000  Uiso   1.00
C1025  C     0.19762   0.68759   0.77307   0.00000  Uiso   1.00
C1026  C     0.16743   0.70939   0.74926   0.00000  Uiso   1.00
C1027  C     0.13833   0.68837   0.72375   0.00000  Uiso   1.00
C1028  C     0.13664   0.97884   0.72456   0.00000  Uiso   1.00
C1029  C     0.16654   0.95715   0.74874   0.00000  Uiso   1.00
C1030  C     0.29921   0.85871   0.78283   0.00000  Uiso   1.00
C1031  C     0.01530   0.85849   0.78319   0.00000  Uiso   1.00
C1032  C     0.14341   0.83747   0.99028   0.00000  Uiso   1.00
C1033  C     0.03413   0.80810   0.71686   0.00000  Uiso   1.00
C1034  C     0.31787   0.80807   0.71700   0.00000  Uiso   1.00
C1035  C     0.16685   0.75406   0.74987   0.00000  Uiso   1.00
C1036  C     0.19292   0.83388   0.64994   0.00000  Uiso   1.00
C1037  C     0.25377   0.88037   0.51918   0.00000  Uiso   1.00
C1038  C     0.20770   0.84045   0.59341   0.00000  Uiso   1.00
C1039  C     0.07847   0.81667   0.93357   0.00000  Uiso   1.00
C1040  C     0.06434   0.81115   0.98737   0.00000  Uiso   1.00
C1041  C     0.09652   0.82090   0.51553   0.00000  Uiso   1.00
C1042  C     0.27500   0.70223   0.77540   0.00000  Uiso   1.00
C1043  C     0.15360   0.84989   0.93740   0.00000  Uiso   1.00
C1044  C     0.05928   0.96193   0.72437   0.00000  Uiso   1.00
C1045  C     0.17094   0.75656   0.56839   0.00000  Uiso   1.00
C1046  C     0.17926   0.84450   0.51646   0.00000  Uiso   1.00
C1047  C     0.21964   0.87059   0.99286   0.00000  Uiso   1.00
C1048  C     0.22467   0.88788   0.94398   0.00000  Uiso   1.00
C1049  C     0.19200   0.87802   0.91661   0.00000  Uiso   1.00
C1050  C     0.17711   0.82609   0.56492   0.00000  Uiso   1.00
C1051  C     0.24704   0.86633   0.56981   0.00000  Uiso   1.00
Cu1052 Cu    0.11978   0.83333   0.75000   0.00000  Uiso   1.00
Cu1053 Cu    0.21355   0.83334   0.75000   0.00000  Uiso   1.00
F1054  F     0.11325   0.70934   0.69614   0.00000  Uiso   1.00
F1055  F     0.02881   0.88354   0.81692   0.00000  Uiso   1.00
F1056  F     0.06663   0.78265   0.68349   0.00000  Uiso   1.00
F1057  F     0.19480   0.89977   0.87267   0.00000  Uiso   1.00
H1058  H     0.27125   0.87711   0.59129   0.00000  Uiso   1.00
H1059  H     0.29583   0.72391   0.79266   0.00000  Uiso   1.00
H1060  H     0.28508   0.70889   0.73270   0.00000  Uiso   1.00
H1061  H     0.28660   0.67052   0.78195   0.00000  Uiso   1.00
H1062  H     0.05100   0.95596   0.76708   0.00000  Uiso   1.00
H1063  H     0.03899   0.93875   0.70857   0.00000  Uiso   1.00
H1064  H     0.04525   0.99278   0.71802   0.00000  Uiso   1.00
H1065  H     0.20250   0.75303   0.58429   0.00000  Uiso   1.00
H1066  H     0.18355   0.75402   0.52490   0.00000  Uiso   1.00
H1067  H     0.14542   0.73073   0.58361   0.00000  Uiso   1.00
H1068  H     0.27326   0.87929   0.80883   0.00000  Uiso   1.00
H1069  H     0.30666   0.78781   0.69061   0.00000  Uiso   1.00
H1070  H     0.25385   0.90953   0.92697   0.00000  Uiso   1.00
H1071  H     0.28431   0.90060   0.50159   0.00000  Uiso   1.00
H1072  H     0.05423   0.80606   0.91203   0.00000  Uiso   1.00
H1073  H     0.08273   0.81720   0.55736   0.00000  Uiso   1.00
H1074  H     0.02875   0.79824   0.50723   0.00000  Uiso   1.00
H1075  H     0.21792   0.96113   0.79328   0.00000  Uiso   1.00
N1076  N     0.04931   0.83332   0.74999   0.00000  Uiso   1.00
N1077  N     0.28402   0.83335   0.75000   0.00000  Uiso   1.00
O1078  O     0.12708   0.89345   0.75001   0.00000  Uiso   1.00
O1079  O     0.10981   0.95793   0.69731   0.00000  Uiso   1.00
O1080  O     0.14564   0.79391   0.58508   0.00000  Uiso   1.00
O1081  O     0.20627   0.89346   0.75001   0.00000  Uiso   1.00
O1082  O     0.10775   0.83332   0.82549   0.00000  Uiso   1.00
O1083  O     0.18694   0.83333   0.82549   0.00000  Uiso   1.00
O1084  O     0.12706   0.77321   0.75000   0.00000  Uiso   1.00
O1085  O     0.20625   0.77322   0.75000   0.00000  Uiso   1.00
O1086  O     0.14640   0.83334   0.67451   0.00000  Uiso   1.00
O1087  O     0.22559   0.83335   0.67451   0.00000  Uiso   1.00
O1088  O     0.22441   0.70834   0.80051   0.00000  Uiso   1.00
C1089  C     0.50003   0.91257   0.74939   0.00000  Uiso   1.00
C1090  C     0.45685   0.83519   0.90781   0.00000  Uiso   1.00
C1091  C     0.52972   0.97808   0.77310   0.00000  Uiso   1.00
C1092  C     0.47359   0.83484   0.85020   0.00000  Uiso   1.00
C1093  C     0.53095   0.68759   0.77307   0.00000  Uiso   1.00
C1094  C     0.50076   0.70939   0.74926   0.00000  Uiso   1.00
C1095  C     0.47167   0.68837   0.72375   0.00000  Uiso   1.00
C1096  C     0.46997   0.97884   0.72456   0.00000  Uiso   1.00
C1097  C     0.49988   0.95715   0.74874   0.00000  Uiso   1.00
C1098  C     0.63254   0.85871   0.78283   0.00000  Uiso   1.00
C1099  C     0.34863   0.85849   0.78319   0.00000  Uiso   1.00
C1100  C     0.47674   0.83747   0.99028   0.00000  Uiso   1.00
C1101  C     0.36746   0.80810   0.71686   0.00000  Uiso   1.00
C1102  C     0.65121   0.80807   0.71700   0.00000  Uiso   1.00
C1103  C     0.50018   0.75406   0.74987   0.00000  Uiso   1.00
C1104  C     0.52626   0.83388   0.64994   0.00000  Uiso   1.00
C1105  C     0.58711   0.88037   0.51918   0.00000  Uiso   1.00
C1106  C     0.54103   0.84045   0.59341   0.00000  Uiso   1.00
C1107  C     0.41180   0.81667   0.93357   0.00000  Uiso   1.00
C1108  C     0.39768   0.81115   0.98737   0.00000  Uiso   1.00
C1109  C     0.42985   0.82090   0.51553   0.00000  Uiso   1.00
C1110  C     0.60834   0.70223   0.77540   0.00000  Uiso   1.00
C1111  C     0.48693   0.84989   0.93740   0.00000  Uiso   1.00
C1112  C     0.39261   0.96193   0.72437   0.00000  Uiso   1.00
C1113  C     0.50427   0.75656   0.56839   0.00000  Uiso   1.00
C1114  C     0.51260   0.84450   0.51646   0.00000  Uiso   1.00
C1115  C     0.55297   0.87059   0.99286   0.00000  Uiso   1.00
C1116  C     0.55800   0.88788   0.94398   0.00000  Uiso   1.00
C1117  C     0.52533   0.87802   0.91661   0.00000  Uiso   1.00
C1118  C     0.51044   0.82609   0.56492   0.00000  Uiso   1.00
C1119  C     0.58037   0.86633   0.56981   0.00000  Uiso   1.00
Cu1120 Cu    0.45311   0.83333   0.75000   0.00000  Uiso   1.00
Cu1121 Cu    0.54689   0.83334   0.75000   0.00000  Uiso   1.00
F1122  F     0.44658   0.70934   0.69614   0.00000  Uiso   1.00
F1123  F     0.36214   0.88354   0.81692   0.00000  Uiso   1.00
F1124  F     0.39996   0.78265   0.68349   0.00000  Uiso   1.00
F1125  F     0.52813   0.89977   0.87267   0.00000  Uiso   1.00
H1126  H     0.60459   0.87711   0.59129   0.00000  Uiso   1.00
H1127  H     0.62916   0.72391   0.79266   0.00000  Uiso   1.00
H1128  H     0.61842   0.70889   0.73270   0.00000  Uiso   1.00
H1129  H     0.61993   0.67052   0.78195   0.00000  Uiso   1.00
H1130  H     0.38434   0.95596   0.76708   0.00000  Uiso   1.00
H1131  H     0.37233   0.93875   0.70857   0.00000  Uiso   1.00
H1132  H     0.37858   0.99278   0.71802   0.00000  Uiso   1.00
H1133  H     0.53583   0.75303   0.58429   0.00000  Uiso   1.00
H1134  H     0.51688   0.75402   0.52490   0.00000  Uiso   1.00
H1135  H     0.47875   0.73073   0.58361   0.00000  Uiso   1.00
H1136  H     0.60660   0.87929   0.80883   0.00000  Uiso   1.00
H1137  H     0.63999   0.78781   0.69061   0.00000  Uiso   1.00
H1138  H     0.58718   0.90953   0.92697   0.00000  Uiso   1.00
H1139  H     0.61765   0.90060   0.50159   0.00000  Uiso   1.00
H1140  H     0.38757   0.80606   0.91203   0.00000  Uiso   1.00
H1141  H     0.41606   0.81720   0.55736   0.00000  Uiso   1.00
H1142  H     0.36209   0.79824   0.50723   0.00000  Uiso   1.00
H1143  H     0.55125   0.96113   0.79328   0.00000  Uiso   1.00
N1144  N     0.38265   0.83332   0.74999   0.00000  Uiso   1.00
N1145  N     0.61735   0.83335   0.75000   0.00000  Uiso   1.00
O1146  O     0.46042   0.89345   0.75001   0.00000  Uiso   1.00
O1147  O     0.44314   0.95793   0.69731   0.00000  Uiso   1.00
O1148  O     0.47897   0.79391   0.58508   0.00000  Uiso   1.00
O1149  O     0.53961   0.89346   0.75001   0.00000  Uiso   1.00
O1150  O     0.44108   0.83332   0.82549   0.00000  Uiso   1.00
O1151  O     0.52027   0.83333   0.82549   0.00000  Uiso   1.00
O1152  O     0.46039   0.77321   0.75000   0.00000  Uiso   1.00
O1153  O     0.53958   0.77322   0.75000   0.00000  Uiso   1.00
O1154  O     0.47973   0.83334   0.67451   0.00000  Uiso   1.00
O1155  O     0.55892   0.83335   0.67451   0.00000  Uiso   1.00
O1156  O     0.55774   0.70834   0.80051   0.00000  Uiso   1.00
C1157  C     0.83336   0.91257   0.74939   0.00000  Uiso   1.00
C1158  C     0.79019   0.83519   0.90781   0.00000  Uiso   1.00
C1159  C     0.86305   0.97808   0.77310   0.00000  Uiso   1.00
C1160  C     0.80692   0.83484   0.85020   0.00000  Uiso   1.00
C1161  C     0.86428   0.68759   0.77307   0.00000  Uiso   1.00
C1162  C     0.83410   0.70939   0.74926   0.00000  Uiso   1.00
C1163  C     0.80500   0.68837   0.72375   0.00000  Uiso   1.00
C1164  C     0.80330   0.97884   0.72456   0.00000  Uiso   1.00
C1165  C     0.83321   0.95715   0.74874   0.00000  Uiso   1.00
C1166  C     0.96587   0.85871   0.78283   0.00000  Uiso   1.00
C1167  C     0.68196   0.85849   0.78319   0.00000  Uiso   1.00
C1168  C     0.81008   0.83747   0.99028   0.00000  Uiso   1.00
C1169  C     0.70079   0.80810   0.71686   0.00000  Uiso   1.00
C1170  C     0.98454   0.80807   0.71700   0.00000  Uiso   1.00
C1171  C     0.83352   0.75406   0.74987   0.00000  Uiso   1.00
C1172  C     0.85959   0.83388   0.64994   0.00000  Uiso   1.00
C1173  C     0.92044   0.88037   0.51918   0.00000  Uiso   1.00
C1174  C     0.87437   0.84045   0.59341   0.00000  Uiso   1.00
C1175  C     0.74514   0.81667   0.93357   0.00000  Uiso   1.00
C1176  C     0.73101   0.81115   0.98737   0.00000  Uiso   1.00
C1177  C     0.76319   0.82090   0.51553   0.00000  Uiso   1.00
C1178  C     0.94167   0.70223   0.77540   0.00000  Uiso   1.00
C1179  C     0.82027   0.84989   0.93740   0.00000  Uiso   1.00
C1180  C     0.72594   0.96193   0.72437   0.00000  Uiso   1.00
C1181  C     0.83760   0.75656   0.56839   0.00000  Uiso   1.00
C1182  C     0.84593   0.84450   0.51646   0.00000  Uiso   1.00
C1183  C     0.88631   0.87059   0.99286   0.00000  Uiso   1.00
C1184  C     0.89134   0.88788   0.94398   0.00000  Uiso   1.00
C1185  C     0.85866   0.87802   0.91661   0.00000  Uiso   1.00
C1186  C     0.84378   0.82609   0.56492   0.00000  Uiso   1.00
C1187  C     0.91371   0.86633   0.56981   0.00000  Uiso   1.00
Cu1188 Cu    0.78645   0.83333   0.75000   0.00000  Uiso   1.00
Cu1189 Cu    0.88022   0.83334   0.75000   0.00000  Uiso   1.00
F1190  F     0.77992   0.70934   0.69614   0.00000  Uiso   1.00
F1191  F     0.69548   0.88354   0.81692   0.00000  Uiso   1.00
F1192  F     0.73330   0.78265   0.68349   0.00000  Uiso   1.00
F1193  F     0.86146   0.89977   0.87267   0.00000  Uiso   1.00
H1194  H     0.93792   0.87711   0.59129   0.00000  Uiso   1.00
H1195  H     0.96250   0.72391   0.79266   0.00000  Uiso   1.00
H1196  H     0.95175   0.70889   0.73270   0.00000  Uiso   1.00
H1197  H     0.95327   0.67052   0.78195   0.00000  Uiso   1.00
H1198  H     0.71767   0.95596   0.76708   0.00000  Uiso   1.00
H1199  H     0.70566   0.93875   0.70857   0.00000  Uiso   1.00
H1200  H     0.71191   0.99278   0.71802   0.00000  Uiso   1.00
H1201  H     0.86916   0.75303   0.58429   0.00000  Uiso   1.00
H1202  H     0.85022   0.75402   0.52490   0.00000  Uiso   1.00
H1203  H     0.81209   0.73073   0.58361   0.00000  Uiso   1.00
H1204  H     0.93993   0.87929   0.80883   0.00000  Uiso   1.00
H1205  H     0.97333   0.78781   0.69061   0.00000  Uiso   1.00
H1206  H     0.92051   0.90953   0.92697   0.00000  Uiso   1.00
H1207  H     0.95098   0.90060   0.50159   0.00000  Uiso   1.00
H1208  H     0.72090   0.80606   0.91203   0.00000  Uiso   1.00
H1209  H     0.74940   0.81720   0.55736   0.00000  Uiso   1.00
H1210  H     0.69542   0.79824   0.50723   0.00000  Uiso   1.00
H1211  H     0.88458   0.96113   0.79328   0.00000  Uiso   1.00
N1212  N     0.71598   0.83332   0.74999   0.00000  Uiso   1.00
N1213  N     0.95069   0.83335   0.75000   0.00000  Uiso   1.00
O1214  O     0.79375   0.89345   0.75001   0.00000  Uiso   1.00
O1215  O     0.77648   0.95793   0.69731   0.00000  Uiso   1.00
O1216  O     0.81230   0.79391   0.58508   0.00000  Uiso   1.00
O1217  O     0.87294   0.89346   0.75001   0.00000  Uiso   1.00
O1218  O     0.77441   0.83332   0.82549   0.00000  Uiso   1.00
O1219  O     0.85360   0.83333   0.82549   0.00000  Uiso   1.00
O1220  O     0.79373   0.77321   0.75000   0.00000  Uiso   1.00
O1221  O     0.87292   0.77322   0.75000   0.00000  Uiso   1.00
O1222  O     0.81306   0.83334   0.67451   0.00000  Uiso   1.00
O1223  O     0.89225   0.83335   0.67451   0.00000  Uiso   1.00
O1224  O     0.89107   0.70834   0.80051   0.00000  Uiso   1.00
loop_
_geom_bond_atom_site_label_1
_geom_bond_atom_site_label_2
_geom_bond_distance
_geom_bond_site_symmetry_2
_ccdc_geom_bond_type
C1     C9      1.447   .     S
C1     O58     1.289   .     A
C1     O61     1.292   .     A
C2     C4      1.472   .     S
C2     C19     1.404   .     A
C2     C23     1.417   .     A
C3     C9      1.397   .     A
C3     H55     1.083   .     S
C3     C209    1.392   .     S
C4     O62     1.294   .     A
C4     O63     1.299   .     A
C5     O68     1.386   .     S
C5     C6      1.408   .     A
C5     C411    1.392   1_545 S
C6     C7      1.403   .     A
C6     C15     1.450   .     S
C7     F34     1.358   .     S
C7     C416    1.393   1_545 S
C8     O59     1.386   .     S
C8     C9      1.407   .     A
C8     C211    1.393   .     S
C10    H48     1.078   .     S
C10    N57     1.367   .     A
C10    C79     1.416   .     S
C11    F35     1.355   .     S
C11    N56     1.367   .     A
C11    C146    1.416   1_455 S
C12    C23     1.418   .     A
C12    C633    1.416   .     S
C12    C638    1.424   .     S
C13    N56     1.370   .     A
C13    F36     1.353   .     S
C13    C150    1.416   1_455 S
C14    H49     1.082   .     S
C14    N57     1.365   .     A
C14    C81     1.416   .     S
C15    O64     1.293   .     A
C15    O65     1.290   .     A
C16    O67     1.295   .     A
C16    O66     1.294   .     A
C16    C18     1.461   .     S
C17    H51     1.084   .     S
C17    C31     1.390   .     A
C17    C639    1.402   1_554 S
C18    C30     1.403   .     A
C18    C31     1.398   .     A
C19    C20     1.387   .     A
C19    H52     1.083   .     S
C20    C633    1.391   .     S
C20    H666    1.083   .     S
C21    H53     1.078   .     S
C21    C632    1.391   1_554 S
C21    C624    1.416   1_554 S
C22    H40     1.114   .     S
C22    O68     1.412   .     S
C22    H39     1.109   .     S
C22    H41     1.111   .     S
C23    C29     1.412   .     A
C24    H42     1.114   .     S
C24    H44     1.110   .     S
C24    O59     1.412   .     S
C24    H43     1.109   .     S
C25    O60     1.409   .     S
C25    H47     1.109   .     S
C25    H45     1.113   .     S
C25    H46     1.114   .     S
C26    C30     1.416   .     A
C26    C624    1.424   1_554 S
C26    C639    1.422   1_554 S
C27    C28     1.394   .     A
C27    C629    1.402   .     S
C27    C638    1.422   .     S
C28    C29     1.388   .     A
C28    H50     1.084   .     S
C29    F37     1.357   .     S
C30    O60     1.383   .     S
C31    H38     1.083   .     S
Cu32   O64     1.962   .     S
Cu32   O66     1.934   .     S
Cu32   O58     1.964   .     S
Cu32   Cu33    2.680   .     S
Cu32   O62     1.947   .     S
Cu32   N56     2.014   .     S
Cu33   O63     1.934   .     S
Cu33   O65     1.964   .     S
Cu33   O61     1.962   .     S
Cu33   N57     2.014   .     S
Cu33   O67     1.947   .     S
H54    C632    1.083   1_554 S
C69    C77     1.447   .     S
C69    O126    1.289   .     A
C69    O129    1.292   .     A
C70    C72     1.472   .     S
C70    C87     1.404   .     A
C70    C91     1.417   .     A
C71    C77     1.397   .     A
C71    H123    1.083   .     S
C71    C277    1.392   .     S
C72    O130    1.294   .     A
C72    O131    1.299   .     A
C73    O136    1.386   .     S
C73    C74     1.408   .     A
C73    C479    1.392   1_545 S
C74    C75     1.403   .     A
C74    C83     1.450   .     S
C75    F102    1.358   .     S
C75    C484    1.393   1_545 S
C76    O127    1.386   .     S
C76    C77     1.407   .     A
C76    C279    1.393   .     S
C78    H116    1.078   .     S
C78    N125    1.367   .     A
C78    C147    1.416   .     S
C79    F103    1.355   .     S
C79    N124    1.367   .     A
C80    C91     1.418   .     A
C80    C701    1.416   .     S
C80    C706    1.424   .     S
C81    N124    1.370   .     A
C81    F104    1.353   .     S
C82    H117    1.082   .     S
C82    N125    1.365   .     A
C82    C149    1.416   .     S
C83    O132    1.293   .     A
C83    O133    1.290   .     A
C84    O135    1.295   .     A
C84    O134    1.294   .     A
C84    C86     1.461   .     S
C85    H119    1.084   .     S
C85    C99     1.390   .     A
C85    C707    1.402   1_554 S
C86    C98     1.403   .     A
C86    C99     1.398   .     A
C87    C88     1.387   .     A
C87    H120    1.083   .     S
C88    C701    1.391   .     S
C88    H734    1.083   .     S
C89    H121    1.078   .     S
C89    C700    1.391   1_554 S
C89    C692    1.416   1_554 S
C90    H108    1.114   .     S
C90    O136    1.412   .     S
C90    H107    1.109   .     S
C90    H109    1.111   .     S
C91    C97     1.412   .     A
C92    H110    1.114   .     S
C92    H112    1.110   .     S
C92    O127    1.412   .     S
C92    H111    1.109   .     S
C93    O128    1.409   .     S
C93    H115    1.109   .     S
C93    H113    1.113   .     S
C93    H114    1.114   .     S
C94    C98     1.416   .     A
C94    C692    1.424   1_554 S
C94    C707    1.422   1_554 S
C95    C96     1.394   .     A
C95    C697    1.402   .     S
C95    C706    1.422   .     S
C96    C97     1.388   .     A
C96    H118    1.084   .     S
C97    F105    1.357   .     S
C98    O128    1.383   .     S
C99    H106    1.083   .     S
Cu100  O132    1.962   .     S
Cu100  O134    1.934   .     S
Cu100  O126    1.964   .     S
Cu100  Cu101   2.680   .     S
Cu100  O130    1.947   .     S
Cu100  N124    2.014   .     S
Cu101  O131    1.934   .     S
Cu101  O133    1.964   .     S
Cu101  O129    1.962   .     S
Cu101  N125    2.014   .     S
Cu101  O135    1.947   .     S
H122   C700    1.083   1_554 S
C137   C145    1.447   .     S
C137   O194    1.289   .     A
C137   O197    1.292   .     A
C138   C140    1.472   .     S
C138   C155    1.404   .     A
C138   C159    1.417   .     A
C139   C145    1.397   .     A
C139   H191    1.083   .     S
C139   C345    1.392   .     S
C140   O198    1.294   .     A
C140   O199    1.299   .     A
C141   O204    1.386   .     S
C141   C142    1.408   .     A
C141   C547    1.392   1_545 S
C142   C143    1.403   .     A
C142   C151    1.450   .     S
C143   F170    1.358   .     S
C143   C552    1.393   1_545 S
C144   O195    1.386   .     S
C144   C145    1.407   .     A
C144   C347    1.393   .     S
C146   H184    1.078   .     S
C146   N193    1.367   .     A
C146   C11     1.416   1_655 S
C147   F171    1.355   .     S
C147   N192    1.367   .     A
C148   C159    1.418   .     A
C148   C769    1.416   .     S
C148   C774    1.424   .     S
C149   N192    1.370   .     A
C149   F172    1.353   .     S
C150   H185    1.082   .     S
C150   N193    1.365   .     A
C150   C13     1.416   1_655 S
C151   O200    1.293   .     A
C151   O201    1.290   .     A
C152   O203    1.295   .     A
C152   O202    1.294   .     A
C152   C154    1.461   .     S
C153   H187    1.084   .     S
C153   C167    1.390   .     A
C153   C775    1.402   1_554 S
C154   C166    1.403   .     A
C154   C167    1.398   .     A
C155   C156    1.387   .     A
C155   H188    1.083   .     S
C156   C769    1.391   .     S
C156   H802    1.083   .     S
C157   H189    1.078   .     S
C157   C768    1.391   1_554 S
C157   C760    1.416   1_554 S
C158   H176    1.114   .     S
C158   O204    1.412   .     S
C158   H175    1.109   .     S
C158   H177    1.111   .     S
C159   C165    1.412   .     A
C160   H178    1.114   .     S
C160   H180    1.110   .     S
C160   O195    1.412   .     S
C160   H179    1.109   .     S
C161   O196    1.409   .     S
C161   H183    1.109   .     S
C161   H181    1.113   .     S
C161   H182    1.114   .     S
C162   C166    1.416   .     A
C162   C760    1.424   1_554 S
C162   C775    1.422   1_554 S
C163   C164    1.394   .     A
C163   C765    1.402   .     S
C163   C774    1.422   .     S
C164   C165    1.388   .     A
C164   H186    1.084   .     S
C165   F173    1.357   .     S
C166   O196    1.383   .     S
C167   H174    1.083   .     S
Cu168  O200    1.962   .     S
Cu168  O202    1.934   .     S
Cu168  O194    1.964   .     S
Cu168  Cu169   2.680   .     S
Cu168  O198    1.947   .     S
Cu168  N192    2.014   .     S
Cu169  O199    1.934   .     S
Cu169  O201    1.964   .     S
Cu169  O197    1.962   .     S
Cu169  N193    2.014   .     S
Cu169  O203    1.947   .     S
H190   C768    1.083   1_554 S
C205   C213    1.447   .     S
C205   O262    1.289   .     A
C205   O265    1.292   .     A
C206   C208    1.472   .     S
C206   C223    1.404   .     A
C206   C227    1.417   .     A
C207   C213    1.397   .     A
C207   H259    1.083   .     S
C207   C413    1.392   .     S
C208   O266    1.294   .     A
C208   O267    1.299   .     A
C209   O272    1.386   .     S
C209   C210    1.408   .     A
C210   C211    1.403   .     A
C210   C219    1.450   .     S
C211   F238    1.358   .     S
C212   O263    1.386   .     S
C212   C213    1.407   .     A
C212   C415    1.393   .     S
C214   H252    1.078   .     S
C214   N261    1.367   .     A
C214   C283    1.416   .     S
C215   F239    1.355   .     S
C215   N260    1.367   .     A
C215   C350    1.416   1_455 S
C216   C227    1.418   .     A
C216   C837    1.416   .     S
C216   C842    1.424   .     S
C217   N260    1.370   .     A
C217   F240    1.353   .     S
C217   C354    1.416   1_455 S
C218   H253    1.082   .     S
C218   N261    1.365   .     A
C218   C285    1.416   .     S
C219   O268    1.293   .     A
C219   O269    1.290   .     A
C220   O271    1.295   .     A
C220   O270    1.294   .     A
C220   C222    1.461   .     S
C221   H255    1.084   .     S
C221   C235    1.390   .     A
C221   C843    1.402   1_554 S
C222   C234    1.403   .     A
C222   C235    1.398   .     A
C223   C224    1.387   .     A
C223   H256    1.083   .     S
C224   C837    1.391   .     S
C224   H870    1.083   .     S
C225   H257    1.078   .     S
C225   C836    1.391   1_554 S
C225   C828    1.416   1_554 S
C226   H244    1.114   .     S
C226   O272    1.412   .     S
C226   H243    1.109   .     S
C226   H245    1.111   .     S
C227   C233    1.412   .     A
C228   H246    1.114   .     S
C228   H248    1.110   .     S
C228   O263    1.412   .     S
C228   H247    1.109   .     S
C229   O264    1.409   .     S
C229   H251    1.109   .     S
C229   H249    1.113   .     S
C229   H250    1.114   .     S
C230   C234    1.416   .     A
C230   C828    1.424   1_554 S
C230   C843    1.422   1_554 S
C231   C232    1.394   .     A
C231   C833    1.402   .     S
C231   C842    1.422   .     S
C232   C233    1.388   .     A
C232   H254    1.084   .     S
C233   F241    1.357   .     S
C234   O264    1.383   .     S
C235   H242    1.083   .     S
Cu236  O268    1.962   .     S
Cu236  O270    1.934   .     S
Cu236  O262    1.964   .     S
Cu236  Cu237   2.680   .     S
Cu236  O266    1.947   .     S
Cu236  N260    2.014   .     S
Cu237  O267    1.934   .     S
Cu237  O269    1.964   .     S
Cu237  O265    1.962   .     S
Cu237  N261    2.014   .     S
Cu237  O271    1.947   .     S
H258   C836    1.083   1_554 S
C273   C281    1.447   .     S
C273   O330    1.289   .     A
C273   O333    1.292   .     A
C274   C276    1.472   .     S
C274   C291    1.404   .     A
C274   C295    1.417   .     A
C275   C281    1.397   .     A
C275   H327    1.083   .     S
C275   C481    1.392   .     S
C276   O334    1.294   .     A
C276   O335    1.299   .     A
C277   O340    1.386   .     S
C277   C278    1.408   .     A
C278   C279    1.403   .     A
C278   C287    1.450   .     S
C279   F306    1.358   .     S
C280   O331    1.386   .     S
C280   C281    1.407   .     A
C280   C483    1.393   .     S
C282   H320    1.078   .     S
C282   N329    1.367   .     A
C282   C351    1.416   .     S
C283   F307    1.355   .     S
C283   N328    1.367   .     A
C284   C295    1.418   .     A
C284   C905    1.416   .     S
C284   C910    1.424   .     S
C285   N328    1.370   .     A
C285   F308    1.353   .     S
C286   H321    1.082   .     S
C286   N329    1.365   .     A
C286   C353    1.416   .     S
C287   O336    1.293   .     A
C287   O337    1.290   .     A
C288   O339    1.295   .     A
C288   O338    1.294   .     A
C288   C290    1.461   .     S
C289   H323    1.084   .     S
C289   C303    1.390   .     A
C289   C911    1.402   1_554 S
C290   C302    1.403   .     A
C290   C303    1.398   .     A
C291   C292    1.387   .     A
C291   H324    1.083   .     S
C292   C905    1.391   .     S
C292   H938    1.083   .     S
C293   H325    1.078   .     S
C293   C904    1.391   1_554 S
C293   C896    1.416   1_554 S
C294   H312    1.114   .     S
C294   O340    1.412   .     S
C294   H311    1.109   .     S
C294   H313    1.111   .     S
C295   C301    1.412   .     A
C296   H314    1.114   .     S
C296   H316    1.110   .     S
C296   O331    1.412   .     S
C296   H315    1.109   .     S
C297   O332    1.409   .     S
C297   H319    1.109   .     S
C297   H317    1.113   .     S
C297   H318    1.114   .     S
C298   C302    1.416   .     A
C298   C896    1.424   1_554 S
C298   C911    1.422   1_554 S
C299   C300    1.394   .     A
C299   C901    1.402   .     S
C299   C910    1.422   .     S
C300   C301    1.388   .     A
C300   H322    1.084   .     S
C301   F309    1.357   .     S
C302   O332    1.383   .     S
C303   H310    1.083   .     S
Cu304  O336    1.962   .     S
Cu304  O338    1.934   .     S
Cu304  O330    1.964   .     S
Cu304  Cu305   2.680   .     S
Cu304  O334    1.947   .     S
Cu304  N328    2.014   .     S
Cu305  O335    1.934   .     S
Cu305  O337    1.964   .     S
Cu305  O333    1.962   .     S
Cu305  N329    2.014   .     S
Cu305  O339    1.947   .     S
H326   C904    1.083   1_554 S
C341   C349    1.447   .     S
C341   O398    1.289   .     A
C341   O401    1.292   .     A
C342   C344    1.472   .     S
C342   C359    1.404   .     A
C342   C363    1.417   .     A
C343   C349    1.397   .     A
C343   H395    1.083   .     S
C343   C549    1.392   .     S
C344   O402    1.294   .     A
C344   O403    1.299   .     A
C345   O408    1.386   .     S
C345   C346    1.408   .     A
C346   C347    1.403   .     A
C346   C355    1.450   .     S
C347   F374    1.358   .     S
C348   O399    1.386   .     S
C348   C349    1.407   .     A
C348   C551    1.393   .     S
C350   H388    1.078   .     S
C350   N397    1.367   .     A
C350   C215    1.416   1_655 S
C351   F375    1.355   .     S
C351   N396    1.367   .     A
C352   C363    1.418   .     A
C352   C973    1.416   .     S
C352   C978    1.424   .     S
C353   N396    1.370   .     A
C353   F376    1.353   .     S
C354   H389    1.082   .     S
C354   N397    1.365   .     A
C354   C217    1.416   1_655 S
C355   O404    1.293   .     A
C355   O405    1.290   .     A
C356   O407    1.295   .     A
C356   O406    1.294   .     A
C356   C358    1.461   .     S
C357   H391    1.084   .     S
C357   C371    1.390   .     A
C357   C979    1.402   1_554 S
C358   C370    1.403   .     A
C358   C371    1.398   .     A
C359   C360    1.387   .     A
C359   H392    1.083   .     S
C360   C973    1.391   .     S
C360   H1006   1.083   .     S
C361   H393    1.078   .     S
C361   C972    1.391   1_554 S
C361   C964    1.416   1_554 S
C362   H380    1.114   .     S
C362   O408    1.412   .     S
C362   H379    1.109   .     S
C362   H381    1.111   .     S
C363   C369    1.412   .     A
C364   H382    1.114   .     S
C364   H384    1.110   .     S
C364   O399    1.412   .     S
C364   H383    1.109   .     S
C365   O400    1.409   .     S
C365   H387    1.109   .     S
C365   H385    1.113   .     S
C365   H386    1.114   .     S
C366   C370    1.416   .     A
C366   C964    1.424   1_554 S
C366   C979    1.422   1_554 S
C367   C368    1.394   .     A
C367   C969    1.402   .     S
C367   C978    1.422   .     S
C368   C369    1.388   .     A
C368   H390    1.084   .     S
C369   F377    1.357   .     S
C370   O400    1.383   .     S
C371   H378    1.083   .     S
Cu372  O404    1.962   .     S
Cu372  O406    1.934   .     S
Cu372  O398    1.964   .     S
Cu372  Cu373   2.680   .     S
Cu372  O402    1.947   .     S
Cu372  N396    2.014   .     S
Cu373  O403    1.934   .     S
Cu373  O405    1.964   .     S
Cu373  O401    1.962   .     S
Cu373  N397    2.014   .     S
Cu373  O407    1.947   .     S
H394   C972    1.083   1_554 S
C409   C417    1.447   .     S
C409   O466    1.289   .     A
C409   O469    1.292   .     A
C410   C412    1.472   .     S
C410   C427    1.404   .     A
C410   C431    1.417   .     A
C411   C417    1.397   .     A
C411   H463    1.083   .     S
C411   C5      1.392   1_565 S
C412   O470    1.294   .     A
C412   O471    1.299   .     A
C413   O476    1.386   .     S
C413   C414    1.408   .     A
C414   C415    1.403   .     A
C414   C423    1.450   .     S
C415   F442    1.358   .     S
C416   O467    1.386   .     S
C416   C417    1.407   .     A
C416   C7      1.393   1_565 S
C418   H456    1.078   .     S
C418   N465    1.367   .     A
C418   C487    1.416   .     S
C419   F443    1.355   .     S
C419   N464    1.367   .     A
C419   C554    1.416   1_455 S
C420   C431    1.418   .     A
C420   C1041   1.416   .     S
C420   C1046   1.424   .     S
C421   N464    1.370   .     A
C421   F444    1.353   .     S
C421   C558    1.416   1_455 S
C422   H457    1.082   .     S
C422   N465    1.365   .     A
C422   C489    1.416   .     S
C423   O472    1.293   .     A
C423   O473    1.290   .     A
C424   O475    1.295   .     A
C424   O474    1.294   .     A
C424   C426    1.461   .     S
C425   H459    1.084   .     S
C425   C439    1.390   .     A
C425   C1047   1.402   1_554 S
C426   C438    1.403   .     A
C426   C439    1.398   .     A
C427   C428    1.387   .     A
C427   H460    1.083   .     S
C428   C1041   1.391   .     S
C428   H1074   1.083   .     S
C429   H461    1.078   .     S
C429   C1040   1.391   1_554 S
C429   C1032   1.416   1_554 S
C430   H448    1.114   .     S
C430   O476    1.412   .     S
C430   H447    1.109   .     S
C430   H449    1.111   .     S
C431   C437    1.412   .     A
C432   H450    1.114   .     S
C432   H452    1.110   .     S
C432   O467    1.412   .     S
C432   H451    1.109   .     S
C433   O468    1.409   .     S
C433   H455    1.109   .     S
C433   H453    1.113   .     S
C433   H454    1.114   .     S
C434   C438    1.416   .     A
C434   C1032   1.424   1_554 S
C434   C1047   1.422   1_554 S
C435   C436    1.394   .     A
C435   C1037   1.402   .     S
C435   C1046   1.422   .     S
C436   C437    1.388   .     A
C436   H458    1.084   .     S
C437   F445    1.357   .     S
C438   O468    1.383   .     S
C439   H446    1.083   .     S
Cu440  O472    1.962   .     S
Cu440  O474    1.934   .     S
Cu440  O466    1.964   .     S
Cu440  Cu441   2.680   .     S
Cu440  O470    1.947   .     S
Cu440  N464    2.014   .     S
Cu441  O471    1.934   .     S
Cu441  O473    1.964   .     S
Cu441  O469    1.962   .     S
Cu441  N465    2.014   .     S
Cu441  O475    1.947   .     S
H462   C1040   1.083   1_554 S
C477   C485    1.447   .     S
C477   O534    1.289   .     A
C477   O537    1.292   .     A
C478   C480    1.472   .     S
C478   C495    1.404   .     A
C478   C499    1.417   .     A
C479   C485    1.397   .     A
C479   H531    1.083   .     S
C479   C73     1.392   1_565 S
C480   O538    1.294   .     A
C480   O539    1.299   .     A
C481   O544    1.386   .     S
C481   C482    1.408   .     A
C482   C483    1.403   .     A
C482   C491    1.450   .     S
C483   F510    1.358   .     S
C484   O535    1.386   .     S
C484   C485    1.407   .     A
C484   C75     1.393   1_565 S
C486   H524    1.078   .     S
C486   N533    1.367   .     A
C486   C555    1.416   .     S
C487   F511    1.355   .     S
C487   N532    1.367   .     A
C488   C499    1.418   .     A
C488   C1109   1.416   .     S
C488   C1114   1.424   .     S
C489   N532    1.370   .     A
C489   F512    1.353   .     S
C490   H525    1.082   .     S
C490   N533    1.365   .     A
C490   C557    1.416   .     S
C491   O540    1.293   .     A
C491   O541    1.290   .     A
C492   O543    1.295   .     A
C492   O542    1.294   .     A
C492   C494    1.461   .     S
C493   H527    1.084   .     S
C493   C507    1.390   .     A
C493   C1115   1.402   1_554 S
C494   C506    1.403   .     A
C494   C507    1.398   .     A
C495   C496    1.387   .     A
C495   H528    1.083   .     S
C496   C1109   1.391   .     S
C496   H1142   1.083   .     S
C497   H529    1.078   .     S
C497   C1108   1.391   1_554 S
C497   C1100   1.416   1_554 S
C498   H516    1.114   .     S
C498   O544    1.412   .     S
C498   H515    1.109   .     S
C498   H517    1.111   .     S
C499   C505    1.412   .     A
C500   H518    1.114   .     S
C500   H520    1.110   .     S
C500   O535    1.412   .     S
C500   H519    1.109   .     S
C501   O536    1.409   .     S
C501   H523    1.109   .     S
C501   H521    1.113   .     S
C501   H522    1.114   .     S
C502   C506    1.416   .     A
C502   C1100   1.424   1_554 S
C502   C1115   1.422   1_554 S
C503   C504    1.394   .     A
C503   C1105   1.402   .     S
C503   C1114   1.422   .     S
C504   C505    1.388   .     A
C504   H526    1.084   .     S
C505   F513    1.357   .     S
C506   O536    1.383   .     S
C507   H514    1.083   .     S
Cu508  O540    1.962   .     S
Cu508  O542    1.934   .     S
Cu508  O534    1.964   .     S
Cu508  Cu509   2.680   .     S
Cu508  O538    1.947   .     S
Cu508  N532    2.014   .     S
Cu509  O539    1.934   .     S
Cu509  O541    1.964   .     S
Cu509  O537    1.962   .     S
Cu509  N533    2.014   .     S
Cu509  O543    1.947   .     S
H530   C1108   1.083   1_554 S
C545   C553    1.447   .     S
C545   O602    1.289   .     A
C545   O605    1.292   .     A
C546   C548    1.472   .     S
C546   C563    1.404   .     A
C546   C567    1.417   .     A
C547   C553    1.397   .     A
C547   H599    1.083   .     S
C547   C141    1.392   1_565 S
C548   O606    1.294   .     A
C548   O607    1.299   .     A
C549   O612    1.386   .     S
C549   C550    1.408   .     A
C550   C551    1.403   .     A
C550   C559    1.450   .     S
C551   F578    1.358   .     S
C552   O603    1.386   .     S
C552   C553    1.407   .     A
C552   C143    1.393   1_565 S
C554   H592    1.078   .     S
C554   N601    1.367   .     A
C554   C419    1.416   1_655 S
C555   F579    1.355   .     S
C555   N600    1.367   .     A
C556   C567    1.418   .     A
C556   C1177   1.416   .     S
C556   C1182   1.424   .     S
C557   N600    1.370   .     A
C557   F580    1.353   .     S
C558   H593    1.082   .     S
C558   N601    1.365   .     A
C558   C421    1.416   1_655 S
C559   O608    1.293   .     A
C559   O609    1.290   .     A
C560   O611    1.295   .     A
C560   O610    1.294   .     A
C560   C562    1.461   .     S
C561   H595    1.084   .     S
C561   C575    1.390   .     A
C561   C1183   1.402   1_554 S
C562   C574    1.403   .     A
C562   C575    1.398   .     A
C563   C564    1.387   .     A
C563   H596    1.083   .     S
C564   C1177   1.391   .     S
C564   H1210   1.083   .     S
C565   H597    1.078   .     S
C565   C1176   1.391   1_554 S
C565   C1168   1.416   1_554 S
C566   H584    1.114   .     S
C566   O612    1.412   .     S
C566   H583    1.109   .     S
C566   H585    1.111   .     S
C567   C573    1.412   .     A
C568   H586    1.114   .     S
C568   H588    1.110   .     S
C568   O603    1.412   .     S
C568   H587    1.109   .     S
C569   O604    1.409   .     S
C569   H591    1.109   .     S
C569   H589    1.113   .     S
C569   H590    1.114   .     S
C570   C574    1.416   .     A
C570   C1168   1.424   1_554 S
C570   C1183   1.422   1_554 S
C571   C572    1.394   .     A
C571   C1173   1.402   .     S
C571   C1182   1.422   .     S
C572   C573    1.388   .     A
C572   H594    1.084   .     S
C573   F581    1.357   .     S
C574   O604    1.383   .     S
C575   H582    1.083   .     S
Cu576  O608    1.962   .     S
Cu576  O610    1.934   .     S
Cu576  O602    1.964   .     S
Cu576  Cu577   2.680   .     S
Cu576  O606    1.947   .     S
Cu576  N600    2.014   .     S
Cu577  O607    1.934   .     S
Cu577  O609    1.964   .     S
Cu577  O605    1.962   .     S
Cu577  N601    2.014   .     S
Cu577  O611    1.947   .     S
H598   C1176   1.083   1_554 S
C613   C621    1.447   .     S
C613   O670    1.289   .     A
C613   O673    1.292   .     A
C614   C616    1.472   .     S
C614   C631    1.404   .     A
C614   C635    1.417   .     A
C615   C621    1.397   .     A
C615   H667    1.083   .     S
C615   C821    1.392   .     S
C616   O674    1.294   .     A
C616   O675    1.299   .     A
C617   O680    1.386   .     S
C617   C618    1.408   .     A
C617   C1023   1.392   1_545 S
C618   C619    1.403   .     A
C618   C627    1.450   .     S
C619   F646    1.358   .     S
C619   C1028   1.393   1_545 S
C620   O671    1.386   .     S
C620   C621    1.407   .     A
C620   C823    1.393   .     S
C622   H660    1.078   .     S
C622   N669    1.367   .     A
C622   C691    1.416   .     S
C623   F647    1.355   .     S
C623   N668    1.367   .     A
C623   C758    1.416   1_455 S
C624   C635    1.418   .     A
C624   C21     1.416   1_556 S
C624   C26     1.424   1_556 S
C625   N668    1.370   .     A
C625   F648    1.353   .     S
C625   C762    1.416   1_455 S
C626   H661    1.082   .     S
C626   N669    1.365   .     A
C626   C693    1.416   .     S
C627   O676    1.293   .     A
C627   O677    1.290   .     A
C628   O679    1.295   .     A
C628   O678    1.294   .     A
C628   C630    1.461   .     S
C629   H663    1.084   .     S
C629   C643    1.390   .     A
C630   C642    1.403   .     A
C630   C643    1.398   .     A
C631   C632    1.387   .     A
C631   H664    1.083   .     S
C632   C21     1.391   1_556 S
C632   H54     1.083   1_556 S
C633   H665    1.078   .     S
C634   H652    1.114   .     S
C634   O680    1.412   .     S
C634   H651    1.109   .     S
C634   H653    1.111   .     S
C635   C641    1.412   .     A
C636   H654    1.114   .     S
C636   H656    1.110   .     S
C636   O671    1.412   .     S
C636   H655    1.109   .     S
C637   O672    1.409   .     S
C637   H659    1.109   .     S
C637   H657    1.113   .     S
C637   H658    1.114   .     S
C638   C642    1.416   .     A
C639   C640    1.394   .     A
C639   C17     1.402   1_556 S
C639   C26     1.422   1_556 S
C640   C641    1.388   .     A
C640   H662    1.084   .     S
C641   F649    1.357   .     S
C642   O672    1.383   .     S
C643   H650    1.083   .     S
Cu644  O676    1.962   .     S
Cu644  O678    1.934   .     S
Cu644  O670    1.964   .     S
Cu644  Cu645   2.680   .     S
Cu644  O674    1.947   .     S
Cu644  N668    2.014   .     S
Cu645  O675    1.934   .     S
Cu645  O677    1.964   .     S
Cu645  O673    1.962   .     S
Cu645  N669    2.014   .     S
Cu645  O679    1.947   .     S
C681   C689    1.447   .     S
C681   O738    1.289   .     A
C681   O741    1.292   .     A
C682   C684    1.472   .     S
C682   C699    1.404   .     A
C682   C703    1.417   .     A
C683   C689    1.397   .     A
C683   H735    1.083   .     S
C683   C889    1.392   .     S
C684   O742    1.294   .     A
C684   O743    1.299   .     A
C685   O748    1.386   .     S
C685   C686    1.408   .     A
C685   C1091   1.392   1_545 S
C686   C687    1.403   .     A
C686   C695    1.450   .     S
C687   F714    1.358   .     S
C687   C1096   1.393   1_545 S
C688   O739    1.386   .     S
C688   C689    1.407   .     A
C688   C891    1.393   .     S
C690   H728    1.078   .     S
C690   N737    1.367   .     A
C690   C759    1.416   .     S
C691   F715    1.355   .     S
C691   N736    1.367   .     A
C692   C703    1.418   .     A
C692   C89     1.416   1_556 S
C692   C94     1.424   1_556 S
C693   N736    1.370   .     A
C693   F716    1.353   .     S
C694   H729    1.082   .     S
C694   N737    1.365   .     A
C694   C761    1.416   .     S
C695   O744    1.293   .     A
C695   O745    1.290   .     A
C696   O747    1.295   .     A
C696   O746    1.294   .     A
C696   C698    1.461   .     S
C697   H731    1.084   .     S
C697   C711    1.390   .     A
C698   C710    1.403   .     A
C698   C711    1.398   .     A
C699   C700    1.387   .     A
C699   H732    1.083   .     S
C700   C89     1.391   1_556 S
C700   H122    1.083   1_556 S
C701   H733    1.078   .     S
C702   H720    1.114   .     S
C702   O748    1.412   .     S
C702   H719    1.109   .     S
C702   H721    1.111   .     S
C703   C709    1.412   .     A
C704   H722    1.114   .     S
C704   H724    1.110   .     S
C704   O739    1.412   .     S
C704   H723    1.109   .     S
C705   O740    1.409   .     S
C705   H727    1.109   .     S
C705   H725    1.113   .     S
C705   H726    1.114   .     S
C706   C710    1.416   .     A
C707   C708    1.394   .     A
C707   C85     1.402   1_556 S
C707   C94     1.422   1_556 S
C708   C709    1.388   .     A
C708   H730    1.084   .     S
C709   F717    1.357   .     S
C710   O740    1.383   .     S
C711   H718    1.083   .     S
Cu712  O744    1.962   .     S
Cu712  O746    1.934   .     S
Cu712  O738    1.964   .     S
Cu712  Cu713   2.680   .     S
Cu712  O742    1.947   .     S
Cu712  N736    2.014   .     S
Cu713  O743    1.934   .     S
Cu713  O745    1.964   .     S
Cu713  O741    1.962   .     S
Cu713  N737    2.014   .     S
Cu713  O747    1.947   .     S
C749   C757    1.447   .     S
C749   O806    1.289   .     A
C749   O809    1.292   .     A
C750   C752    1.472   .     S
C750   C767    1.404   .     A
C750   C771    1.417   .     A
C751   C757    1.397   .     A
C751   H803    1.083   .     S
C751   C957    1.392   .     S
C752   O810    1.294   .     A
C752   O811    1.299   .     A
C753   O816    1.386   .     S
C753   C754    1.408   .     A
C753   C1159   1.392   1_545 S
C754   C755    1.403   .     A
C754   C763    1.450   .     S
C755   F782    1.358   .     S
C755   C1164   1.393   1_545 S
C756   O807    1.386   .     S
C756   C757    1.407   .     A
C756   C959    1.393   .     S
C758   H796    1.078   .     S
C758   N805    1.367   .     A
C758   C623    1.416   1_655 S
C759   F783    1.355   .     S
C759   N804    1.367   .     A
C760   C771    1.418   .     A
C760   C157    1.416   1_556 S
C760   C162    1.424   1_556 S
C761   N804    1.370   .     A
C761   F784    1.353   .     S
C762   H797    1.082   .     S
C762   N805    1.365   .     A
C762   C625    1.416   1_655 S
C763   O812    1.293   .     A
C763   O813    1.290   .     A
C764   O815    1.295   .     A
C764   O814    1.294   .     A
C764   C766    1.461   .     S
C765   H799    1.084   .     S
C765   C779    1.390   .     A
C766   C778    1.403   .     A
C766   C779    1.398   .     A
C767   C768    1.387   .     A
C767   H800    1.083   .     S
C768   C157    1.391   1_556 S
C768   H190    1.083   1_556 S
C769   H801    1.078   .     S
C770   H788    1.114   .     S
C770   O816    1.412   .     S
C770   H787    1.109   .     S
C770   H789    1.111   .     S
C771   C777    1.412   .     A
C772   H790    1.114   .     S
C772   H792    1.110   .     S
C772   O807    1.412   .     S
C772   H791    1.109   .     S
C773   O808    1.409   .     S
C773   H795    1.109   .     S
C773   H793    1.113   .     S
C773   H794    1.114   .     S
C774   C778    1.416   .     A
C775   C776    1.394   .     A
C775   C153    1.402   1_556 S
C775   C162    1.422   1_556 S
C776   C777    1.388   .     A
C776   H798    1.084   .     S
C777   F785    1.357   .     S
C778   O808    1.383   .     S
C779   H786    1.083   .     S
Cu780  O812    1.962   .     S
Cu780  O814    1.934   .     S
Cu780  O806    1.964   .     S
Cu780  Cu781   2.680   .     S
Cu780  O810    1.947   .     S
Cu780  N804    2.014   .     S
Cu781  O811    1.934   .     S
Cu781  O813    1.964   .     S
Cu781  O809    1.962   .     S
Cu781  N805    2.014   .     S
Cu781  O815    1.947   .     S
C817   C825    1.447   .     S
C817   O874    1.289   .     A
C817   O877    1.292   .     A
C818   C820    1.472   .     S
C818   C835    1.404   .     A
C818   C839    1.417   .     A
C819   C825    1.397   .     A
C819   H871    1.083   .     S
C819   C1025   1.392   .     S
C820   O878    1.294   .     A
C820   O879    1.299   .     A
C821   O884    1.386   .     S
C821   C822    1.408   .     A
C822   C823    1.403   .     A
C822   C831    1.450   .     S
C823   F850    1.358   .     S
C824   O875    1.386   .     S
C824   C825    1.407   .     A
C824   C1027   1.393   .     S
C826   H864    1.078   .     S
C826   N873    1.367   .     A
C826   C895    1.416   .     S
C827   F851    1.355   .     S
C827   N872    1.367   .     A
C827   C962    1.416   1_455 S
C828   C839    1.418   .     A
C828   C225    1.416   1_556 S
C828   C230    1.424   1_556 S
C829   N872    1.370   .     A
C829   F852    1.353   .     S
C829   C966    1.416   1_455 S
C830   H865    1.082   .     S
C830   N873    1.365   .     A
C830   C897    1.416   .     S
C831   O880    1.293   .     A
C831   O881    1.290   .     A
C832   O883    1.295   .     A
C832   O882    1.294   .     A
C832   C834    1.461   .     S
C833   H867    1.084   .     S
C833   C847    1.390   .     A
C834   C846    1.403   .     A
C834   C847    1.398   .     A
C835   C836    1.387   .     A
C835   H868    1.083   .     S
C836   C225    1.391   1_556 S
C836   H258    1.083   1_556 S
C837   H869    1.078   .     S
C838   H856    1.114   .     S
C838   O884    1.412   .     S
C838   H855    1.109   .     S
C838   H857    1.111   .     S
C839   C845    1.412   .     A
C840   H858    1.114   .     S
C840   H860    1.110   .     S
C840   O875    1.412   .     S
C840   H859    1.109   .     S
C841   O876    1.409   .     S
C841   H863    1.109   .     S
C841   H861    1.113   .     S
C841   H862    1.114   .     S
C842   C846    1.416   .     A
C843   C844    1.394   .     A
C843   C221    1.402   1_556 S
C843   C230    1.422   1_556 S
C844   C845    1.388   .     A
C844   H866    1.084   .     S
C845   F853    1.357   .     S
C846   O876    1.383   .     S
C847   H854    1.083   .     S
Cu848  O880    1.962   .     S
Cu848  O882    1.934   .     S
Cu848  O874    1.964   .     S
Cu848  Cu849   2.680   .     S
Cu848  O878    1.947   .     S
Cu848  N872    2.014   .     S
Cu849  O879    1.934   .     S
Cu849  O881    1.964   .     S
Cu849  O877    1.962   .     S
Cu849  N873    2.014   .     S
Cu849  O883    1.947   .     S
C885   C893    1.447   .     S
C885   O942    1.289   .     A
C885   O945    1.292   .     A
C886   C888    1.472   .     S
C886   C903    1.404   .     A
C886   C907    1.417   .     A
C887   C893    1.397   .     A
C887   H939    1.083   .     S
C887   C1093   1.392   .     S
C888   O946    1.294   .     A
C888   O947    1.299   .     A
C889   O952    1.386   .     S
C889   C890    1.408   .     A
C890   C891    1.403   .     A
C890   C899    1.450   .     S
C891   F918    1.358   .     S
C892   O943    1.386   .     S
C892   C893    1.407   .     A
C892   C1095   1.393   .     S
C894   H932    1.078   .     S
C894   N941    1.367   .     A
C894   C963    1.416   .     S
C895   F919    1.355   .     S
C895   N940    1.367   .     A
C896   C907    1.418   .     A
C896   C293    1.416   1_556 S
C896   C298    1.424   1_556 S
C897   N940    1.370   .     A
C897   F920    1.353   .     S
C898   H933    1.082   .     S
C898   N941    1.365   .     A
C898   C965    1.416   .     S
C899   O948    1.293   .     A
C899   O949    1.290   .     A
C900   O951    1.295   .     A
C900   O950    1.294   .     A
C900   C902    1.461   .     S
C901   H935    1.084   .     S
C901   C915    1.390   .     A
C902   C914    1.403   .     A
C902   C915    1.398   .     A
C903   C904    1.387   .     A
C903   H936    1.083   .     S
C904   C293    1.391   1_556 S
C904   H326    1.083   1_556 S
C905   H937    1.078   .     S
C906   H924    1.114   .     S
C906   O952    1.412   .     S
C906   H923    1.109   .     S
C906   H925    1.111   .     S
C907   C913    1.412   .     A
C908   H926    1.114   .     S
C908   H928    1.110   .     S
C908   O943    1.412   .     S
C908   H927    1.109   .     S
C909   O944    1.409   .     S
C909   H931    1.109   .     S
C909   H929    1.113   .     S
C909   H930    1.114   .     S
C910   C914    1.416   .     A
C911   C912    1.394   .     A
C911   C289    1.402   1_556 S
C911   C298    1.422   1_556 S
C912   C913    1.388   .     A
C912   H934    1.084   .     S
C913   F921    1.357   .     S
C914   O944    1.383   .     S
C915   H922    1.083   .     S
Cu916  O948    1.962   .     S
Cu916  O950    1.934   .     S
Cu916  O942    1.964   .     S
Cu916  Cu917   2.680   .     S
Cu916  O946    1.947   .     S
Cu916  N940    2.014   .     S
Cu917  O947    1.934   .     S
Cu917  O949    1.964   .     S
Cu917  O945    1.962   .     S
Cu917  N941    2.014   .     S
Cu917  O951    1.947   .     S
C953   C961    1.447   .     S
C953   O1010   1.289   .     A
C953   O1013   1.292   .     A
C954   C956    1.472   .     S
C954   C971    1.404   .     A
C954   C975    1.417   .     A
C955   C961    1.397   .     A
C955   H1007   1.083   .     S
C955   C1161   1.392   .     S
C956   O1014   1.294   .     A
C956   O1015   1.299   .     A
C957   O1020   1.386   .     S
C957   C958    1.408   .     A
C958   C959    1.403   .     A
C958   C967    1.450   .     S
C959   F986    1.358   .     S
C960   O1011   1.386   .     S
C960   C961    1.407   .     A
C960   C1163   1.393   .     S
C962   H1000   1.078   .     S
C962   N1009   1.367   .     A
C962   C827    1.416   1_655 S
C963   F987    1.355   .     S
C963   N1008   1.367   .     A
C964   C975    1.418   .     A
C964   C361    1.416   1_556 S
C964   C366    1.424   1_556 S
C965   N1008   1.370   .     A
C965   F988    1.353   .     S
C966   H1001   1.082   .     S
C966   N1009   1.365   .     A
C966   C829    1.416   1_655 S
C967   O1016   1.293   .     A
C967   O1017   1.290   .     A
C968   O1019   1.295   .     A
C968   O1018   1.294   .     A
C968   C970    1.461   .     S
C969   H1003   1.084   .     S
C969   C983    1.390   .     A
C970   C982    1.403   .     A
C970   C983    1.398   .     A
C971   C972    1.387   .     A
C971   H1004   1.083   .     S
C972   C361    1.391   1_556 S
C972   H394    1.083   1_556 S
C973   H1005   1.078   .     S
C974   H992    1.114   .     S
C974   O1020   1.412   .     S
C974   H991    1.109   .     S
C974   H993    1.111   .     S
C975   C981    1.412   .     A
C976   H994    1.114   .     S
C976   H996    1.110   .     S
C976   O1011   1.412   .     S
C976   H995    1.109   .     S
C977   O1012   1.409   .     S
C977   H999    1.109   .     S
C977   H997    1.113   .     S
C977   H998    1.114   .     S
C978   C982    1.416   .     A
C979   C980    1.394   .     A
C979   C357    1.402   1_556 S
C979   C366    1.422   1_556 S
C980   C981    1.388   .     A
C980   H1002   1.084   .     S
C981   F989    1.357   .     S
C982   O1012   1.383   .     S
C983   H990    1.083   .     S
Cu984  O1016   1.962   .     S
Cu984  O1018   1.934   .     S
Cu984  O1010   1.964   .     S
Cu984  Cu985   2.680   .     S
Cu984  O1014   1.947   .     S
Cu984  N1008   2.014   .     S
Cu985  O1015   1.934   .     S
Cu985  O1017   1.964   .     S
Cu985  O1013   1.962   .     S
Cu985  N1009   2.014   .     S
Cu985  O1019   1.947   .     S
C1021  C1029   1.447   .     S
C1021  O1078   1.289   .     A
C1021  O1081   1.292   .     A
C1022  C1024   1.472   .     S
C1022  C1039   1.404   .     A
C1022  C1043   1.417   .     A
C1023  C1029   1.397   .     A
C1023  H1075   1.083   .     S
C1023  C617    1.392   1_565 S
C1024  O1082   1.294   .     A
C1024  O1083   1.299   .     A
C1025  O1088   1.386   .     S
C1025  C1026   1.408   .     A
C1026  C1027   1.403   .     A
C1026  C1035   1.450   .     S
C1027  F1054   1.358   .     S
C1028  O1079   1.386   .     S
C1028  C1029   1.407   .     A
C1028  C619    1.393   1_565 S
C1030  H1068   1.078   .     S
C1030  N1077   1.367   .     A
C1030  C1099   1.416   .     S
C1031  F1055   1.355   .     S
C1031  N1076   1.367   .     A
C1031  C1166   1.416   1_455 S
C1032  C1043   1.418   .     A
C1032  C429    1.416   1_556 S
C1032  C434    1.424   1_556 S
C1033  N1076   1.370   .     A
C1033  F1056   1.353   .     S
C1033  C1170   1.416   1_455 S
C1034  H1069   1.082   .     S
C1034  N1077   1.365   .     A
C1034  C1101   1.416   .     S
C1035  O1084   1.293   .     A
C1035  O1085   1.290   .     A
C1036  O1087   1.295   .     A
C1036  O1086   1.294   .     A
C1036  C1038   1.461   .     S
C1037  H1071   1.084   .     S
C1037  C1051   1.390   .     A
C1038  C1050   1.403   .     A
C1038  C1051   1.398   .     A
C1039  C1040   1.387   .     A
C1039  H1072   1.083   .     S
C1040  C429    1.391   1_556 S
C1040  H462    1.083   1_556 S
C1041  H1073   1.078   .     S
C1042  H1060   1.114   .     S
C1042  O1088   1.412   .     S
C1042  H1059   1.109   .     S
C1042  H1061   1.111   .     S
C1043  C1049   1.412   .     A
C1044  H1062   1.114   .     S
C1044  H1064   1.110   .     S
C1044  O1079   1.412   .     S
C1044  H1063   1.109   .     S
C1045  O1080   1.409   .     S
C1045  H1067   1.109   .     S
C1045  H1065   1.113   .     S
C1045  H1066   1.114   .     S
C1046  C1050   1.416   .     A
C1047  C1048   1.394   .     A
C1047  C425    1.402   1_556 S
C1047  C434    1.422   1_556 S
C1048  C1049   1.388   .     A
C1048  H1070   1.084   .     S
C1049  F1057   1.357   .     S
C1050  O1080   1.383   .     S
C1051  H1058   1.083   .     S
Cu1052 O1084   1.962   .     S
Cu1052 O1086   1.934   .     S
Cu1052 O1078   1.964   .     S
Cu1052 Cu1053  2.680   .     S
Cu1052 O1082   1.947   .     S
Cu1052 N1076   2.014   .     S
Cu1053 O1083   1.934   .     S
Cu1053 O1085   1.964   .     S
Cu1053 O1081   1.962   .     S
Cu1053 N1077   2.014   .     S
Cu1053 O1087   1.947   .     S
C1089  C1097   1.447   .     S
C1089  O1146   1.289   .     A
C1089  O1149   1.292   .     A
C1090  C1092   1.472   .     S
C1090  C1107   1.404   .     A
C1090  C1111   1.417   .     A
C1091  C1097   1.397   .     A
C1091  H1143   1.083   .     S
C1091  C685    1.392   1_565 S
C1092  O1150   1.294   .     A
C1092  O1151   1.299   .     A
C1093  O1156   1.386   .     S
C1093  C1094   1.408   .     A
C1094  C1095   1.403   .     A
C1094  C1103   1.450   .     S
C1095  F1122   1.358   .     S
C1096  O1147   1.386   .     S
C1096  C1097   1.407   .     A
C1096  C687    1.393   1_565 S
C1098  H1136   1.078   .     S
C1098  N1145   1.367   .     A
C1098  C1167   1.416   .     S
C1099  F1123   1.355   .     S
C1099  N1144   1.367   .     A
C1100  C1111   1.418   .     A
C1100  C497    1.416   1_556 S
C1100  C502    1.424   1_556 S
C1101  N1144   1.370   .     A
C1101  F1124   1.353   .     S
C1102  H1137   1.082   .     S
C1102  N1145   1.365   .     A
C1102  C1169   1.416   .     S
C1103  O1152   1.293   .     A
C1103  O1153   1.290   .     A
C1104  O1155   1.295   .     A
C1104  O1154   1.294   .     A
C1104  C1106   1.461   .     S
C1105  H1139   1.084   .     S
C1105  C1119   1.390   .     A
C1106  C1118   1.403   .     A
C1106  C1119   1.398   .     A
C1107  C1108   1.387   .     A
C1107  H1140   1.083   .     S
C1108  C497    1.391   1_556 S
C1108  H530    1.083   1_556 S
C1109  H1141   1.078   .     S
C1110  H1128   1.114   .     S
C1110  O1156   1.412   .     S
C1110  H1127   1.109   .     S
C1110  H1129   1.111   .     S
C1111  C1117   1.412   .     A
C1112  H1130   1.114   .     S
C1112  H1132   1.110   .     S
C1112  O1147   1.412   .     S
C1112  H1131   1.109   .     S
C1113  O1148   1.409   .     S
C1113  H1135   1.109   .     S
C1113  H1133   1.113   .     S
C1113  H1134   1.114   .     S
C1114  C1118   1.416   .     A
C1115  C1116   1.394   .     A
C1115  C493    1.402   1_556 S
C1115  C502    1.422   1_556 S
C1116  C1117   1.388   .     A
C1116  H1138   1.084   .     S
C1117  F1125   1.357   .     S
C1118  O1148   1.383   .     S
C1119  H1126   1.083   .     S
Cu1120 O1152   1.962   .     S
Cu1120 O1154   1.934   .     S
Cu1120 O1146   1.964   .     S
Cu1120 Cu1121  2.680   .     S
Cu1120 O1150   1.947   .     S
Cu1120 N1144   2.014   .     S
Cu1121 O1151   1.934   .     S
Cu1121 O1153   1.964   .     S
Cu1121 O1149   1.962   .     S
Cu1121 N1145   2.014   .     S
Cu1121 O1155   1.947   .     S
C1157  C1165   1.447   .     S
C1157  O1214   1.289   .     A
C1157  O1217   1.292   .     A
C1158  C1160   1.472   .     S
C1158  C1175   1.404   .     A
C1158  C1179   1.417   .     A
C1159  C1165   1.397   .     A
C1159  H1211   1.083   .     S
C1159  C753    1.392   1_565 S
C1160  O1218   1.294   .     A
C1160  O1219   1.299   .     A
C1161  O1224   1.386   .     S
C1161  C1162   1.408   .     A
C1162  C1163   1.403   .     A
C1162  C1171   1.450   .     S
C1163  F1190   1.358   .     S
C1164  O1215   1.386   .     S
C1164  C1165   1.407   .     A
C1164  C755    1.393   1_565 S
C1166  H1204   1.078   .     S
C1166  N1213   1.367   .     A
C1166  C1031   1.416   1_655 S
C1167  F1191   1.355   .     S
C1167  N1212   1.367   .     A
C1168  C1179   1.418   .     A
C1168  C565    1.416   1_556 S
C1168  C570    1.424   1_556 S
C1169  N1212   1.370   .     A
C1169  F1192   1.353   .     S
C1170  H1205   1.082   .     S
C1170  N1213   1.365   .     A
C1170  C1033   1.416   1_655 S
C1171  O1220   1.293   .     A
C1171  O1221   1.290   .     A
C1172  O1223   1.295   .     A
C1172  O1222   1.294   .     A
C1172  C1174   1.461   .     S
C1173  H1207   1.084   .     S
C1173  C1187   1.390   .     A
C1174  C1186   1.403   .     A
C1174  C1187   1.398   .     A
C1175  C1176   1.387   .     A
C1175  H1208   1.083   .     S
C1176  C565    1.391   1_556 S
C1176  H598    1.083   1_556 S
C1177  H1209   1.078   .     S
C1178  H1196   1.114   .     S
C1178  O1224   1.412   .     S
C1178  H1195   1.109   .     S
C1178  H1197   1.111   .     S
C1179  C1185   1.412   .     A
C1180  H1198   1.114   .     S
C1180  H1200   1.110   .     S
C1180  O1215   1.412   .     S
C1180  H1199   1.109   .     S
C1181  O1216   1.409   .     S
C1181  H1203   1.109   .     S
C1181  H1201   1.113   .     S
C1181  H1202   1.114   .     S
C1182  C1186   1.416   .     A
C1183  C1184   1.394   .     A
C1183  C561    1.402   1_556 S
C1183  C570    1.422   1_556 S
C1184  C1185   1.388   .     A
C1184  H1206   1.084   .     S
C1185  F1193   1.357   .     S
C1186  O1216   1.383   .     S
C1187  H1194   1.083   .     S
Cu1188 O1220   1.962   .     S
Cu1188 O1222   1.934   .     S
Cu1188 O1214   1.964   .     S
Cu1188 Cu1189  2.680   .     S
Cu1188 O1218   1.947   .     S
Cu1188 N1212   2.014   .     S
Cu1189 O1219   1.934   .     S
Cu1189 O1221   1.964   .     S
Cu1189 O1217   1.962   .     S
Cu1189 N1213   2.014   .     S
Cu1189 O1223   1.947   .     S
