data_str_m2_o1_o10_pcu_sym.166
_audit_creation_date              2020-01-03
_audit_creation_method            'Materials Studio'
_symmetry_space_group_name_H-M    'P1'
_symmetry_Int_Tables_number       1
_symmetry_cell_setting            triclinic
loop_
_symmetry_equiv_pos_as_xyz
  x,y,z
_cell_length_a                    27.1316
_cell_length_b                    32.4613
_cell_length_c                    29.0667
_cell_angle_alpha                 88.4594
_cell_angle_beta                  96.9375
_cell_angle_gamma                 100.5408
loop_
_atom_site_label
_atom_site_type_symbol
_atom_site_fract_x
_atom_site_fract_y
_atom_site_fract_z
_atom_site_U_iso_or_equiv
_atom_site_adp_type
_atom_site_occupancy
C1     C     0.16880   0.08770   0.16738   0.00000  Uiso   1.00
C2     C     0.16421   0.24572   0.16600   0.00000  Uiso   1.00
C3     C     0.06884   0.16820   0.15518   0.00000  Uiso   1.00
C4     C     0.26540   0.16914   0.17828   0.00000  Uiso   1.00
C5     C     0.01625   0.17440   0.14887   0.00000  Uiso   1.00
C6     C     0.32062   0.17251   0.18550   0.00000  Uiso   1.00
C7     C     0.17132   0.02271   0.12616   0.00000  Uiso   1.00
C8     C     0.15956   0.31110   0.20719   0.00000  Uiso   1.00
C9     C     0.15162   0.31279   0.12482   0.00000  Uiso   1.00
C10    C     0.18046   0.02083   0.20895   0.00000  Uiso   1.00
C11    C     0.16295   0.29090   0.16578   0.00000  Uiso   1.00
C12    C     0.16884   0.04264   0.16783   0.00000  Uiso   1.00
C13    C     0.13706   0.13465   0.02174   0.00000  Uiso   1.00
C14    C     0.19534   0.19967   0.31106   0.00000  Uiso   1.00
C15    C     0.14234   0.13257   0.30665   0.00000  Uiso   1.00
C16    C     0.19407   0.19950   0.02728   0.00000  Uiso   1.00
Cu17   Cu    0.16667   0.16667   0.21355   0.00000  Uiso   1.00
Cu18   Cu    0.16667   0.16666   0.11978   0.00000  Uiso   1.00
N19    N     0.16668   0.16668   0.28403   0.00000  Uiso   1.00
N20    N     0.16665   0.16666   0.04931   0.00000  Uiso   1.00
O21    O     0.16666   0.10655   0.20625   0.00000  Uiso   1.00
O22    O     0.16667   0.22678   0.12709   0.00000  Uiso   1.00
O23    O     0.16666   0.10654   0.12706   0.00000  Uiso   1.00
O24    O     0.16667   0.22679   0.20628   0.00000  Uiso   1.00
O25    O     0.09161   0.16667   0.19712   0.00000  Uiso   1.00
O26    O     0.24172   0.16666   0.13621   0.00000  Uiso   1.00
O27    O     0.09161   0.16666   0.11793   0.00000  Uiso   1.00
O28    O     0.24172   0.16667   0.21540   0.00000  Uiso   1.00
S29    S     0.33114   0.19346   0.09185   0.00000  Uiso   1.00
O30    O     0.28585   0.16510   0.06778   0.00000  Uiso   1.00
O31    O     0.32066   0.23661   0.09817   0.00000  Uiso   1.00
O32    O     0.04273   0.19875   0.05584   0.00000  Uiso   1.00
H33    H     0.02920   0.17942   0.02980   0.00000  Uiso   1.00
S34    S     0.01248   0.17189   0.24602   0.00000  Uiso   1.00
O35    O     0.02814   0.13065   0.25575   0.00000  Uiso   1.00
O36    O     0.05731   0.20631   0.25644   0.00000  Uiso   1.00
O37    O     0.30536   0.17660   0.28418   0.00000  Uiso   1.00
H38    H     0.29359   0.14796   0.29580   0.00000  Uiso   1.00
N39    N     0.21708   0.03674   0.10646   0.00000  Uiso   1.00
H40    H     0.24431   0.01853   0.11485   0.00000  Uiso   1.00
C41    C     0.21241   0.04953   0.05859   0.00000  Uiso   1.00
H42    H     0.19168   0.02329   0.03646   0.00000  Uiso   1.00
H43    H     0.25060   0.05947   0.04759   0.00000  Uiso   1.00
H44    H     0.19301   0.07668   0.05425   0.00000  Uiso   1.00
N45    N     0.11386   0.29789   0.22740   0.00000  Uiso   1.00
H46    H     0.08899   0.27271   0.21221   0.00000  Uiso   1.00
C47    C     0.11571   0.29952   0.27708   0.00000  Uiso   1.00
H48    H     0.14335   0.32680   0.29165   0.00000  Uiso   1.00
H49    H     0.12537   0.27008   0.29275   0.00000  Uiso   1.00
H50    H     0.07785   0.30247   0.28596   0.00000  Uiso   1.00
N51    N     0.10125   0.30069   0.10327   0.00000  Uiso   1.00
H52    H     0.07808   0.32175   0.10816   0.00000  Uiso   1.00
C53    C     0.09641   0.28780   0.05578   0.00000  Uiso   1.00
H54    H     0.05593   0.28121   0.04153   0.00000  Uiso   1.00
H55    H     0.11219   0.25892   0.05359   0.00000  Uiso   1.00
H56    H     0.11604   0.31302   0.03489   0.00000  Uiso   1.00
N57    N     0.23202   0.03146   0.22829   0.00000  Uiso   1.00
H58    H     0.25233   0.00751   0.22813   0.00000  Uiso   1.00
C59    C     0.24216   0.05407   0.27137   0.00000  Uiso   1.00
H60    H     0.28351   0.06097   0.28182   0.00000  Uiso   1.00
H61    H     0.22423   0.03477   0.29880   0.00000  Uiso   1.00
H62    H     0.22893   0.08435   0.26739   0.00000  Uiso   1.00
S63    S     0.08709   0.09554   0.04141   0.00000  Uiso   1.00
O64    O     0.09492   0.05249   0.03042   0.00000  Uiso   1.00
O65    O     0.07922   0.09505   0.09140   0.00000  Uiso   1.00
O66    O     0.03253   0.10304   0.01150   0.00000  Uiso   1.00
H67    H     0.00653   0.08036   0.02193   0.00000  Uiso   1.00
S68    S     0.24042   0.24218   0.28881   0.00000  Uiso   1.00
O69    O     0.21932   0.28169   0.28818   0.00000  Uiso   1.00
O70    O     0.28825   0.24820   0.32189   0.00000  Uiso   1.00
O71    O     0.25870   0.23948   0.23622   0.00000  Uiso   1.00
H72    H     0.28427   0.26512   0.23317   0.00000  Uiso   1.00
N73    N     0.13735   0.09207   0.28662   0.00000  Uiso   1.00
H74    H     0.15398   0.07115   0.30751   0.00000  Uiso   1.00
C75    C     0.09095   0.07266   0.25955   0.00000  Uiso   1.00
H76    H     0.09595   0.04249   0.24582   0.00000  Uiso   1.00
H77    H     0.08208   0.09177   0.22875   0.00000  Uiso   1.00
H78    H     0.05919   0.06575   0.28066   0.00000  Uiso   1.00
N79    N     0.22643   0.23111   0.05520   0.00000  Uiso   1.00
H80    H     0.23408   0.22240   0.08876   0.00000  Uiso   1.00
C81    C     0.21980   0.27428   0.05146   0.00000  Uiso   1.00
H82    H     0.21688   0.28594   0.08591   0.00000  Uiso   1.00
H83    H     0.18610   0.27802   0.02768   0.00000  Uiso   1.00
H84    H     0.25391   0.29419   0.04005   0.00000  Uiso   1.00
C85    C     0.50214   0.08770   0.16738   0.00000  Uiso   1.00
C86    C     0.49754   0.24572   0.16600   0.00000  Uiso   1.00
C87    C     0.40217   0.16820   0.15518   0.00000  Uiso   1.00
C88    C     0.59873   0.16914   0.17828   0.00000  Uiso   1.00
C89    C     0.34959   0.17440   0.14887   0.00000  Uiso   1.00
C90    C     0.65395   0.17251   0.18550   0.00000  Uiso   1.00
C91    C     0.50466   0.02271   0.12616   0.00000  Uiso   1.00
C92    C     0.49289   0.31110   0.20719   0.00000  Uiso   1.00
C93    C     0.48495   0.31279   0.12482   0.00000  Uiso   1.00
C94    C     0.51379   0.02083   0.20895   0.00000  Uiso   1.00
C95    C     0.49628   0.29090   0.16578   0.00000  Uiso   1.00
C96    C     0.50218   0.04264   0.16783   0.00000  Uiso   1.00
C97    C     0.47039   0.13465   0.02174   0.00000  Uiso   1.00
C98    C     0.52867   0.19967   0.31106   0.00000  Uiso   1.00
C99    C     0.47567   0.13257   0.30665   0.00000  Uiso   1.00
C100   C     0.52740   0.19950   0.02728   0.00000  Uiso   1.00
Cu101  Cu    0.50000   0.16667   0.21355   0.00000  Uiso   1.00
Cu102  Cu    0.50000   0.16666   0.11978   0.00000  Uiso   1.00
N103   N     0.50001   0.16668   0.28403   0.00000  Uiso   1.00
N104   N     0.49999   0.16666   0.04931   0.00000  Uiso   1.00
O105   O     0.50000   0.10655   0.20625   0.00000  Uiso   1.00
O106   O     0.50000   0.22678   0.12709   0.00000  Uiso   1.00
O107   O     0.50000   0.10654   0.12706   0.00000  Uiso   1.00
O108   O     0.50000   0.22679   0.20628   0.00000  Uiso   1.00
O109   O     0.42495   0.16667   0.19712   0.00000  Uiso   1.00
O110   O     0.57505   0.16666   0.13621   0.00000  Uiso   1.00
O111   O     0.42494   0.16666   0.11793   0.00000  Uiso   1.00
O112   O     0.57506   0.16667   0.21540   0.00000  Uiso   1.00
S113   S     0.66447   0.19346   0.09185   0.00000  Uiso   1.00
O114   O     0.61918   0.16510   0.06778   0.00000  Uiso   1.00
O115   O     0.65400   0.23661   0.09817   0.00000  Uiso   1.00
O116   O     0.37606   0.19875   0.05584   0.00000  Uiso   1.00
H117   H     0.36253   0.17942   0.02980   0.00000  Uiso   1.00
S118   S     0.34582   0.17189   0.24602   0.00000  Uiso   1.00
O119   O     0.36148   0.13065   0.25575   0.00000  Uiso   1.00
O120   O     0.39065   0.20631   0.25644   0.00000  Uiso   1.00
O121   O     0.63869   0.17660   0.28418   0.00000  Uiso   1.00
H122   H     0.62692   0.14796   0.29580   0.00000  Uiso   1.00
N123   N     0.55041   0.03674   0.10646   0.00000  Uiso   1.00
H124   H     0.57764   0.01853   0.11485   0.00000  Uiso   1.00
C125   C     0.54575   0.04953   0.05859   0.00000  Uiso   1.00
H126   H     0.52502   0.02329   0.03646   0.00000  Uiso   1.00
H127   H     0.58394   0.05947   0.04759   0.00000  Uiso   1.00
H128   H     0.52635   0.07668   0.05425   0.00000  Uiso   1.00
N129   N     0.44719   0.29789   0.22740   0.00000  Uiso   1.00
H130   H     0.42232   0.27271   0.21221   0.00000  Uiso   1.00
C131   C     0.44904   0.29952   0.27708   0.00000  Uiso   1.00
H132   H     0.47668   0.32680   0.29165   0.00000  Uiso   1.00
H133   H     0.45870   0.27008   0.29275   0.00000  Uiso   1.00
H134   H     0.41119   0.30247   0.28596   0.00000  Uiso   1.00
N135   N     0.43458   0.30069   0.10327   0.00000  Uiso   1.00
H136   H     0.41142   0.32175   0.10816   0.00000  Uiso   1.00
C137   C     0.42974   0.28780   0.05578   0.00000  Uiso   1.00
H138   H     0.38927   0.28121   0.04153   0.00000  Uiso   1.00
H139   H     0.44552   0.25892   0.05359   0.00000  Uiso   1.00
H140   H     0.44938   0.31302   0.03489   0.00000  Uiso   1.00
N141   N     0.56535   0.03146   0.22829   0.00000  Uiso   1.00
H142   H     0.58566   0.00751   0.22813   0.00000  Uiso   1.00
C143   C     0.57549   0.05407   0.27137   0.00000  Uiso   1.00
H144   H     0.61684   0.06097   0.28182   0.00000  Uiso   1.00
H145   H     0.55756   0.03477   0.29880   0.00000  Uiso   1.00
H146   H     0.56226   0.08435   0.26739   0.00000  Uiso   1.00
S147   S     0.42042   0.09554   0.04141   0.00000  Uiso   1.00
O148   O     0.42825   0.05249   0.03042   0.00000  Uiso   1.00
O149   O     0.41255   0.09505   0.09140   0.00000  Uiso   1.00
O150   O     0.36586   0.10304   0.01150   0.00000  Uiso   1.00
H151   H     0.33987   0.08036   0.02193   0.00000  Uiso   1.00
S152   S     0.57375   0.24218   0.28881   0.00000  Uiso   1.00
O153   O     0.55265   0.28169   0.28818   0.00000  Uiso   1.00
O154   O     0.62158   0.24820   0.32189   0.00000  Uiso   1.00
O155   O     0.59203   0.23948   0.23622   0.00000  Uiso   1.00
H156   H     0.61760   0.26512   0.23317   0.00000  Uiso   1.00
N157   N     0.47069   0.09207   0.28662   0.00000  Uiso   1.00
H158   H     0.48732   0.07115   0.30751   0.00000  Uiso   1.00
C159   C     0.42428   0.07266   0.25955   0.00000  Uiso   1.00
H160   H     0.42929   0.04249   0.24582   0.00000  Uiso   1.00
H161   H     0.41541   0.09177   0.22875   0.00000  Uiso   1.00
H162   H     0.39252   0.06575   0.28066   0.00000  Uiso   1.00
N163   N     0.55977   0.23111   0.05520   0.00000  Uiso   1.00
H164   H     0.56741   0.22240   0.08876   0.00000  Uiso   1.00
C165   C     0.55313   0.27428   0.05146   0.00000  Uiso   1.00
H166   H     0.55021   0.28594   0.08591   0.00000  Uiso   1.00
H167   H     0.51943   0.27802   0.02768   0.00000  Uiso   1.00
H168   H     0.58724   0.29419   0.04005   0.00000  Uiso   1.00
C169   C     0.83547   0.08770   0.16738   0.00000  Uiso   1.00
C170   C     0.83087   0.24572   0.16600   0.00000  Uiso   1.00
C171   C     0.73551   0.16820   0.15518   0.00000  Uiso   1.00
C172   C     0.93206   0.16914   0.17828   0.00000  Uiso   1.00
C173   C     0.68292   0.17440   0.14887   0.00000  Uiso   1.00
C174   C     0.98728   0.17251   0.18550   0.00000  Uiso   1.00
C175   C     0.83799   0.02271   0.12616   0.00000  Uiso   1.00
C176   C     0.82623   0.31110   0.20719   0.00000  Uiso   1.00
C177   C     0.81828   0.31279   0.12482   0.00000  Uiso   1.00
C178   C     0.84712   0.02083   0.20895   0.00000  Uiso   1.00
C179   C     0.82962   0.29090   0.16578   0.00000  Uiso   1.00
C180   C     0.83551   0.04264   0.16783   0.00000  Uiso   1.00
C181   C     0.80373   0.13465   0.02174   0.00000  Uiso   1.00
C182   C     0.86200   0.19967   0.31106   0.00000  Uiso   1.00
C183   C     0.80900   0.13257   0.30665   0.00000  Uiso   1.00
C184   C     0.86074   0.19950   0.02728   0.00000  Uiso   1.00
Cu185  Cu    0.83333   0.16667   0.21355   0.00000  Uiso   1.00
Cu186  Cu    0.83333   0.16666   0.11978   0.00000  Uiso   1.00
N187   N     0.83335   0.16668   0.28403   0.00000  Uiso   1.00
N188   N     0.83332   0.16666   0.04931   0.00000  Uiso   1.00
O189   O     0.83333   0.10655   0.20625   0.00000  Uiso   1.00
O190   O     0.83334   0.22678   0.12709   0.00000  Uiso   1.00
O191   O     0.83333   0.10654   0.12706   0.00000  Uiso   1.00
O192   O     0.83334   0.22679   0.20628   0.00000  Uiso   1.00
O193   O     0.75828   0.16667   0.19712   0.00000  Uiso   1.00
O194   O     0.90839   0.16666   0.13621   0.00000  Uiso   1.00
O195   O     0.75828   0.16666   0.11793   0.00000  Uiso   1.00
O196   O     0.90839   0.16667   0.21540   0.00000  Uiso   1.00
S197   S     0.99780   0.19346   0.09185   0.00000  Uiso   1.00
O198   O     0.95252   0.16510   0.06778   0.00000  Uiso   1.00
O199   O     0.98733   0.23661   0.09817   0.00000  Uiso   1.00
O200   O     0.70940   0.19875   0.05584   0.00000  Uiso   1.00
H201   H     0.69586   0.17942   0.02980   0.00000  Uiso   1.00
S202   S     0.67915   0.17189   0.24602   0.00000  Uiso   1.00
O203   O     0.69481   0.13065   0.25575   0.00000  Uiso   1.00
O204   O     0.72398   0.20631   0.25644   0.00000  Uiso   1.00
O205   O     0.97203   0.17660   0.28418   0.00000  Uiso   1.00
H206   H     0.96025   0.14796   0.29580   0.00000  Uiso   1.00
N207   N     0.88375   0.03674   0.10646   0.00000  Uiso   1.00
H208   H     0.91098   0.01853   0.11485   0.00000  Uiso   1.00
C209   C     0.87908   0.04953   0.05859   0.00000  Uiso   1.00
H210   H     0.85835   0.02329   0.03646   0.00000  Uiso   1.00
H211   H     0.91727   0.05947   0.04759   0.00000  Uiso   1.00
H212   H     0.85968   0.07668   0.05425   0.00000  Uiso   1.00
N213   N     0.78052   0.29789   0.22740   0.00000  Uiso   1.00
H214   H     0.75566   0.27271   0.21221   0.00000  Uiso   1.00
C215   C     0.78237   0.29952   0.27708   0.00000  Uiso   1.00
H216   H     0.81001   0.32680   0.29165   0.00000  Uiso   1.00
H217   H     0.79203   0.27008   0.29275   0.00000  Uiso   1.00
H218   H     0.74452   0.30247   0.28596   0.00000  Uiso   1.00
N219   N     0.76791   0.30069   0.10327   0.00000  Uiso   1.00
H220   H     0.74475   0.32175   0.10816   0.00000  Uiso   1.00
C221   C     0.76307   0.28780   0.05578   0.00000  Uiso   1.00
H222   H     0.72260   0.28121   0.04153   0.00000  Uiso   1.00
H223   H     0.77885   0.25892   0.05359   0.00000  Uiso   1.00
H224   H     0.78271   0.31302   0.03489   0.00000  Uiso   1.00
N225   N     0.89868   0.03146   0.22829   0.00000  Uiso   1.00
H226   H     0.91900   0.00751   0.22813   0.00000  Uiso   1.00
C227   C     0.90883   0.05407   0.27137   0.00000  Uiso   1.00
H228   H     0.95018   0.06097   0.28182   0.00000  Uiso   1.00
H229   H     0.89090   0.03477   0.29880   0.00000  Uiso   1.00
H230   H     0.89559   0.08435   0.26739   0.00000  Uiso   1.00
S231   S     0.75375   0.09554   0.04141   0.00000  Uiso   1.00
O232   O     0.76159   0.05249   0.03042   0.00000  Uiso   1.00
O233   O     0.74588   0.09505   0.09140   0.00000  Uiso   1.00
O234   O     0.69919   0.10304   0.01150   0.00000  Uiso   1.00
H235   H     0.67320   0.08036   0.02193   0.00000  Uiso   1.00
S236   S     0.90708   0.24218   0.28881   0.00000  Uiso   1.00
O237   O     0.88598   0.28169   0.28818   0.00000  Uiso   1.00
O238   O     0.95491   0.24820   0.32189   0.00000  Uiso   1.00
O239   O     0.92536   0.23948   0.23622   0.00000  Uiso   1.00
H240   H     0.95094   0.26512   0.23317   0.00000  Uiso   1.00
N241   N     0.80402   0.09207   0.28662   0.00000  Uiso   1.00
H242   H     0.82065   0.07115   0.30751   0.00000  Uiso   1.00
C243   C     0.75761   0.07266   0.25955   0.00000  Uiso   1.00
H244   H     0.76262   0.04249   0.24582   0.00000  Uiso   1.00
H245   H     0.74875   0.09177   0.22875   0.00000  Uiso   1.00
H246   H     0.72586   0.06575   0.28066   0.00000  Uiso   1.00
N247   N     0.89310   0.23111   0.05520   0.00000  Uiso   1.00
H248   H     0.90074   0.22240   0.08876   0.00000  Uiso   1.00
C249   C     0.88647   0.27428   0.05146   0.00000  Uiso   1.00
H250   H     0.88355   0.28594   0.08591   0.00000  Uiso   1.00
H251   H     0.85276   0.27802   0.02768   0.00000  Uiso   1.00
H252   H     0.92057   0.29419   0.04005   0.00000  Uiso   1.00
C253   C     0.16880   0.42103   0.16738   0.00000  Uiso   1.00
C254   C     0.16421   0.57906   0.16600   0.00000  Uiso   1.00
C255   C     0.06884   0.50154   0.15518   0.00000  Uiso   1.00
C256   C     0.26540   0.50248   0.17828   0.00000  Uiso   1.00
C257   C     0.01625   0.50773   0.14887   0.00000  Uiso   1.00
C258   C     0.32062   0.50585   0.18550   0.00000  Uiso   1.00
C259   C     0.17132   0.35604   0.12616   0.00000  Uiso   1.00
C260   C     0.15956   0.64444   0.20719   0.00000  Uiso   1.00
C261   C     0.15162   0.64612   0.12482   0.00000  Uiso   1.00
C262   C     0.18046   0.35416   0.20895   0.00000  Uiso   1.00
C263   C     0.16295   0.62423   0.16578   0.00000  Uiso   1.00
C264   C     0.16884   0.37597   0.16783   0.00000  Uiso   1.00
C265   C     0.13706   0.46799   0.02174   0.00000  Uiso   1.00
C266   C     0.19534   0.53301   0.31106   0.00000  Uiso   1.00
C267   C     0.14234   0.46590   0.30665   0.00000  Uiso   1.00
C268   C     0.19407   0.53283   0.02728   0.00000  Uiso   1.00
Cu269  Cu    0.16667   0.50001   0.21355   0.00000  Uiso   1.00
Cu270  Cu    0.16667   0.49999   0.11978   0.00000  Uiso   1.00
N271   N     0.16668   0.50001   0.28403   0.00000  Uiso   1.00
N272   N     0.16665   0.49999   0.04931   0.00000  Uiso   1.00
O273   O     0.16666   0.43989   0.20625   0.00000  Uiso   1.00
O274   O     0.16667   0.56011   0.12709   0.00000  Uiso   1.00
O275   O     0.16666   0.43988   0.12706   0.00000  Uiso   1.00
O276   O     0.16667   0.56012   0.20628   0.00000  Uiso   1.00
O277   O     0.09161   0.50000   0.19712   0.00000  Uiso   1.00
O278   O     0.24172   0.50000   0.13621   0.00000  Uiso   1.00
O279   O     0.09161   0.49999   0.11793   0.00000  Uiso   1.00
O280   O     0.24172   0.50001   0.21540   0.00000  Uiso   1.00
S281   S     0.33114   0.52680   0.09185   0.00000  Uiso   1.00
O282   O     0.28585   0.49843   0.06778   0.00000  Uiso   1.00
O283   O     0.32066   0.56995   0.09817   0.00000  Uiso   1.00
O284   O     0.04273   0.53209   0.05584   0.00000  Uiso   1.00
H285   H     0.02920   0.51275   0.02980   0.00000  Uiso   1.00
S286   S     0.01248   0.50522   0.24602   0.00000  Uiso   1.00
O287   O     0.02814   0.46399   0.25575   0.00000  Uiso   1.00
O288   O     0.05731   0.53965   0.25644   0.00000  Uiso   1.00
O289   O     0.30536   0.50993   0.28418   0.00000  Uiso   1.00
H290   H     0.29359   0.48129   0.29580   0.00000  Uiso   1.00
N291   N     0.21708   0.37007   0.10646   0.00000  Uiso   1.00
H292   H     0.24431   0.35186   0.11485   0.00000  Uiso   1.00
C293   C     0.21241   0.38287   0.05859   0.00000  Uiso   1.00
H294   H     0.19168   0.35662   0.03646   0.00000  Uiso   1.00
H295   H     0.25060   0.39280   0.04759   0.00000  Uiso   1.00
H296   H     0.19301   0.41001   0.05425   0.00000  Uiso   1.00
N297   N     0.11386   0.63123   0.22740   0.00000  Uiso   1.00
H298   H     0.08899   0.60605   0.21221   0.00000  Uiso   1.00
C299   C     0.11571   0.63285   0.27708   0.00000  Uiso   1.00
H300   H     0.14335   0.66013   0.29165   0.00000  Uiso   1.00
H301   H     0.12537   0.60341   0.29275   0.00000  Uiso   1.00
H302   H     0.07785   0.63580   0.28596   0.00000  Uiso   1.00
N303   N     0.10125   0.63402   0.10327   0.00000  Uiso   1.00
H304   H     0.07808   0.65508   0.10816   0.00000  Uiso   1.00
C305   C     0.09641   0.62113   0.05578   0.00000  Uiso   1.00
H306   H     0.05593   0.61454   0.04153   0.00000  Uiso   1.00
H307   H     0.11219   0.59225   0.05359   0.00000  Uiso   1.00
H308   H     0.11604   0.64636   0.03489   0.00000  Uiso   1.00
N309   N     0.23202   0.36479   0.22829   0.00000  Uiso   1.00
H310   H     0.25233   0.34084   0.22813   0.00000  Uiso   1.00
C311   C     0.24216   0.38740   0.27137   0.00000  Uiso   1.00
H312   H     0.28351   0.39431   0.28182   0.00000  Uiso   1.00
H313   H     0.22423   0.36810   0.29880   0.00000  Uiso   1.00
H314   H     0.22893   0.41769   0.26739   0.00000  Uiso   1.00
S315   S     0.08709   0.42887   0.04141   0.00000  Uiso   1.00
O316   O     0.09492   0.38582   0.03042   0.00000  Uiso   1.00
O317   O     0.07922   0.42838   0.09140   0.00000  Uiso   1.00
O318   O     0.03253   0.43637   0.01150   0.00000  Uiso   1.00
H319   H     0.00653   0.41369   0.02193   0.00000  Uiso   1.00
S320   S     0.24042   0.57551   0.28881   0.00000  Uiso   1.00
O321   O     0.21932   0.61502   0.28818   0.00000  Uiso   1.00
O322   O     0.28825   0.58153   0.32189   0.00000  Uiso   1.00
O323   O     0.25870   0.57281   0.23622   0.00000  Uiso   1.00
H324   H     0.28427   0.59846   0.23317   0.00000  Uiso   1.00
N325   N     0.13735   0.42540   0.28662   0.00000  Uiso   1.00
H326   H     0.15398   0.40449   0.30751   0.00000  Uiso   1.00
C327   C     0.09095   0.40599   0.25955   0.00000  Uiso   1.00
H328   H     0.09595   0.37582   0.24582   0.00000  Uiso   1.00
H329   H     0.08208   0.42510   0.22875   0.00000  Uiso   1.00
H330   H     0.05919   0.39909   0.28066   0.00000  Uiso   1.00
N331   N     0.22643   0.56444   0.05520   0.00000  Uiso   1.00
H332   H     0.23408   0.55573   0.08876   0.00000  Uiso   1.00
C333   C     0.21980   0.60761   0.05146   0.00000  Uiso   1.00
H334   H     0.21688   0.61927   0.08591   0.00000  Uiso   1.00
H335   H     0.18610   0.61136   0.02768   0.00000  Uiso   1.00
H336   H     0.25391   0.62752   0.04005   0.00000  Uiso   1.00
C337   C     0.50214   0.42103   0.16738   0.00000  Uiso   1.00
C338   C     0.49754   0.57906   0.16600   0.00000  Uiso   1.00
C339   C     0.40217   0.50154   0.15518   0.00000  Uiso   1.00
C340   C     0.59873   0.50248   0.17828   0.00000  Uiso   1.00
C341   C     0.34959   0.50773   0.14887   0.00000  Uiso   1.00
C342   C     0.65395   0.50585   0.18550   0.00000  Uiso   1.00
C343   C     0.50466   0.35604   0.12616   0.00000  Uiso   1.00
C344   C     0.49289   0.64444   0.20719   0.00000  Uiso   1.00
C345   C     0.48495   0.64612   0.12482   0.00000  Uiso   1.00
C346   C     0.51379   0.35416   0.20895   0.00000  Uiso   1.00
C347   C     0.49628   0.62423   0.16578   0.00000  Uiso   1.00
C348   C     0.50218   0.37597   0.16783   0.00000  Uiso   1.00
C349   C     0.47039   0.46799   0.02174   0.00000  Uiso   1.00
C350   C     0.52867   0.53301   0.31106   0.00000  Uiso   1.00
C351   C     0.47567   0.46590   0.30665   0.00000  Uiso   1.00
C352   C     0.52740   0.53283   0.02728   0.00000  Uiso   1.00
Cu353  Cu    0.50000   0.50001   0.21355   0.00000  Uiso   1.00
Cu354  Cu    0.50000   0.49999   0.11978   0.00000  Uiso   1.00
N355   N     0.50001   0.50001   0.28403   0.00000  Uiso   1.00
N356   N     0.49999   0.49999   0.04931   0.00000  Uiso   1.00
O357   O     0.50000   0.43989   0.20625   0.00000  Uiso   1.00
O358   O     0.50000   0.56011   0.12709   0.00000  Uiso   1.00
O359   O     0.50000   0.43988   0.12706   0.00000  Uiso   1.00
O360   O     0.50000   0.56012   0.20628   0.00000  Uiso   1.00
O361   O     0.42495   0.50000   0.19712   0.00000  Uiso   1.00
O362   O     0.57505   0.50000   0.13621   0.00000  Uiso   1.00
O363   O     0.42494   0.49999   0.11793   0.00000  Uiso   1.00
O364   O     0.57506   0.50001   0.21540   0.00000  Uiso   1.00
S365   S     0.66447   0.52680   0.09185   0.00000  Uiso   1.00
O366   O     0.61918   0.49843   0.06778   0.00000  Uiso   1.00
O367   O     0.65400   0.56995   0.09817   0.00000  Uiso   1.00
O368   O     0.37606   0.53209   0.05584   0.00000  Uiso   1.00
H369   H     0.36253   0.51275   0.02980   0.00000  Uiso   1.00
S370   S     0.34582   0.50522   0.24602   0.00000  Uiso   1.00
O371   O     0.36148   0.46399   0.25575   0.00000  Uiso   1.00
O372   O     0.39065   0.53965   0.25644   0.00000  Uiso   1.00
O373   O     0.63869   0.50993   0.28418   0.00000  Uiso   1.00
H374   H     0.62692   0.48129   0.29580   0.00000  Uiso   1.00
N375   N     0.55041   0.37007   0.10646   0.00000  Uiso   1.00
H376   H     0.57764   0.35186   0.11485   0.00000  Uiso   1.00
C377   C     0.54575   0.38287   0.05859   0.00000  Uiso   1.00
H378   H     0.52502   0.35662   0.03646   0.00000  Uiso   1.00
H379   H     0.58394   0.39280   0.04759   0.00000  Uiso   1.00
H380   H     0.52635   0.41001   0.05425   0.00000  Uiso   1.00
N381   N     0.44719   0.63123   0.22740   0.00000  Uiso   1.00
H382   H     0.42232   0.60605   0.21221   0.00000  Uiso   1.00
C383   C     0.44904   0.63285   0.27708   0.00000  Uiso   1.00
H384   H     0.47668   0.66013   0.29165   0.00000  Uiso   1.00
H385   H     0.45870   0.60341   0.29275   0.00000  Uiso   1.00
H386   H     0.41119   0.63580   0.28596   0.00000  Uiso   1.00
N387   N     0.43458   0.63402   0.10327   0.00000  Uiso   1.00
H388   H     0.41142   0.65508   0.10816   0.00000  Uiso   1.00
C389   C     0.42974   0.62113   0.05578   0.00000  Uiso   1.00
H390   H     0.38927   0.61454   0.04153   0.00000  Uiso   1.00
H391   H     0.44552   0.59225   0.05359   0.00000  Uiso   1.00
H392   H     0.44938   0.64636   0.03489   0.00000  Uiso   1.00
N393   N     0.56535   0.36479   0.22829   0.00000  Uiso   1.00
H394   H     0.58566   0.34084   0.22813   0.00000  Uiso   1.00
C395   C     0.57549   0.38740   0.27137   0.00000  Uiso   1.00
H396   H     0.61684   0.39431   0.28182   0.00000  Uiso   1.00
H397   H     0.55756   0.36810   0.29880   0.00000  Uiso   1.00
H398   H     0.56226   0.41769   0.26739   0.00000  Uiso   1.00
S399   S     0.42042   0.42887   0.04141   0.00000  Uiso   1.00
O400   O     0.42825   0.38582   0.03042   0.00000  Uiso   1.00
O401   O     0.41255   0.42838   0.09140   0.00000  Uiso   1.00
O402   O     0.36586   0.43637   0.01150   0.00000  Uiso   1.00
H403   H     0.33987   0.41369   0.02193   0.00000  Uiso   1.00
S404   S     0.57375   0.57551   0.28881   0.00000  Uiso   1.00
O405   O     0.55265   0.61502   0.28818   0.00000  Uiso   1.00
O406   O     0.62158   0.58153   0.32189   0.00000  Uiso   1.00
O407   O     0.59203   0.57281   0.23622   0.00000  Uiso   1.00
H408   H     0.61760   0.59846   0.23317   0.00000  Uiso   1.00
N409   N     0.47069   0.42540   0.28662   0.00000  Uiso   1.00
H410   H     0.48732   0.40449   0.30751   0.00000  Uiso   1.00
C411   C     0.42428   0.40599   0.25955   0.00000  Uiso   1.00
H412   H     0.42929   0.37582   0.24582   0.00000  Uiso   1.00
H413   H     0.41541   0.42510   0.22875   0.00000  Uiso   1.00
H414   H     0.39252   0.39909   0.28066   0.00000  Uiso   1.00
N415   N     0.55977   0.56444   0.05520   0.00000  Uiso   1.00
H416   H     0.56741   0.55573   0.08876   0.00000  Uiso   1.00
C417   C     0.55313   0.60761   0.05146   0.00000  Uiso   1.00
H418   H     0.55021   0.61927   0.08591   0.00000  Uiso   1.00
H419   H     0.51943   0.61136   0.02768   0.00000  Uiso   1.00
H420   H     0.58724   0.62752   0.04005   0.00000  Uiso   1.00
C421   C     0.83547   0.42103   0.16738   0.00000  Uiso   1.00
C422   C     0.83087   0.57906   0.16600   0.00000  Uiso   1.00
C423   C     0.73551   0.50154   0.15518   0.00000  Uiso   1.00
C424   C     0.93206   0.50248   0.17828   0.00000  Uiso   1.00
C425   C     0.68292   0.50773   0.14887   0.00000  Uiso   1.00
C426   C     0.98728   0.50585   0.18550   0.00000  Uiso   1.00
C427   C     0.83799   0.35604   0.12616   0.00000  Uiso   1.00
C428   C     0.82623   0.64444   0.20719   0.00000  Uiso   1.00
C429   C     0.81828   0.64612   0.12482   0.00000  Uiso   1.00
C430   C     0.84712   0.35416   0.20895   0.00000  Uiso   1.00
C431   C     0.82962   0.62423   0.16578   0.00000  Uiso   1.00
C432   C     0.83551   0.37597   0.16783   0.00000  Uiso   1.00
C433   C     0.80373   0.46799   0.02174   0.00000  Uiso   1.00
C434   C     0.86200   0.53301   0.31106   0.00000  Uiso   1.00
C435   C     0.80900   0.46590   0.30665   0.00000  Uiso   1.00
C436   C     0.86074   0.53283   0.02728   0.00000  Uiso   1.00
Cu437  Cu    0.83333   0.50001   0.21355   0.00000  Uiso   1.00
Cu438  Cu    0.83333   0.49999   0.11978   0.00000  Uiso   1.00
N439   N     0.83335   0.50001   0.28403   0.00000  Uiso   1.00
N440   N     0.83332   0.49999   0.04931   0.00000  Uiso   1.00
O441   O     0.83333   0.43989   0.20625   0.00000  Uiso   1.00
O442   O     0.83334   0.56011   0.12709   0.00000  Uiso   1.00
O443   O     0.83333   0.43988   0.12706   0.00000  Uiso   1.00
O444   O     0.83334   0.56012   0.20628   0.00000  Uiso   1.00
O445   O     0.75828   0.50000   0.19712   0.00000  Uiso   1.00
O446   O     0.90839   0.50000   0.13621   0.00000  Uiso   1.00
O447   O     0.75828   0.49999   0.11793   0.00000  Uiso   1.00
O448   O     0.90839   0.50001   0.21540   0.00000  Uiso   1.00
S449   S     0.99780   0.52680   0.09185   0.00000  Uiso   1.00
O450   O     0.95252   0.49843   0.06778   0.00000  Uiso   1.00
O451   O     0.98733   0.56995   0.09817   0.00000  Uiso   1.00
O452   O     0.70940   0.53209   0.05584   0.00000  Uiso   1.00
H453   H     0.69586   0.51275   0.02980   0.00000  Uiso   1.00
S454   S     0.67915   0.50522   0.24602   0.00000  Uiso   1.00
O455   O     0.69481   0.46399   0.25575   0.00000  Uiso   1.00
O456   O     0.72398   0.53965   0.25644   0.00000  Uiso   1.00
O457   O     0.97203   0.50993   0.28418   0.00000  Uiso   1.00
H458   H     0.96025   0.48129   0.29580   0.00000  Uiso   1.00
N459   N     0.88375   0.37007   0.10646   0.00000  Uiso   1.00
H460   H     0.91098   0.35186   0.11485   0.00000  Uiso   1.00
C461   C     0.87908   0.38287   0.05859   0.00000  Uiso   1.00
H462   H     0.85835   0.35662   0.03646   0.00000  Uiso   1.00
H463   H     0.91727   0.39280   0.04759   0.00000  Uiso   1.00
H464   H     0.85968   0.41001   0.05425   0.00000  Uiso   1.00
N465   N     0.78052   0.63123   0.22740   0.00000  Uiso   1.00
H466   H     0.75566   0.60605   0.21221   0.00000  Uiso   1.00
C467   C     0.78237   0.63285   0.27708   0.00000  Uiso   1.00
H468   H     0.81001   0.66013   0.29165   0.00000  Uiso   1.00
H469   H     0.79203   0.60341   0.29275   0.00000  Uiso   1.00
H470   H     0.74452   0.63580   0.28596   0.00000  Uiso   1.00
N471   N     0.76791   0.63402   0.10327   0.00000  Uiso   1.00
H472   H     0.74475   0.65508   0.10816   0.00000  Uiso   1.00
C473   C     0.76307   0.62113   0.05578   0.00000  Uiso   1.00
H474   H     0.72260   0.61454   0.04153   0.00000  Uiso   1.00
H475   H     0.77885   0.59225   0.05359   0.00000  Uiso   1.00
H476   H     0.78271   0.64636   0.03489   0.00000  Uiso   1.00
N477   N     0.89868   0.36479   0.22829   0.00000  Uiso   1.00
H478   H     0.91900   0.34084   0.22813   0.00000  Uiso   1.00
C479   C     0.90883   0.38740   0.27137   0.00000  Uiso   1.00
H480   H     0.95018   0.39431   0.28182   0.00000  Uiso   1.00
H481   H     0.89090   0.36810   0.29880   0.00000  Uiso   1.00
H482   H     0.89559   0.41769   0.26739   0.00000  Uiso   1.00
S483   S     0.75375   0.42887   0.04141   0.00000  Uiso   1.00
O484   O     0.76159   0.38582   0.03042   0.00000  Uiso   1.00
O485   O     0.74588   0.42838   0.09140   0.00000  Uiso   1.00
O486   O     0.69919   0.43637   0.01150   0.00000  Uiso   1.00
H487   H     0.67320   0.41369   0.02193   0.00000  Uiso   1.00
S488   S     0.90708   0.57551   0.28881   0.00000  Uiso   1.00
O489   O     0.88598   0.61502   0.28818   0.00000  Uiso   1.00
O490   O     0.95491   0.58153   0.32189   0.00000  Uiso   1.00
O491   O     0.92536   0.57281   0.23622   0.00000  Uiso   1.00
H492   H     0.95094   0.59846   0.23317   0.00000  Uiso   1.00
N493   N     0.80402   0.42540   0.28662   0.00000  Uiso   1.00
H494   H     0.82065   0.40449   0.30751   0.00000  Uiso   1.00
C495   C     0.75761   0.40599   0.25955   0.00000  Uiso   1.00
H496   H     0.76262   0.37582   0.24582   0.00000  Uiso   1.00
H497   H     0.74875   0.42510   0.22875   0.00000  Uiso   1.00
H498   H     0.72586   0.39909   0.28066   0.00000  Uiso   1.00
N499   N     0.89310   0.56444   0.05520   0.00000  Uiso   1.00
H500   H     0.90074   0.55573   0.08876   0.00000  Uiso   1.00
C501   C     0.88647   0.60761   0.05146   0.00000  Uiso   1.00
H502   H     0.88355   0.61927   0.08591   0.00000  Uiso   1.00
H503   H     0.85276   0.61136   0.02768   0.00000  Uiso   1.00
H504   H     0.92057   0.62752   0.04005   0.00000  Uiso   1.00
C505   C     0.16880   0.75436   0.16738   0.00000  Uiso   1.00
C506   C     0.16421   0.91239   0.16600   0.00000  Uiso   1.00
C507   C     0.06884   0.83487   0.15518   0.00000  Uiso   1.00
C508   C     0.26540   0.83581   0.17828   0.00000  Uiso   1.00
C509   C     0.01625   0.84107   0.14887   0.00000  Uiso   1.00
C510   C     0.32062   0.83918   0.18550   0.00000  Uiso   1.00
C511   C     0.17132   0.68938   0.12616   0.00000  Uiso   1.00
C512   C     0.15956   0.97777   0.20719   0.00000  Uiso   1.00
C513   C     0.15162   0.97945   0.12482   0.00000  Uiso   1.00
C514   C     0.18046   0.68750   0.20895   0.00000  Uiso   1.00
C515   C     0.16295   0.95756   0.16578   0.00000  Uiso   1.00
C516   C     0.16884   0.70930   0.16783   0.00000  Uiso   1.00
C517   C     0.13706   0.80132   0.02174   0.00000  Uiso   1.00
C518   C     0.19534   0.86634   0.31106   0.00000  Uiso   1.00
C519   C     0.14234   0.79923   0.30665   0.00000  Uiso   1.00
C520   C     0.19407   0.86617   0.02728   0.00000  Uiso   1.00
Cu521  Cu    0.16667   0.83334   0.21355   0.00000  Uiso   1.00
Cu522  Cu    0.16667   0.83333   0.11978   0.00000  Uiso   1.00
N523   N     0.16668   0.83334   0.28403   0.00000  Uiso   1.00
N524   N     0.16665   0.83332   0.04931   0.00000  Uiso   1.00
O525   O     0.16666   0.77322   0.20625   0.00000  Uiso   1.00
O526   O     0.16667   0.89345   0.12709   0.00000  Uiso   1.00
O527   O     0.16666   0.77321   0.12706   0.00000  Uiso   1.00
O528   O     0.16667   0.89346   0.20628   0.00000  Uiso   1.00
O529   O     0.09161   0.83334   0.19712   0.00000  Uiso   1.00
O530   O     0.24172   0.83333   0.13621   0.00000  Uiso   1.00
O531   O     0.09161   0.83333   0.11793   0.00000  Uiso   1.00
O532   O     0.24172   0.83334   0.21540   0.00000  Uiso   1.00
S533   S     0.33114   0.86013   0.09185   0.00000  Uiso   1.00
O534   O     0.28585   0.83176   0.06778   0.00000  Uiso   1.00
O535   O     0.32066   0.90328   0.09817   0.00000  Uiso   1.00
O536   O     0.04273   0.86542   0.05584   0.00000  Uiso   1.00
H537   H     0.02920   0.84608   0.02980   0.00000  Uiso   1.00
S538   S     0.01248   0.83856   0.24602   0.00000  Uiso   1.00
O539   O     0.02814   0.79732   0.25575   0.00000  Uiso   1.00
O540   O     0.05731   0.87298   0.25644   0.00000  Uiso   1.00
O541   O     0.30536   0.84327   0.28418   0.00000  Uiso   1.00
H542   H     0.29359   0.81462   0.29580   0.00000  Uiso   1.00
N543   N     0.21708   0.70341   0.10646   0.00000  Uiso   1.00
H544   H     0.24431   0.68519   0.11485   0.00000  Uiso   1.00
C545   C     0.21241   0.71620   0.05859   0.00000  Uiso   1.00
H546   H     0.19168   0.68996   0.03646   0.00000  Uiso   1.00
H547   H     0.25060   0.72614   0.04759   0.00000  Uiso   1.00
H548   H     0.19301   0.74334   0.05425   0.00000  Uiso   1.00
N549   N     0.11386   0.96456   0.22740   0.00000  Uiso   1.00
H550   H     0.08899   0.93938   0.21221   0.00000  Uiso   1.00
C551   C     0.11571   0.96618   0.27708   0.00000  Uiso   1.00
H552   H     0.14335   0.99347   0.29165   0.00000  Uiso   1.00
H553   H     0.12537   0.93675   0.29275   0.00000  Uiso   1.00
H554   H     0.07785   0.96914   0.28596   0.00000  Uiso   1.00
N555   N     0.10125   0.96736   0.10327   0.00000  Uiso   1.00
H556   H     0.07808   0.98841   0.10816   0.00000  Uiso   1.00
C557   C     0.09641   0.95447   0.05578   0.00000  Uiso   1.00
H558   H     0.05593   0.94788   0.04153   0.00000  Uiso   1.00
H559   H     0.11219   0.92558   0.05359   0.00000  Uiso   1.00
H560   H     0.11604   0.97969   0.03489   0.00000  Uiso   1.00
N561   N     0.23202   0.69812   0.22829   0.00000  Uiso   1.00
H562   H     0.25233   0.67417   0.22813   0.00000  Uiso   1.00
C563   C     0.24216   0.72074   0.27137   0.00000  Uiso   1.00
H564   H     0.28351   0.72764   0.28182   0.00000  Uiso   1.00
H565   H     0.22423   0.70143   0.29880   0.00000  Uiso   1.00
H566   H     0.22893   0.75102   0.26739   0.00000  Uiso   1.00
S567   S     0.08709   0.76221   0.04141   0.00000  Uiso   1.00
O568   O     0.09492   0.71916   0.03042   0.00000  Uiso   1.00
O569   O     0.07922   0.76172   0.09140   0.00000  Uiso   1.00
O570   O     0.03253   0.76971   0.01150   0.00000  Uiso   1.00
H571   H     0.00653   0.74703   0.02193   0.00000  Uiso   1.00
S572   S     0.24042   0.90885   0.28881   0.00000  Uiso   1.00
O573   O     0.21932   0.94836   0.28818   0.00000  Uiso   1.00
O574   O     0.28825   0.91486   0.32189   0.00000  Uiso   1.00
O575   O     0.25870   0.90615   0.23622   0.00000  Uiso   1.00
H576   H     0.28427   0.93179   0.23317   0.00000  Uiso   1.00
N577   N     0.13735   0.75873   0.28662   0.00000  Uiso   1.00
H578   H     0.15398   0.73782   0.30751   0.00000  Uiso   1.00
C579   C     0.09095   0.73932   0.25955   0.00000  Uiso   1.00
H580   H     0.09595   0.70915   0.24582   0.00000  Uiso   1.00
H581   H     0.08208   0.75844   0.22875   0.00000  Uiso   1.00
H582   H     0.05919   0.73242   0.28066   0.00000  Uiso   1.00
N583   N     0.22643   0.89777   0.05520   0.00000  Uiso   1.00
H584   H     0.23408   0.88906   0.08876   0.00000  Uiso   1.00
C585   C     0.21980   0.94094   0.05146   0.00000  Uiso   1.00
H586   H     0.21688   0.95260   0.08591   0.00000  Uiso   1.00
H587   H     0.18610   0.94469   0.02768   0.00000  Uiso   1.00
H588   H     0.25391   0.96085   0.04005   0.00000  Uiso   1.00
C589   C     0.50214   0.75436   0.16738   0.00000  Uiso   1.00
C590   C     0.49754   0.91239   0.16600   0.00000  Uiso   1.00
C591   C     0.40217   0.83487   0.15518   0.00000  Uiso   1.00
C592   C     0.59873   0.83581   0.17828   0.00000  Uiso   1.00
C593   C     0.34959   0.84107   0.14887   0.00000  Uiso   1.00
C594   C     0.65395   0.83918   0.18550   0.00000  Uiso   1.00
C595   C     0.50466   0.68938   0.12616   0.00000  Uiso   1.00
C596   C     0.49289   0.97777   0.20719   0.00000  Uiso   1.00
C597   C     0.48495   0.97945   0.12482   0.00000  Uiso   1.00
C598   C     0.51379   0.68750   0.20895   0.00000  Uiso   1.00
C599   C     0.49628   0.95756   0.16578   0.00000  Uiso   1.00
C600   C     0.50218   0.70930   0.16783   0.00000  Uiso   1.00
C601   C     0.47039   0.80132   0.02174   0.00000  Uiso   1.00
C602   C     0.52867   0.86634   0.31106   0.00000  Uiso   1.00
C603   C     0.47567   0.79923   0.30665   0.00000  Uiso   1.00
C604   C     0.52740   0.86617   0.02728   0.00000  Uiso   1.00
Cu605  Cu    0.50000   0.83334   0.21355   0.00000  Uiso   1.00
Cu606  Cu    0.50000   0.83333   0.11978   0.00000  Uiso   1.00
N607   N     0.50001   0.83334   0.28403   0.00000  Uiso   1.00
N608   N     0.49999   0.83332   0.04931   0.00000  Uiso   1.00
O609   O     0.50000   0.77322   0.20625   0.00000  Uiso   1.00
O610   O     0.50000   0.89345   0.12709   0.00000  Uiso   1.00
O611   O     0.50000   0.77321   0.12706   0.00000  Uiso   1.00
O612   O     0.50000   0.89346   0.20628   0.00000  Uiso   1.00
O613   O     0.42495   0.83334   0.19712   0.00000  Uiso   1.00
O614   O     0.57505   0.83333   0.13621   0.00000  Uiso   1.00
O615   O     0.42494   0.83333   0.11793   0.00000  Uiso   1.00
O616   O     0.57506   0.83334   0.21540   0.00000  Uiso   1.00
S617   S     0.66447   0.86013   0.09185   0.00000  Uiso   1.00
O618   O     0.61918   0.83176   0.06778   0.00000  Uiso   1.00
O619   O     0.65400   0.90328   0.09817   0.00000  Uiso   1.00
O620   O     0.37606   0.86542   0.05584   0.00000  Uiso   1.00
H621   H     0.36253   0.84608   0.02980   0.00000  Uiso   1.00
S622   S     0.34582   0.83856   0.24602   0.00000  Uiso   1.00
O623   O     0.36148   0.79732   0.25575   0.00000  Uiso   1.00
O624   O     0.39065   0.87298   0.25644   0.00000  Uiso   1.00
O625   O     0.63869   0.84327   0.28418   0.00000  Uiso   1.00
H626   H     0.62692   0.81462   0.29580   0.00000  Uiso   1.00
N627   N     0.55041   0.70341   0.10646   0.00000  Uiso   1.00
H628   H     0.57764   0.68519   0.11485   0.00000  Uiso   1.00
C629   C     0.54575   0.71620   0.05859   0.00000  Uiso   1.00
H630   H     0.52502   0.68996   0.03646   0.00000  Uiso   1.00
H631   H     0.58394   0.72614   0.04759   0.00000  Uiso   1.00
H632   H     0.52635   0.74334   0.05425   0.00000  Uiso   1.00
N633   N     0.44719   0.96456   0.22740   0.00000  Uiso   1.00
H634   H     0.42232   0.93938   0.21221   0.00000  Uiso   1.00
C635   C     0.44904   0.96618   0.27708   0.00000  Uiso   1.00
H636   H     0.47668   0.99347   0.29165   0.00000  Uiso   1.00
H637   H     0.45870   0.93675   0.29275   0.00000  Uiso   1.00
H638   H     0.41119   0.96914   0.28596   0.00000  Uiso   1.00
N639   N     0.43458   0.96736   0.10327   0.00000  Uiso   1.00
H640   H     0.41142   0.98841   0.10816   0.00000  Uiso   1.00
C641   C     0.42974   0.95447   0.05578   0.00000  Uiso   1.00
H642   H     0.38927   0.94788   0.04153   0.00000  Uiso   1.00
H643   H     0.44552   0.92558   0.05359   0.00000  Uiso   1.00
H644   H     0.44938   0.97969   0.03489   0.00000  Uiso   1.00
N645   N     0.56535   0.69812   0.22829   0.00000  Uiso   1.00
H646   H     0.58566   0.67417   0.22813   0.00000  Uiso   1.00
C647   C     0.57549   0.72074   0.27137   0.00000  Uiso   1.00
H648   H     0.61684   0.72764   0.28182   0.00000  Uiso   1.00
H649   H     0.55756   0.70143   0.29880   0.00000  Uiso   1.00
H650   H     0.56226   0.75102   0.26739   0.00000  Uiso   1.00
S651   S     0.42042   0.76221   0.04141   0.00000  Uiso   1.00
O652   O     0.42825   0.71916   0.03042   0.00000  Uiso   1.00
O653   O     0.41255   0.76172   0.09140   0.00000  Uiso   1.00
O654   O     0.36586   0.76971   0.01150   0.00000  Uiso   1.00
H655   H     0.33987   0.74703   0.02193   0.00000  Uiso   1.00
S656   S     0.57375   0.90885   0.28881   0.00000  Uiso   1.00
O657   O     0.55265   0.94836   0.28818   0.00000  Uiso   1.00
O658   O     0.62158   0.91486   0.32189   0.00000  Uiso   1.00
O659   O     0.59203   0.90615   0.23622   0.00000  Uiso   1.00
H660   H     0.61760   0.93179   0.23317   0.00000  Uiso   1.00
N661   N     0.47069   0.75873   0.28662   0.00000  Uiso   1.00
H662   H     0.48732   0.73782   0.30751   0.00000  Uiso   1.00
C663   C     0.42428   0.73932   0.25955   0.00000  Uiso   1.00
H664   H     0.42929   0.70915   0.24582   0.00000  Uiso   1.00
H665   H     0.41541   0.75844   0.22875   0.00000  Uiso   1.00
H666   H     0.39252   0.73242   0.28066   0.00000  Uiso   1.00
N667   N     0.55977   0.89777   0.05520   0.00000  Uiso   1.00
H668   H     0.56741   0.88906   0.08876   0.00000  Uiso   1.00
C669   C     0.55313   0.94094   0.05146   0.00000  Uiso   1.00
H670   H     0.55021   0.95260   0.08591   0.00000  Uiso   1.00
H671   H     0.51943   0.94469   0.02768   0.00000  Uiso   1.00
H672   H     0.58724   0.96085   0.04005   0.00000  Uiso   1.00
C673   C     0.83547   0.75436   0.16738   0.00000  Uiso   1.00
C674   C     0.83087   0.91239   0.16600   0.00000  Uiso   1.00
C675   C     0.73551   0.83487   0.15518   0.00000  Uiso   1.00
C676   C     0.93206   0.83581   0.17828   0.00000  Uiso   1.00
C677   C     0.68292   0.84107   0.14887   0.00000  Uiso   1.00
C678   C     0.98728   0.83918   0.18550   0.00000  Uiso   1.00
C679   C     0.83799   0.68938   0.12616   0.00000  Uiso   1.00
C680   C     0.82623   0.97777   0.20719   0.00000  Uiso   1.00
C681   C     0.81828   0.97945   0.12482   0.00000  Uiso   1.00
C682   C     0.84712   0.68750   0.20895   0.00000  Uiso   1.00
C683   C     0.82962   0.95756   0.16578   0.00000  Uiso   1.00
C684   C     0.83551   0.70930   0.16783   0.00000  Uiso   1.00
C685   C     0.80373   0.80132   0.02174   0.00000  Uiso   1.00
C686   C     0.86200   0.86634   0.31106   0.00000  Uiso   1.00
C687   C     0.80900   0.79923   0.30665   0.00000  Uiso   1.00
C688   C     0.86074   0.86617   0.02728   0.00000  Uiso   1.00
Cu689  Cu    0.83333   0.83334   0.21355   0.00000  Uiso   1.00
Cu690  Cu    0.83333   0.83333   0.11978   0.00000  Uiso   1.00
N691   N     0.83335   0.83334   0.28403   0.00000  Uiso   1.00
N692   N     0.83332   0.83332   0.04931   0.00000  Uiso   1.00
O693   O     0.83333   0.77322   0.20625   0.00000  Uiso   1.00
O694   O     0.83334   0.89345   0.12709   0.00000  Uiso   1.00
O695   O     0.83333   0.77321   0.12706   0.00000  Uiso   1.00
O696   O     0.83334   0.89346   0.20628   0.00000  Uiso   1.00
O697   O     0.75828   0.83334   0.19712   0.00000  Uiso   1.00
O698   O     0.90839   0.83333   0.13621   0.00000  Uiso   1.00
O699   O     0.75828   0.83333   0.11793   0.00000  Uiso   1.00
O700   O     0.90839   0.83334   0.21540   0.00000  Uiso   1.00
S701   S     0.99780   0.86013   0.09185   0.00000  Uiso   1.00
O702   O     0.95252   0.83176   0.06778   0.00000  Uiso   1.00
O703   O     0.98733   0.90328   0.09817   0.00000  Uiso   1.00
O704   O     0.70940   0.86542   0.05584   0.00000  Uiso   1.00
H705   H     0.69586   0.84608   0.02980   0.00000  Uiso   1.00
S706   S     0.67915   0.83856   0.24602   0.00000  Uiso   1.00
O707   O     0.69481   0.79732   0.25575   0.00000  Uiso   1.00
O708   O     0.72398   0.87298   0.25644   0.00000  Uiso   1.00
O709   O     0.97203   0.84327   0.28418   0.00000  Uiso   1.00
H710   H     0.96025   0.81462   0.29580   0.00000  Uiso   1.00
N711   N     0.88375   0.70341   0.10646   0.00000  Uiso   1.00
H712   H     0.91098   0.68519   0.11485   0.00000  Uiso   1.00
C713   C     0.87908   0.71620   0.05859   0.00000  Uiso   1.00
H714   H     0.85835   0.68996   0.03646   0.00000  Uiso   1.00
H715   H     0.91727   0.72614   0.04759   0.00000  Uiso   1.00
H716   H     0.85968   0.74334   0.05425   0.00000  Uiso   1.00
N717   N     0.78052   0.96456   0.22740   0.00000  Uiso   1.00
H718   H     0.75566   0.93938   0.21221   0.00000  Uiso   1.00
C719   C     0.78237   0.96618   0.27708   0.00000  Uiso   1.00
H720   H     0.81001   0.99347   0.29165   0.00000  Uiso   1.00
H721   H     0.79203   0.93675   0.29275   0.00000  Uiso   1.00
H722   H     0.74452   0.96914   0.28596   0.00000  Uiso   1.00
N723   N     0.76791   0.96736   0.10327   0.00000  Uiso   1.00
H724   H     0.74475   0.98841   0.10816   0.00000  Uiso   1.00
C725   C     0.76307   0.95447   0.05578   0.00000  Uiso   1.00
H726   H     0.72260   0.94788   0.04153   0.00000  Uiso   1.00
H727   H     0.77885   0.92558   0.05359   0.00000  Uiso   1.00
H728   H     0.78271   0.97969   0.03489   0.00000  Uiso   1.00
N729   N     0.89868   0.69812   0.22829   0.00000  Uiso   1.00
H730   H     0.91900   0.67417   0.22813   0.00000  Uiso   1.00
C731   C     0.90883   0.72074   0.27137   0.00000  Uiso   1.00
H732   H     0.95018   0.72764   0.28182   0.00000  Uiso   1.00
H733   H     0.89090   0.70143   0.29880   0.00000  Uiso   1.00
H734   H     0.89559   0.75102   0.26739   0.00000  Uiso   1.00
S735   S     0.75375   0.76221   0.04141   0.00000  Uiso   1.00
O736   O     0.76159   0.71916   0.03042   0.00000  Uiso   1.00
O737   O     0.74588   0.76172   0.09140   0.00000  Uiso   1.00
O738   O     0.69919   0.76971   0.01150   0.00000  Uiso   1.00
H739   H     0.67320   0.74703   0.02193   0.00000  Uiso   1.00
S740   S     0.90708   0.90885   0.28881   0.00000  Uiso   1.00
O741   O     0.88598   0.94836   0.28818   0.00000  Uiso   1.00
O742   O     0.95491   0.91486   0.32189   0.00000  Uiso   1.00
O743   O     0.92536   0.90615   0.23622   0.00000  Uiso   1.00
H744   H     0.95094   0.93179   0.23317   0.00000  Uiso   1.00
N745   N     0.80402   0.75873   0.28662   0.00000  Uiso   1.00
H746   H     0.82065   0.73782   0.30751   0.00000  Uiso   1.00
C747   C     0.75761   0.73932   0.25955   0.00000  Uiso   1.00
H748   H     0.76262   0.70915   0.24582   0.00000  Uiso   1.00
H749   H     0.74875   0.75844   0.22875   0.00000  Uiso   1.00
H750   H     0.72586   0.73242   0.28066   0.00000  Uiso   1.00
N751   N     0.89310   0.89777   0.05520   0.00000  Uiso   1.00
H752   H     0.90074   0.88906   0.08876   0.00000  Uiso   1.00
C753   C     0.88647   0.94094   0.05146   0.00000  Uiso   1.00
H754   H     0.88355   0.95260   0.08591   0.00000  Uiso   1.00
H755   H     0.85276   0.94469   0.02768   0.00000  Uiso   1.00
H756   H     0.92057   0.96085   0.04005   0.00000  Uiso   1.00
C757   C     0.16880   0.08770   0.50072   0.00000  Uiso   1.00
C758   C     0.16421   0.24572   0.49934   0.00000  Uiso   1.00
C759   C     0.06884   0.16820   0.48852   0.00000  Uiso   1.00
C760   C     0.26540   0.16914   0.51161   0.00000  Uiso   1.00
C761   C     0.01625   0.17440   0.48220   0.00000  Uiso   1.00
C762   C     0.32062   0.17251   0.51884   0.00000  Uiso   1.00
C763   C     0.17132   0.02271   0.45949   0.00000  Uiso   1.00
C764   C     0.15956   0.31110   0.54053   0.00000  Uiso   1.00
C765   C     0.15162   0.31279   0.45815   0.00000  Uiso   1.00
C766   C     0.18046   0.02083   0.54228   0.00000  Uiso   1.00
C767   C     0.16295   0.29090   0.49912   0.00000  Uiso   1.00
C768   C     0.16884   0.04264   0.50116   0.00000  Uiso   1.00
C769   C     0.13706   0.13465   0.35507   0.00000  Uiso   1.00
C770   C     0.19534   0.19967   0.64439   0.00000  Uiso   1.00
C771   C     0.14234   0.13257   0.63999   0.00000  Uiso   1.00
C772   C     0.19407   0.19950   0.36061   0.00000  Uiso   1.00
Cu773  Cu    0.16667   0.16667   0.54689   0.00000  Uiso   1.00
Cu774  Cu    0.16667   0.16666   0.45311   0.00000  Uiso   1.00
N775   N     0.16668   0.16668   0.61736   0.00000  Uiso   1.00
N776   N     0.16665   0.16666   0.38264   0.00000  Uiso   1.00
O777   O     0.16666   0.10655   0.53958   0.00000  Uiso   1.00
O778   O     0.16667   0.22678   0.46042   0.00000  Uiso   1.00
O779   O     0.16666   0.10654   0.46039   0.00000  Uiso   1.00
O780   O     0.16667   0.22679   0.53961   0.00000  Uiso   1.00
O781   O     0.09161   0.16667   0.53046   0.00000  Uiso   1.00
O782   O     0.24172   0.16666   0.46954   0.00000  Uiso   1.00
O783   O     0.09161   0.16666   0.45127   0.00000  Uiso   1.00
O784   O     0.24172   0.16667   0.54873   0.00000  Uiso   1.00
S785   S     0.33114   0.19346   0.42518   0.00000  Uiso   1.00
O786   O     0.28585   0.16510   0.40112   0.00000  Uiso   1.00
O787   O     0.32066   0.23661   0.43150   0.00000  Uiso   1.00
O788   O     0.04273   0.19875   0.38917   0.00000  Uiso   1.00
H789   H     0.02920   0.17942   0.36314   0.00000  Uiso   1.00
S790   S     0.01248   0.17189   0.57935   0.00000  Uiso   1.00
O791   O     0.02814   0.13065   0.58908   0.00000  Uiso   1.00
O792   O     0.05731   0.20631   0.58977   0.00000  Uiso   1.00
O793   O     0.30536   0.17660   0.61752   0.00000  Uiso   1.00
H794   H     0.29359   0.14796   0.62913   0.00000  Uiso   1.00
N795   N     0.21708   0.03674   0.43979   0.00000  Uiso   1.00
H796   H     0.24431   0.01853   0.44818   0.00000  Uiso   1.00
C797   C     0.21241   0.04953   0.39192   0.00000  Uiso   1.00
H798   H     0.19168   0.02329   0.36980   0.00000  Uiso   1.00
H799   H     0.25060   0.05947   0.38092   0.00000  Uiso   1.00
H800   H     0.19301   0.07668   0.38759   0.00000  Uiso   1.00
N801   N     0.11386   0.29789   0.56073   0.00000  Uiso   1.00
H802   H     0.08899   0.27271   0.54555   0.00000  Uiso   1.00
C803   C     0.11571   0.29952   0.61041   0.00000  Uiso   1.00
H804   H     0.14335   0.32680   0.62498   0.00000  Uiso   1.00
H805   H     0.12537   0.27008   0.62608   0.00000  Uiso   1.00
H806   H     0.07785   0.30247   0.61930   0.00000  Uiso   1.00
N807   N     0.10125   0.30069   0.43660   0.00000  Uiso   1.00
H808   H     0.07808   0.32175   0.44149   0.00000  Uiso   1.00
C809   C     0.09641   0.28780   0.38911   0.00000  Uiso   1.00
H810   H     0.05593   0.28121   0.37486   0.00000  Uiso   1.00
H811   H     0.11219   0.25892   0.38692   0.00000  Uiso   1.00
H812   H     0.11604   0.31302   0.36822   0.00000  Uiso   1.00
N813   N     0.23202   0.03146   0.56162   0.00000  Uiso   1.00
H814   H     0.25233   0.00751   0.56146   0.00000  Uiso   1.00
C815   C     0.24216   0.05407   0.60470   0.00000  Uiso   1.00
H816   H     0.28351   0.06097   0.61516   0.00000  Uiso   1.00
H817   H     0.22423   0.03477   0.63213   0.00000  Uiso   1.00
H818   H     0.22893   0.08435   0.60073   0.00000  Uiso   1.00
S819   S     0.08709   0.09554   0.37475   0.00000  Uiso   1.00
O820   O     0.09492   0.05249   0.36375   0.00000  Uiso   1.00
O821   O     0.07922   0.09505   0.42473   0.00000  Uiso   1.00
O822   O     0.03253   0.10304   0.34483   0.00000  Uiso   1.00
H823   H     0.00653   0.08036   0.35526   0.00000  Uiso   1.00
S824   S     0.24042   0.24218   0.62215   0.00000  Uiso   1.00
O825   O     0.21932   0.28169   0.62152   0.00000  Uiso   1.00
O826   O     0.28825   0.24820   0.65523   0.00000  Uiso   1.00
O827   O     0.25870   0.23948   0.56956   0.00000  Uiso   1.00
H828   H     0.28427   0.26512   0.56651   0.00000  Uiso   1.00
N829   N     0.13735   0.09207   0.61995   0.00000  Uiso   1.00
H830   H     0.15398   0.07115   0.64084   0.00000  Uiso   1.00
C831   C     0.09095   0.07266   0.59288   0.00000  Uiso   1.00
H832   H     0.09595   0.04249   0.57915   0.00000  Uiso   1.00
H833   H     0.08208   0.09177   0.56208   0.00000  Uiso   1.00
H834   H     0.05919   0.06575   0.61399   0.00000  Uiso   1.00
N835   N     0.22643   0.23111   0.38853   0.00000  Uiso   1.00
H836   H     0.23408   0.22240   0.42210   0.00000  Uiso   1.00
C837   C     0.21980   0.27428   0.38480   0.00000  Uiso   1.00
H838   H     0.21688   0.28594   0.41925   0.00000  Uiso   1.00
H839   H     0.18610   0.27802   0.36101   0.00000  Uiso   1.00
H840   H     0.25391   0.29419   0.37338   0.00000  Uiso   1.00
C841   C     0.50214   0.08770   0.50072   0.00000  Uiso   1.00
C842   C     0.49754   0.24572   0.49934   0.00000  Uiso   1.00
C843   C     0.40217   0.16820   0.48852   0.00000  Uiso   1.00
C844   C     0.59873   0.16914   0.51161   0.00000  Uiso   1.00
C845   C     0.34959   0.17440   0.48220   0.00000  Uiso   1.00
C846   C     0.65395   0.17251   0.51884   0.00000  Uiso   1.00
C847   C     0.50466   0.02271   0.45949   0.00000  Uiso   1.00
C848   C     0.49289   0.31110   0.54053   0.00000  Uiso   1.00
C849   C     0.48495   0.31279   0.45815   0.00000  Uiso   1.00
C850   C     0.51379   0.02083   0.54228   0.00000  Uiso   1.00
C851   C     0.49628   0.29090   0.49912   0.00000  Uiso   1.00
C852   C     0.50218   0.04264   0.50116   0.00000  Uiso   1.00
C853   C     0.47039   0.13465   0.35507   0.00000  Uiso   1.00
C854   C     0.52867   0.19967   0.64439   0.00000  Uiso   1.00
C855   C     0.47567   0.13257   0.63999   0.00000  Uiso   1.00
C856   C     0.52740   0.19950   0.36061   0.00000  Uiso   1.00
Cu857  Cu    0.50000   0.16667   0.54689   0.00000  Uiso   1.00
Cu858  Cu    0.50000   0.16666   0.45311   0.00000  Uiso   1.00
N859   N     0.50001   0.16668   0.61736   0.00000  Uiso   1.00
N860   N     0.49999   0.16666   0.38264   0.00000  Uiso   1.00
O861   O     0.50000   0.10655   0.53958   0.00000  Uiso   1.00
O862   O     0.50000   0.22678   0.46042   0.00000  Uiso   1.00
O863   O     0.50000   0.10654   0.46039   0.00000  Uiso   1.00
O864   O     0.50000   0.22679   0.53961   0.00000  Uiso   1.00
O865   O     0.42495   0.16667   0.53046   0.00000  Uiso   1.00
O866   O     0.57505   0.16666   0.46954   0.00000  Uiso   1.00
O867   O     0.42494   0.16666   0.45127   0.00000  Uiso   1.00
O868   O     0.57506   0.16667   0.54873   0.00000  Uiso   1.00
S869   S     0.66447   0.19346   0.42518   0.00000  Uiso   1.00
O870   O     0.61918   0.16510   0.40112   0.00000  Uiso   1.00
O871   O     0.65400   0.23661   0.43150   0.00000  Uiso   1.00
O872   O     0.37606   0.19875   0.38917   0.00000  Uiso   1.00
H873   H     0.36253   0.17942   0.36314   0.00000  Uiso   1.00
S874   S     0.34582   0.17189   0.57935   0.00000  Uiso   1.00
O875   O     0.36148   0.13065   0.58908   0.00000  Uiso   1.00
O876   O     0.39065   0.20631   0.58977   0.00000  Uiso   1.00
O877   O     0.63869   0.17660   0.61752   0.00000  Uiso   1.00
H878   H     0.62692   0.14796   0.62913   0.00000  Uiso   1.00
N879   N     0.55041   0.03674   0.43979   0.00000  Uiso   1.00
H880   H     0.57764   0.01853   0.44818   0.00000  Uiso   1.00
C881   C     0.54575   0.04953   0.39192   0.00000  Uiso   1.00
H882   H     0.52502   0.02329   0.36980   0.00000  Uiso   1.00
H883   H     0.58394   0.05947   0.38092   0.00000  Uiso   1.00
H884   H     0.52635   0.07668   0.38759   0.00000  Uiso   1.00
N885   N     0.44719   0.29789   0.56073   0.00000  Uiso   1.00
H886   H     0.42232   0.27271   0.54555   0.00000  Uiso   1.00
C887   C     0.44904   0.29952   0.61041   0.00000  Uiso   1.00
H888   H     0.47668   0.32680   0.62498   0.00000  Uiso   1.00
H889   H     0.45870   0.27008   0.62608   0.00000  Uiso   1.00
H890   H     0.41119   0.30247   0.61930   0.00000  Uiso   1.00
N891   N     0.43458   0.30069   0.43660   0.00000  Uiso   1.00
H892   H     0.41142   0.32175   0.44149   0.00000  Uiso   1.00
C893   C     0.42974   0.28780   0.38911   0.00000  Uiso   1.00
H894   H     0.38927   0.28121   0.37486   0.00000  Uiso   1.00
H895   H     0.44552   0.25892   0.38692   0.00000  Uiso   1.00
H896   H     0.44938   0.31302   0.36822   0.00000  Uiso   1.00
N897   N     0.56535   0.03146   0.56162   0.00000  Uiso   1.00
H898   H     0.58566   0.00751   0.56146   0.00000  Uiso   1.00
C899   C     0.57549   0.05407   0.60470   0.00000  Uiso   1.00
H900   H     0.61684   0.06097   0.61516   0.00000  Uiso   1.00
H901   H     0.55756   0.03477   0.63213   0.00000  Uiso   1.00
H902   H     0.56226   0.08435   0.60073   0.00000  Uiso   1.00
S903   S     0.42042   0.09554   0.37475   0.00000  Uiso   1.00
O904   O     0.42825   0.05249   0.36375   0.00000  Uiso   1.00
O905   O     0.41255   0.09505   0.42473   0.00000  Uiso   1.00
O906   O     0.36586   0.10304   0.34483   0.00000  Uiso   1.00
H907   H     0.33987   0.08036   0.35526   0.00000  Uiso   1.00
S908   S     0.57375   0.24218   0.62215   0.00000  Uiso   1.00
O909   O     0.55265   0.28169   0.62152   0.00000  Uiso   1.00
O910   O     0.62158   0.24820   0.65523   0.00000  Uiso   1.00
O911   O     0.59203   0.23948   0.56956   0.00000  Uiso   1.00
H912   H     0.61760   0.26512   0.56651   0.00000  Uiso   1.00
N913   N     0.47069   0.09207   0.61995   0.00000  Uiso   1.00
H914   H     0.48732   0.07115   0.64084   0.00000  Uiso   1.00
C915   C     0.42428   0.07266   0.59288   0.00000  Uiso   1.00
H916   H     0.42929   0.04249   0.57915   0.00000  Uiso   1.00
H917   H     0.41541   0.09177   0.56208   0.00000  Uiso   1.00
H918   H     0.39252   0.06575   0.61399   0.00000  Uiso   1.00
N919   N     0.55977   0.23111   0.38853   0.00000  Uiso   1.00
H920   H     0.56741   0.22240   0.42210   0.00000  Uiso   1.00
C921   C     0.55313   0.27428   0.38480   0.00000  Uiso   1.00
H922   H     0.55021   0.28594   0.41925   0.00000  Uiso   1.00
H923   H     0.51943   0.27802   0.36101   0.00000  Uiso   1.00
H924   H     0.58724   0.29419   0.37338   0.00000  Uiso   1.00
C925   C     0.83547   0.08770   0.50072   0.00000  Uiso   1.00
C926   C     0.83087   0.24572   0.49934   0.00000  Uiso   1.00
C927   C     0.73551   0.16820   0.48852   0.00000  Uiso   1.00
C928   C     0.93206   0.16914   0.51161   0.00000  Uiso   1.00
C929   C     0.68292   0.17440   0.48220   0.00000  Uiso   1.00
C930   C     0.98728   0.17251   0.51884   0.00000  Uiso   1.00
C931   C     0.83799   0.02271   0.45949   0.00000  Uiso   1.00
C932   C     0.82623   0.31110   0.54053   0.00000  Uiso   1.00
C933   C     0.81828   0.31279   0.45815   0.00000  Uiso   1.00
C934   C     0.84712   0.02083   0.54228   0.00000  Uiso   1.00
C935   C     0.82962   0.29090   0.49912   0.00000  Uiso   1.00
C936   C     0.83551   0.04264   0.50116   0.00000  Uiso   1.00
C937   C     0.80373   0.13465   0.35507   0.00000  Uiso   1.00
C938   C     0.86200   0.19967   0.64439   0.00000  Uiso   1.00
C939   C     0.80900   0.13257   0.63999   0.00000  Uiso   1.00
C940   C     0.86074   0.19950   0.36061   0.00000  Uiso   1.00
Cu941  Cu    0.83333   0.16667   0.54689   0.00000  Uiso   1.00
Cu942  Cu    0.83333   0.16666   0.45311   0.00000  Uiso   1.00
N943   N     0.83335   0.16668   0.61736   0.00000  Uiso   1.00
N944   N     0.83332   0.16666   0.38264   0.00000  Uiso   1.00
O945   O     0.83333   0.10655   0.53958   0.00000  Uiso   1.00
O946   O     0.83334   0.22678   0.46042   0.00000  Uiso   1.00
O947   O     0.83333   0.10654   0.46039   0.00000  Uiso   1.00
O948   O     0.83334   0.22679   0.53961   0.00000  Uiso   1.00
O949   O     0.75828   0.16667   0.53046   0.00000  Uiso   1.00
O950   O     0.90839   0.16666   0.46954   0.00000  Uiso   1.00
O951   O     0.75828   0.16666   0.45127   0.00000  Uiso   1.00
O952   O     0.90839   0.16667   0.54873   0.00000  Uiso   1.00
S953   S     0.99780   0.19346   0.42518   0.00000  Uiso   1.00
O954   O     0.95252   0.16510   0.40112   0.00000  Uiso   1.00
O955   O     0.98733   0.23661   0.43150   0.00000  Uiso   1.00
O956   O     0.70940   0.19875   0.38917   0.00000  Uiso   1.00
H957   H     0.69586   0.17942   0.36314   0.00000  Uiso   1.00
S958   S     0.67915   0.17189   0.57935   0.00000  Uiso   1.00
O959   O     0.69481   0.13065   0.58908   0.00000  Uiso   1.00
O960   O     0.72398   0.20631   0.58977   0.00000  Uiso   1.00
O961   O     0.97203   0.17660   0.61752   0.00000  Uiso   1.00
H962   H     0.96025   0.14796   0.62913   0.00000  Uiso   1.00
N963   N     0.88375   0.03674   0.43979   0.00000  Uiso   1.00
H964   H     0.91098   0.01853   0.44818   0.00000  Uiso   1.00
C965   C     0.87908   0.04953   0.39192   0.00000  Uiso   1.00
H966   H     0.85835   0.02329   0.36980   0.00000  Uiso   1.00
H967   H     0.91727   0.05947   0.38092   0.00000  Uiso   1.00
H968   H     0.85968   0.07668   0.38759   0.00000  Uiso   1.00
N969   N     0.78052   0.29789   0.56073   0.00000  Uiso   1.00
H970   H     0.75566   0.27271   0.54555   0.00000  Uiso   1.00
C971   C     0.78237   0.29952   0.61041   0.00000  Uiso   1.00
H972   H     0.81001   0.32680   0.62498   0.00000  Uiso   1.00
H973   H     0.79203   0.27008   0.62608   0.00000  Uiso   1.00
H974   H     0.74452   0.30247   0.61930   0.00000  Uiso   1.00
N975   N     0.76791   0.30069   0.43660   0.00000  Uiso   1.00
H976   H     0.74475   0.32175   0.44149   0.00000  Uiso   1.00
C977   C     0.76307   0.28780   0.38911   0.00000  Uiso   1.00
H978   H     0.72260   0.28121   0.37486   0.00000  Uiso   1.00
H979   H     0.77885   0.25892   0.38692   0.00000  Uiso   1.00
H980   H     0.78271   0.31302   0.36822   0.00000  Uiso   1.00
N981   N     0.89868   0.03146   0.56162   0.00000  Uiso   1.00
H982   H     0.91900   0.00751   0.56146   0.00000  Uiso   1.00
C983   C     0.90883   0.05407   0.60470   0.00000  Uiso   1.00
H984   H     0.95018   0.06097   0.61516   0.00000  Uiso   1.00
H985   H     0.89090   0.03477   0.63213   0.00000  Uiso   1.00
H986   H     0.89559   0.08435   0.60073   0.00000  Uiso   1.00
S987   S     0.75375   0.09554   0.37475   0.00000  Uiso   1.00
O988   O     0.76159   0.05249   0.36375   0.00000  Uiso   1.00
O989   O     0.74588   0.09505   0.42473   0.00000  Uiso   1.00
O990   O     0.69919   0.10304   0.34483   0.00000  Uiso   1.00
H991   H     0.67320   0.08036   0.35526   0.00000  Uiso   1.00
S992   S     0.90708   0.24218   0.62215   0.00000  Uiso   1.00
O993   O     0.88598   0.28169   0.62152   0.00000  Uiso   1.00
O994   O     0.95491   0.24820   0.65523   0.00000  Uiso   1.00
O995   O     0.92536   0.23948   0.56956   0.00000  Uiso   1.00
H996   H     0.95094   0.26512   0.56651   0.00000  Uiso   1.00
N997   N     0.80402   0.09207   0.61995   0.00000  Uiso   1.00
H998   H     0.82065   0.07115   0.64084   0.00000  Uiso   1.00
C999   C     0.75761   0.07266   0.59288   0.00000  Uiso   1.00
H1000  H     0.76262   0.04249   0.57915   0.00000  Uiso   1.00
H1001  H     0.74875   0.09177   0.56208   0.00000  Uiso   1.00
H1002  H     0.72586   0.06575   0.61399   0.00000  Uiso   1.00
N1003  N     0.89310   0.23111   0.38853   0.00000  Uiso   1.00
H1004  H     0.90074   0.22240   0.42210   0.00000  Uiso   1.00
C1005  C     0.88647   0.27428   0.38480   0.00000  Uiso   1.00
H1006  H     0.88355   0.28594   0.41925   0.00000  Uiso   1.00
H1007  H     0.85276   0.27802   0.36101   0.00000  Uiso   1.00
H1008  H     0.92057   0.29419   0.37338   0.00000  Uiso   1.00
C1009  C     0.16880   0.42103   0.50072   0.00000  Uiso   1.00
C1010  C     0.16421   0.57906   0.49934   0.00000  Uiso   1.00
C1011  C     0.06884   0.50154   0.48852   0.00000  Uiso   1.00
C1012  C     0.26540   0.50248   0.51161   0.00000  Uiso   1.00
C1013  C     0.01625   0.50773   0.48220   0.00000  Uiso   1.00
C1014  C     0.32062   0.50585   0.51884   0.00000  Uiso   1.00
C1015  C     0.17132   0.35604   0.45949   0.00000  Uiso   1.00
C1016  C     0.15956   0.64444   0.54053   0.00000  Uiso   1.00
C1017  C     0.15162   0.64612   0.45815   0.00000  Uiso   1.00
C1018  C     0.18046   0.35416   0.54228   0.00000  Uiso   1.00
C1019  C     0.16295   0.62423   0.49912   0.00000  Uiso   1.00
C1020  C     0.16884   0.37597   0.50116   0.00000  Uiso   1.00
C1021  C     0.13706   0.46799   0.35507   0.00000  Uiso   1.00
C1022  C     0.19534   0.53301   0.64439   0.00000  Uiso   1.00
C1023  C     0.14234   0.46590   0.63999   0.00000  Uiso   1.00
C1024  C     0.19407   0.53283   0.36061   0.00000  Uiso   1.00
Cu1025 Cu    0.16667   0.50001   0.54689   0.00000  Uiso   1.00
Cu1026 Cu    0.16667   0.49999   0.45311   0.00000  Uiso   1.00
N1027  N     0.16668   0.50001   0.61736   0.00000  Uiso   1.00
N1028  N     0.16665   0.49999   0.38264   0.00000  Uiso   1.00
O1029  O     0.16666   0.43989   0.53958   0.00000  Uiso   1.00
O1030  O     0.16667   0.56011   0.46042   0.00000  Uiso   1.00
O1031  O     0.16666   0.43988   0.46039   0.00000  Uiso   1.00
O1032  O     0.16667   0.56012   0.53961   0.00000  Uiso   1.00
O1033  O     0.09161   0.50000   0.53046   0.00000  Uiso   1.00
O1034  O     0.24172   0.50000   0.46954   0.00000  Uiso   1.00
O1035  O     0.09161   0.49999   0.45127   0.00000  Uiso   1.00
O1036  O     0.24172   0.50001   0.54873   0.00000  Uiso   1.00
S1037  S     0.33114   0.52680   0.42518   0.00000  Uiso   1.00
O1038  O     0.28585   0.49843   0.40112   0.00000  Uiso   1.00
O1039  O     0.32066   0.56995   0.43150   0.00000  Uiso   1.00
O1040  O     0.04273   0.53209   0.38917   0.00000  Uiso   1.00
H1041  H     0.02920   0.51275   0.36314   0.00000  Uiso   1.00
S1042  S     0.01248   0.50522   0.57935   0.00000  Uiso   1.00
O1043  O     0.02814   0.46399   0.58908   0.00000  Uiso   1.00
O1044  O     0.05731   0.53965   0.58977   0.00000  Uiso   1.00
O1045  O     0.30536   0.50993   0.61752   0.00000  Uiso   1.00
H1046  H     0.29359   0.48129   0.62913   0.00000  Uiso   1.00
N1047  N     0.21708   0.37007   0.43979   0.00000  Uiso   1.00
H1048  H     0.24431   0.35186   0.44818   0.00000  Uiso   1.00
C1049  C     0.21241   0.38287   0.39192   0.00000  Uiso   1.00
H1050  H     0.19168   0.35662   0.36980   0.00000  Uiso   1.00
H1051  H     0.25060   0.39280   0.38092   0.00000  Uiso   1.00
H1052  H     0.19301   0.41001   0.38759   0.00000  Uiso   1.00
N1053  N     0.11386   0.63123   0.56073   0.00000  Uiso   1.00
H1054  H     0.08899   0.60605   0.54555   0.00000  Uiso   1.00
C1055  C     0.11571   0.63285   0.61041   0.00000  Uiso   1.00
H1056  H     0.14335   0.66013   0.62498   0.00000  Uiso   1.00
H1057  H     0.12537   0.60341   0.62608   0.00000  Uiso   1.00
H1058  H     0.07785   0.63580   0.61930   0.00000  Uiso   1.00
N1059  N     0.10125   0.63402   0.43660   0.00000  Uiso   1.00
H1060  H     0.07808   0.65508   0.44149   0.00000  Uiso   1.00
C1061  C     0.09641   0.62113   0.38911   0.00000  Uiso   1.00
H1062  H     0.05593   0.61454   0.37486   0.00000  Uiso   1.00
H1063  H     0.11219   0.59225   0.38692   0.00000  Uiso   1.00
H1064  H     0.11604   0.64636   0.36822   0.00000  Uiso   1.00
N1065  N     0.23202   0.36479   0.56162   0.00000  Uiso   1.00
H1066  H     0.25233   0.34084   0.56146   0.00000  Uiso   1.00
C1067  C     0.24216   0.38740   0.60470   0.00000  Uiso   1.00
H1068  H     0.28351   0.39431   0.61516   0.00000  Uiso   1.00
H1069  H     0.22423   0.36810   0.63213   0.00000  Uiso   1.00
H1070  H     0.22893   0.41769   0.60073   0.00000  Uiso   1.00
S1071  S     0.08709   0.42887   0.37475   0.00000  Uiso   1.00
O1072  O     0.09492   0.38582   0.36375   0.00000  Uiso   1.00
O1073  O     0.07922   0.42838   0.42473   0.00000  Uiso   1.00
O1074  O     0.03253   0.43637   0.34483   0.00000  Uiso   1.00
H1075  H     0.00653   0.41369   0.35526   0.00000  Uiso   1.00
S1076  S     0.24042   0.57551   0.62215   0.00000  Uiso   1.00
O1077  O     0.21932   0.61502   0.62152   0.00000  Uiso   1.00
O1078  O     0.28825   0.58153   0.65523   0.00000  Uiso   1.00
O1079  O     0.25870   0.57281   0.56956   0.00000  Uiso   1.00
H1080  H     0.28427   0.59846   0.56651   0.00000  Uiso   1.00
N1081  N     0.13735   0.42540   0.61995   0.00000  Uiso   1.00
H1082  H     0.15398   0.40449   0.64084   0.00000  Uiso   1.00
C1083  C     0.09095   0.40599   0.59288   0.00000  Uiso   1.00
H1084  H     0.09595   0.37582   0.57915   0.00000  Uiso   1.00
H1085  H     0.08208   0.42510   0.56208   0.00000  Uiso   1.00
H1086  H     0.05919   0.39909   0.61399   0.00000  Uiso   1.00
N1087  N     0.22643   0.56444   0.38853   0.00000  Uiso   1.00
H1088  H     0.23408   0.55573   0.42210   0.00000  Uiso   1.00
C1089  C     0.21980   0.60761   0.38480   0.00000  Uiso   1.00
H1090  H     0.21688   0.61927   0.41925   0.00000  Uiso   1.00
H1091  H     0.18610   0.61136   0.36101   0.00000  Uiso   1.00
H1092  H     0.25391   0.62752   0.37338   0.00000  Uiso   1.00
C1093  C     0.50214   0.42103   0.50072   0.00000  Uiso   1.00
C1094  C     0.49754   0.57906   0.49934   0.00000  Uiso   1.00
C1095  C     0.40217   0.50154   0.48852   0.00000  Uiso   1.00
C1096  C     0.59873   0.50248   0.51161   0.00000  Uiso   1.00
C1097  C     0.34959   0.50773   0.48220   0.00000  Uiso   1.00
C1098  C     0.65395   0.50585   0.51884   0.00000  Uiso   1.00
C1099  C     0.50466   0.35604   0.45949   0.00000  Uiso   1.00
C1100  C     0.49289   0.64444   0.54053   0.00000  Uiso   1.00
C1101  C     0.48495   0.64612   0.45815   0.00000  Uiso   1.00
C1102  C     0.51379   0.35416   0.54228   0.00000  Uiso   1.00
C1103  C     0.49628   0.62423   0.49912   0.00000  Uiso   1.00
C1104  C     0.50218   0.37597   0.50116   0.00000  Uiso   1.00
C1105  C     0.47039   0.46799   0.35507   0.00000  Uiso   1.00
C1106  C     0.52867   0.53301   0.64439   0.00000  Uiso   1.00
C1107  C     0.47567   0.46590   0.63999   0.00000  Uiso   1.00
C1108  C     0.52740   0.53283   0.36061   0.00000  Uiso   1.00
Cu1109 Cu    0.50000   0.50001   0.54689   0.00000  Uiso   1.00
Cu1110 Cu    0.50000   0.49999   0.45311   0.00000  Uiso   1.00
N1111  N     0.50001   0.50001   0.61736   0.00000  Uiso   1.00
N1112  N     0.49999   0.49999   0.38264   0.00000  Uiso   1.00
O1113  O     0.50000   0.43989   0.53958   0.00000  Uiso   1.00
O1114  O     0.50000   0.56011   0.46042   0.00000  Uiso   1.00
O1115  O     0.50000   0.43988   0.46039   0.00000  Uiso   1.00
O1116  O     0.50000   0.56012   0.53961   0.00000  Uiso   1.00
O1117  O     0.42495   0.50000   0.53046   0.00000  Uiso   1.00
O1118  O     0.57505   0.50000   0.46954   0.00000  Uiso   1.00
O1119  O     0.42494   0.49999   0.45127   0.00000  Uiso   1.00
O1120  O     0.57506   0.50001   0.54873   0.00000  Uiso   1.00
S1121  S     0.66447   0.52680   0.42518   0.00000  Uiso   1.00
O1122  O     0.61918   0.49843   0.40112   0.00000  Uiso   1.00
O1123  O     0.65400   0.56995   0.43150   0.00000  Uiso   1.00
O1124  O     0.37606   0.53209   0.38917   0.00000  Uiso   1.00
H1125  H     0.36253   0.51275   0.36314   0.00000  Uiso   1.00
S1126  S     0.34582   0.50522   0.57935   0.00000  Uiso   1.00
O1127  O     0.36148   0.46399   0.58908   0.00000  Uiso   1.00
O1128  O     0.39065   0.53965   0.58977   0.00000  Uiso   1.00
O1129  O     0.63869   0.50993   0.61752   0.00000  Uiso   1.00
H1130  H     0.62692   0.48129   0.62913   0.00000  Uiso   1.00
N1131  N     0.55041   0.37007   0.43979   0.00000  Uiso   1.00
H1132  H     0.57764   0.35186   0.44818   0.00000  Uiso   1.00
C1133  C     0.54575   0.38287   0.39192   0.00000  Uiso   1.00
H1134  H     0.52502   0.35662   0.36980   0.00000  Uiso   1.00
H1135  H     0.58394   0.39280   0.38092   0.00000  Uiso   1.00
H1136  H     0.52635   0.41001   0.38759   0.00000  Uiso   1.00
N1137  N     0.44719   0.63123   0.56073   0.00000  Uiso   1.00
H1138  H     0.42232   0.60605   0.54555   0.00000  Uiso   1.00
C1139  C     0.44904   0.63285   0.61041   0.00000  Uiso   1.00
H1140  H     0.47668   0.66013   0.62498   0.00000  Uiso   1.00
H1141  H     0.45870   0.60341   0.62608   0.00000  Uiso   1.00
H1142  H     0.41119   0.63580   0.61930   0.00000  Uiso   1.00
N1143  N     0.43458   0.63402   0.43660   0.00000  Uiso   1.00
H1144  H     0.41142   0.65508   0.44149   0.00000  Uiso   1.00
C1145  C     0.42974   0.62113   0.38911   0.00000  Uiso   1.00
H1146  H     0.38927   0.61454   0.37486   0.00000  Uiso   1.00
H1147  H     0.44552   0.59225   0.38692   0.00000  Uiso   1.00
H1148  H     0.44938   0.64636   0.36822   0.00000  Uiso   1.00
N1149  N     0.56535   0.36479   0.56162   0.00000  Uiso   1.00
H1150  H     0.58566   0.34084   0.56146   0.00000  Uiso   1.00
C1151  C     0.57549   0.38740   0.60470   0.00000  Uiso   1.00
H1152  H     0.61684   0.39431   0.61516   0.00000  Uiso   1.00
H1153  H     0.55756   0.36810   0.63213   0.00000  Uiso   1.00
H1154  H     0.56226   0.41769   0.60073   0.00000  Uiso   1.00
S1155  S     0.42042   0.42887   0.37475   0.00000  Uiso   1.00
O1156  O     0.42825   0.38582   0.36375   0.00000  Uiso   1.00
O1157  O     0.41255   0.42838   0.42473   0.00000  Uiso   1.00
O1158  O     0.36586   0.43637   0.34483   0.00000  Uiso   1.00
H1159  H     0.33987   0.41369   0.35526   0.00000  Uiso   1.00
S1160  S     0.57375   0.57551   0.62215   0.00000  Uiso   1.00
O1161  O     0.55265   0.61502   0.62152   0.00000  Uiso   1.00
O1162  O     0.62158   0.58153   0.65523   0.00000  Uiso   1.00
O1163  O     0.59203   0.57281   0.56956   0.00000  Uiso   1.00
H1164  H     0.61760   0.59846   0.56651   0.00000  Uiso   1.00
N1165  N     0.47069   0.42540   0.61995   0.00000  Uiso   1.00
H1166  H     0.48732   0.40449   0.64084   0.00000  Uiso   1.00
C1167  C     0.42428   0.40599   0.59288   0.00000  Uiso   1.00
H1168  H     0.42929   0.37582   0.57915   0.00000  Uiso   1.00
H1169  H     0.41541   0.42510   0.56208   0.00000  Uiso   1.00
H1170  H     0.39252   0.39909   0.61399   0.00000  Uiso   1.00
N1171  N     0.55977   0.56444   0.38853   0.00000  Uiso   1.00
H1172  H     0.56741   0.55573   0.42210   0.00000  Uiso   1.00
C1173  C     0.55313   0.60761   0.38480   0.00000  Uiso   1.00
H1174  H     0.55021   0.61927   0.41925   0.00000  Uiso   1.00
H1175  H     0.51943   0.61136   0.36101   0.00000  Uiso   1.00
H1176  H     0.58724   0.62752   0.37338   0.00000  Uiso   1.00
C1177  C     0.83547   0.42103   0.50072   0.00000  Uiso   1.00
C1178  C     0.83087   0.57906   0.49934   0.00000  Uiso   1.00
C1179  C     0.73551   0.50154   0.48852   0.00000  Uiso   1.00
C1180  C     0.93206   0.50248   0.51161   0.00000  Uiso   1.00
C1181  C     0.68292   0.50773   0.48220   0.00000  Uiso   1.00
C1182  C     0.98728   0.50585   0.51884   0.00000  Uiso   1.00
C1183  C     0.83799   0.35604   0.45949   0.00000  Uiso   1.00
C1184  C     0.82623   0.64444   0.54053   0.00000  Uiso   1.00
C1185  C     0.81828   0.64612   0.45815   0.00000  Uiso   1.00
C1186  C     0.84712   0.35416   0.54228   0.00000  Uiso   1.00
C1187  C     0.82962   0.62423   0.49912   0.00000  Uiso   1.00
C1188  C     0.83551   0.37597   0.50116   0.00000  Uiso   1.00
C1189  C     0.80373   0.46799   0.35507   0.00000  Uiso   1.00
C1190  C     0.86200   0.53301   0.64439   0.00000  Uiso   1.00
C1191  C     0.80900   0.46590   0.63999   0.00000  Uiso   1.00
C1192  C     0.86074   0.53283   0.36061   0.00000  Uiso   1.00
Cu1193 Cu    0.83333   0.50001   0.54689   0.00000  Uiso   1.00
Cu1194 Cu    0.83333   0.49999   0.45311   0.00000  Uiso   1.00
N1195  N     0.83335   0.50001   0.61736   0.00000  Uiso   1.00
N1196  N     0.83332   0.49999   0.38264   0.00000  Uiso   1.00
O1197  O     0.83333   0.43989   0.53958   0.00000  Uiso   1.00
O1198  O     0.83334   0.56011   0.46042   0.00000  Uiso   1.00
O1199  O     0.83333   0.43988   0.46039   0.00000  Uiso   1.00
O1200  O     0.83334   0.56012   0.53961   0.00000  Uiso   1.00
O1201  O     0.75828   0.50000   0.53046   0.00000  Uiso   1.00
O1202  O     0.90839   0.50000   0.46954   0.00000  Uiso   1.00
O1203  O     0.75828   0.49999   0.45127   0.00000  Uiso   1.00
O1204  O     0.90839   0.50001   0.54873   0.00000  Uiso   1.00
S1205  S     0.99780   0.52680   0.42518   0.00000  Uiso   1.00
O1206  O     0.95252   0.49843   0.40112   0.00000  Uiso   1.00
O1207  O     0.98733   0.56995   0.43150   0.00000  Uiso   1.00
O1208  O     0.70940   0.53209   0.38917   0.00000  Uiso   1.00
H1209  H     0.69586   0.51275   0.36314   0.00000  Uiso   1.00
S1210  S     0.67915   0.50522   0.57935   0.00000  Uiso   1.00
O1211  O     0.69481   0.46399   0.58908   0.00000  Uiso   1.00
O1212  O     0.72398   0.53965   0.58977   0.00000  Uiso   1.00
O1213  O     0.97203   0.50993   0.61752   0.00000  Uiso   1.00
H1214  H     0.96025   0.48129   0.62913   0.00000  Uiso   1.00
N1215  N     0.88375   0.37007   0.43979   0.00000  Uiso   1.00
H1216  H     0.91098   0.35186   0.44818   0.00000  Uiso   1.00
C1217  C     0.87908   0.38287   0.39192   0.00000  Uiso   1.00
H1218  H     0.85835   0.35662   0.36980   0.00000  Uiso   1.00
H1219  H     0.91727   0.39280   0.38092   0.00000  Uiso   1.00
H1220  H     0.85968   0.41001   0.38759   0.00000  Uiso   1.00
N1221  N     0.78052   0.63123   0.56073   0.00000  Uiso   1.00
H1222  H     0.75566   0.60605   0.54555   0.00000  Uiso   1.00
C1223  C     0.78237   0.63285   0.61041   0.00000  Uiso   1.00
H1224  H     0.81001   0.66013   0.62498   0.00000  Uiso   1.00
H1225  H     0.79203   0.60341   0.62608   0.00000  Uiso   1.00
H1226  H     0.74452   0.63580   0.61930   0.00000  Uiso   1.00
N1227  N     0.76791   0.63402   0.43660   0.00000  Uiso   1.00
H1228  H     0.74475   0.65508   0.44149   0.00000  Uiso   1.00
C1229  C     0.76307   0.62113   0.38911   0.00000  Uiso   1.00
H1230  H     0.72260   0.61454   0.37486   0.00000  Uiso   1.00
H1231  H     0.77885   0.59225   0.38692   0.00000  Uiso   1.00
H1232  H     0.78271   0.64636   0.36822   0.00000  Uiso   1.00
N1233  N     0.89868   0.36479   0.56162   0.00000  Uiso   1.00
H1234  H     0.91900   0.34084   0.56146   0.00000  Uiso   1.00
C1235  C     0.90883   0.38740   0.60470   0.00000  Uiso   1.00
H1236  H     0.95018   0.39431   0.61516   0.00000  Uiso   1.00
H1237  H     0.89090   0.36810   0.63213   0.00000  Uiso   1.00
H1238  H     0.89559   0.41769   0.60073   0.00000  Uiso   1.00
S1239  S     0.75375   0.42887   0.37475   0.00000  Uiso   1.00
O1240  O     0.76159   0.38582   0.36375   0.00000  Uiso   1.00
O1241  O     0.74588   0.42838   0.42473   0.00000  Uiso   1.00
O1242  O     0.69919   0.43637   0.34483   0.00000  Uiso   1.00
H1243  H     0.67320   0.41369   0.35526   0.00000  Uiso   1.00
S1244  S     0.90708   0.57551   0.62215   0.00000  Uiso   1.00
O1245  O     0.88598   0.61502   0.62152   0.00000  Uiso   1.00
O1246  O     0.95491   0.58153   0.65523   0.00000  Uiso   1.00
O1247  O     0.92536   0.57281   0.56956   0.00000  Uiso   1.00
H1248  H     0.95094   0.59846   0.56651   0.00000  Uiso   1.00
N1249  N     0.80402   0.42540   0.61995   0.00000  Uiso   1.00
H1250  H     0.82065   0.40449   0.64084   0.00000  Uiso   1.00
C1251  C     0.75761   0.40599   0.59288   0.00000  Uiso   1.00
H1252  H     0.76262   0.37582   0.57915   0.00000  Uiso   1.00
H1253  H     0.74875   0.42510   0.56208   0.00000  Uiso   1.00
H1254  H     0.72586   0.39909   0.61399   0.00000  Uiso   1.00
N1255  N     0.89310   0.56444   0.38853   0.00000  Uiso   1.00
H1256  H     0.90074   0.55573   0.42210   0.00000  Uiso   1.00
C1257  C     0.88647   0.60761   0.38480   0.00000  Uiso   1.00
H1258  H     0.88355   0.61927   0.41925   0.00000  Uiso   1.00
H1259  H     0.85276   0.61136   0.36101   0.00000  Uiso   1.00
H1260  H     0.92057   0.62752   0.37338   0.00000  Uiso   1.00
C1261  C     0.16880   0.75436   0.50072   0.00000  Uiso   1.00
C1262  C     0.16421   0.91239   0.49934   0.00000  Uiso   1.00
C1263  C     0.06884   0.83487   0.48852   0.00000  Uiso   1.00
C1264  C     0.26540   0.83581   0.51161   0.00000  Uiso   1.00
C1265  C     0.01625   0.84107   0.48220   0.00000  Uiso   1.00
C1266  C     0.32062   0.83918   0.51884   0.00000  Uiso   1.00
C1267  C     0.17132   0.68938   0.45949   0.00000  Uiso   1.00
C1268  C     0.15956   0.97777   0.54053   0.00000  Uiso   1.00
C1269  C     0.15162   0.97945   0.45815   0.00000  Uiso   1.00
C1270  C     0.18046   0.68750   0.54228   0.00000  Uiso   1.00
C1271  C     0.16295   0.95756   0.49912   0.00000  Uiso   1.00
C1272  C     0.16884   0.70930   0.50116   0.00000  Uiso   1.00
C1273  C     0.13706   0.80132   0.35507   0.00000  Uiso   1.00
C1274  C     0.19534   0.86634   0.64439   0.00000  Uiso   1.00
C1275  C     0.14234   0.79923   0.63999   0.00000  Uiso   1.00
C1276  C     0.19407   0.86617   0.36061   0.00000  Uiso   1.00
Cu1277 Cu    0.16667   0.83334   0.54689   0.00000  Uiso   1.00
Cu1278 Cu    0.16667   0.83333   0.45311   0.00000  Uiso   1.00
N1279  N     0.16668   0.83334   0.61736   0.00000  Uiso   1.00
N1280  N     0.16665   0.83332   0.38264   0.00000  Uiso   1.00
O1281  O     0.16666   0.77322   0.53958   0.00000  Uiso   1.00
O1282  O     0.16667   0.89345   0.46042   0.00000  Uiso   1.00
O1283  O     0.16666   0.77321   0.46039   0.00000  Uiso   1.00
O1284  O     0.16667   0.89346   0.53961   0.00000  Uiso   1.00
O1285  O     0.09161   0.83334   0.53046   0.00000  Uiso   1.00
O1286  O     0.24172   0.83333   0.46954   0.00000  Uiso   1.00
O1287  O     0.09161   0.83333   0.45127   0.00000  Uiso   1.00
O1288  O     0.24172   0.83334   0.54873   0.00000  Uiso   1.00
S1289  S     0.33114   0.86013   0.42518   0.00000  Uiso   1.00
O1290  O     0.28585   0.83176   0.40112   0.00000  Uiso   1.00
O1291  O     0.32066   0.90328   0.43150   0.00000  Uiso   1.00
O1292  O     0.04273   0.86542   0.38917   0.00000  Uiso   1.00
H1293  H     0.02920   0.84608   0.36314   0.00000  Uiso   1.00
S1294  S     0.01248   0.83856   0.57935   0.00000  Uiso   1.00
O1295  O     0.02814   0.79732   0.58908   0.00000  Uiso   1.00
O1296  O     0.05731   0.87298   0.58977   0.00000  Uiso   1.00
O1297  O     0.30536   0.84327   0.61752   0.00000  Uiso   1.00
H1298  H     0.29359   0.81462   0.62913   0.00000  Uiso   1.00
N1299  N     0.21708   0.70341   0.43979   0.00000  Uiso   1.00
H1300  H     0.24431   0.68519   0.44818   0.00000  Uiso   1.00
C1301  C     0.21241   0.71620   0.39192   0.00000  Uiso   1.00
H1302  H     0.19168   0.68996   0.36980   0.00000  Uiso   1.00
H1303  H     0.25060   0.72614   0.38092   0.00000  Uiso   1.00
H1304  H     0.19301   0.74334   0.38759   0.00000  Uiso   1.00
N1305  N     0.11386   0.96456   0.56073   0.00000  Uiso   1.00
H1306  H     0.08899   0.93938   0.54555   0.00000  Uiso   1.00
C1307  C     0.11571   0.96618   0.61041   0.00000  Uiso   1.00
H1308  H     0.14335   0.99347   0.62498   0.00000  Uiso   1.00
H1309  H     0.12537   0.93675   0.62608   0.00000  Uiso   1.00
H1310  H     0.07785   0.96914   0.61930   0.00000  Uiso   1.00
N1311  N     0.10125   0.96736   0.43660   0.00000  Uiso   1.00
H1312  H     0.07808   0.98841   0.44149   0.00000  Uiso   1.00
C1313  C     0.09641   0.95447   0.38911   0.00000  Uiso   1.00
H1314  H     0.05593   0.94788   0.37486   0.00000  Uiso   1.00
H1315  H     0.11219   0.92558   0.38692   0.00000  Uiso   1.00
H1316  H     0.11604   0.97969   0.36822   0.00000  Uiso   1.00
N1317  N     0.23202   0.69812   0.56162   0.00000  Uiso   1.00
H1318  H     0.25233   0.67417   0.56146   0.00000  Uiso   1.00
C1319  C     0.24216   0.72074   0.60470   0.00000  Uiso   1.00
H1320  H     0.28351   0.72764   0.61516   0.00000  Uiso   1.00
H1321  H     0.22423   0.70143   0.63213   0.00000  Uiso   1.00
H1322  H     0.22893   0.75102   0.60073   0.00000  Uiso   1.00
S1323  S     0.08709   0.76221   0.37475   0.00000  Uiso   1.00
O1324  O     0.09492   0.71916   0.36375   0.00000  Uiso   1.00
O1325  O     0.07922   0.76172   0.42473   0.00000  Uiso   1.00
O1326  O     0.03253   0.76971   0.34483   0.00000  Uiso   1.00
H1327  H     0.00653   0.74703   0.35526   0.00000  Uiso   1.00
S1328  S     0.24042   0.90885   0.62215   0.00000  Uiso   1.00
O1329  O     0.21932   0.94836   0.62152   0.00000  Uiso   1.00
O1330  O     0.28825   0.91486   0.65523   0.00000  Uiso   1.00
O1331  O     0.25870   0.90615   0.56956   0.00000  Uiso   1.00
H1332  H     0.28427   0.93179   0.56651   0.00000  Uiso   1.00
N1333  N     0.13735   0.75873   0.61995   0.00000  Uiso   1.00
H1334  H     0.15398   0.73782   0.64084   0.00000  Uiso   1.00
C1335  C     0.09095   0.73932   0.59288   0.00000  Uiso   1.00
H1336  H     0.09595   0.70915   0.57915   0.00000  Uiso   1.00
H1337  H     0.08208   0.75844   0.56208   0.00000  Uiso   1.00
H1338  H     0.05919   0.73242   0.61399   0.00000  Uiso   1.00
N1339  N     0.22643   0.89777   0.38853   0.00000  Uiso   1.00
H1340  H     0.23408   0.88906   0.42210   0.00000  Uiso   1.00
C1341  C     0.21980   0.94094   0.38480   0.00000  Uiso   1.00
H1342  H     0.21688   0.95260   0.41925   0.00000  Uiso   1.00
H1343  H     0.18610   0.94469   0.36101   0.00000  Uiso   1.00
H1344  H     0.25391   0.96085   0.37338   0.00000  Uiso   1.00
C1345  C     0.50214   0.75436   0.50072   0.00000  Uiso   1.00
C1346  C     0.49754   0.91239   0.49934   0.00000  Uiso   1.00
C1347  C     0.40217   0.83487   0.48852   0.00000  Uiso   1.00
C1348  C     0.59873   0.83581   0.51161   0.00000  Uiso   1.00
C1349  C     0.34959   0.84107   0.48220   0.00000  Uiso   1.00
C1350  C     0.65395   0.83918   0.51884   0.00000  Uiso   1.00
C1351  C     0.50466   0.68938   0.45949   0.00000  Uiso   1.00
C1352  C     0.49289   0.97777   0.54053   0.00000  Uiso   1.00
C1353  C     0.48495   0.97945   0.45815   0.00000  Uiso   1.00
C1354  C     0.51379   0.68750   0.54228   0.00000  Uiso   1.00
C1355  C     0.49628   0.95756   0.49912   0.00000  Uiso   1.00
C1356  C     0.50218   0.70930   0.50116   0.00000  Uiso   1.00
C1357  C     0.47039   0.80132   0.35507   0.00000  Uiso   1.00
C1358  C     0.52867   0.86634   0.64439   0.00000  Uiso   1.00
C1359  C     0.47567   0.79923   0.63999   0.00000  Uiso   1.00
C1360  C     0.52740   0.86617   0.36061   0.00000  Uiso   1.00
Cu1361 Cu    0.50000   0.83334   0.54689   0.00000  Uiso   1.00
Cu1362 Cu    0.50000   0.83333   0.45311   0.00000  Uiso   1.00
N1363  N     0.50001   0.83334   0.61736   0.00000  Uiso   1.00
N1364  N     0.49999   0.83332   0.38264   0.00000  Uiso   1.00
O1365  O     0.50000   0.77322   0.53958   0.00000  Uiso   1.00
O1366  O     0.50000   0.89345   0.46042   0.00000  Uiso   1.00
O1367  O     0.50000   0.77321   0.46039   0.00000  Uiso   1.00
O1368  O     0.50000   0.89346   0.53961   0.00000  Uiso   1.00
O1369  O     0.42495   0.83334   0.53046   0.00000  Uiso   1.00
O1370  O     0.57505   0.83333   0.46954   0.00000  Uiso   1.00
O1371  O     0.42494   0.83333   0.45127   0.00000  Uiso   1.00
O1372  O     0.57506   0.83334   0.54873   0.00000  Uiso   1.00
S1373  S     0.66447   0.86013   0.42518   0.00000  Uiso   1.00
O1374  O     0.61918   0.83176   0.40112   0.00000  Uiso   1.00
O1375  O     0.65400   0.90328   0.43150   0.00000  Uiso   1.00
O1376  O     0.37606   0.86542   0.38917   0.00000  Uiso   1.00
H1377  H     0.36253   0.84608   0.36314   0.00000  Uiso   1.00
S1378  S     0.34582   0.83856   0.57935   0.00000  Uiso   1.00
O1379  O     0.36148   0.79732   0.58908   0.00000  Uiso   1.00
O1380  O     0.39065   0.87298   0.58977   0.00000  Uiso   1.00
O1381  O     0.63869   0.84327   0.61752   0.00000  Uiso   1.00
H1382  H     0.62692   0.81462   0.62913   0.00000  Uiso   1.00
N1383  N     0.55041   0.70341   0.43979   0.00000  Uiso   1.00
H1384  H     0.57764   0.68519   0.44818   0.00000  Uiso   1.00
C1385  C     0.54575   0.71620   0.39192   0.00000  Uiso   1.00
H1386  H     0.52502   0.68996   0.36980   0.00000  Uiso   1.00
H1387  H     0.58394   0.72614   0.38092   0.00000  Uiso   1.00
H1388  H     0.52635   0.74334   0.38759   0.00000  Uiso   1.00
N1389  N     0.44719   0.96456   0.56073   0.00000  Uiso   1.00
H1390  H     0.42232   0.93938   0.54555   0.00000  Uiso   1.00
C1391  C     0.44904   0.96618   0.61041   0.00000  Uiso   1.00
H1392  H     0.47668   0.99347   0.62498   0.00000  Uiso   1.00
H1393  H     0.45870   0.93675   0.62608   0.00000  Uiso   1.00
H1394  H     0.41119   0.96914   0.61930   0.00000  Uiso   1.00
N1395  N     0.43458   0.96736   0.43660   0.00000  Uiso   1.00
H1396  H     0.41142   0.98841   0.44149   0.00000  Uiso   1.00
C1397  C     0.42974   0.95447   0.38911   0.00000  Uiso   1.00
H1398  H     0.38927   0.94788   0.37486   0.00000  Uiso   1.00
H1399  H     0.44552   0.92558   0.38692   0.00000  Uiso   1.00
H1400  H     0.44938   0.97969   0.36822   0.00000  Uiso   1.00
N1401  N     0.56535   0.69812   0.56162   0.00000  Uiso   1.00
H1402  H     0.58566   0.67417   0.56146   0.00000  Uiso   1.00
C1403  C     0.57549   0.72074   0.60470   0.00000  Uiso   1.00
H1404  H     0.61684   0.72764   0.61516   0.00000  Uiso   1.00
H1405  H     0.55756   0.70143   0.63213   0.00000  Uiso   1.00
H1406  H     0.56226   0.75102   0.60073   0.00000  Uiso   1.00
S1407  S     0.42042   0.76221   0.37475   0.00000  Uiso   1.00
O1408  O     0.42825   0.71916   0.36375   0.00000  Uiso   1.00
O1409  O     0.41255   0.76172   0.42473   0.00000  Uiso   1.00
O1410  O     0.36586   0.76971   0.34483   0.00000  Uiso   1.00
H1411  H     0.33987   0.74703   0.35526   0.00000  Uiso   1.00
S1412  S     0.57375   0.90885   0.62215   0.00000  Uiso   1.00
O1413  O     0.55265   0.94836   0.62152   0.00000  Uiso   1.00
O1414  O     0.62158   0.91486   0.65523   0.00000  Uiso   1.00
O1415  O     0.59203   0.90615   0.56956   0.00000  Uiso   1.00
H1416  H     0.61760   0.93179   0.56651   0.00000  Uiso   1.00
N1417  N     0.47069   0.75873   0.61995   0.00000  Uiso   1.00
H1418  H     0.48732   0.73782   0.64084   0.00000  Uiso   1.00
C1419  C     0.42428   0.73932   0.59288   0.00000  Uiso   1.00
H1420  H     0.42929   0.70915   0.57915   0.00000  Uiso   1.00
H1421  H     0.41541   0.75844   0.56208   0.00000  Uiso   1.00
H1422  H     0.39252   0.73242   0.61399   0.00000  Uiso   1.00
N1423  N     0.55977   0.89777   0.38853   0.00000  Uiso   1.00
H1424  H     0.56741   0.88906   0.42210   0.00000  Uiso   1.00
C1425  C     0.55313   0.94094   0.38480   0.00000  Uiso   1.00
H1426  H     0.55021   0.95260   0.41925   0.00000  Uiso   1.00
H1427  H     0.51943   0.94469   0.36101   0.00000  Uiso   1.00
H1428  H     0.58724   0.96085   0.37338   0.00000  Uiso   1.00
C1429  C     0.83547   0.75436   0.50072   0.00000  Uiso   1.00
C1430  C     0.83087   0.91239   0.49934   0.00000  Uiso   1.00
C1431  C     0.73551   0.83487   0.48852   0.00000  Uiso   1.00
C1432  C     0.93206   0.83581   0.51161   0.00000  Uiso   1.00
C1433  C     0.68292   0.84107   0.48220   0.00000  Uiso   1.00
C1434  C     0.98728   0.83918   0.51884   0.00000  Uiso   1.00
C1435  C     0.83799   0.68938   0.45949   0.00000  Uiso   1.00
C1436  C     0.82623   0.97777   0.54053   0.00000  Uiso   1.00
C1437  C     0.81828   0.97945   0.45815   0.00000  Uiso   1.00
C1438  C     0.84712   0.68750   0.54228   0.00000  Uiso   1.00
C1439  C     0.82962   0.95756   0.49912   0.00000  Uiso   1.00
C1440  C     0.83551   0.70930   0.50116   0.00000  Uiso   1.00
C1441  C     0.80373   0.80132   0.35507   0.00000  Uiso   1.00
C1442  C     0.86200   0.86634   0.64439   0.00000  Uiso   1.00
C1443  C     0.80900   0.79923   0.63999   0.00000  Uiso   1.00
C1444  C     0.86074   0.86617   0.36061   0.00000  Uiso   1.00
Cu1445 Cu    0.83333   0.83334   0.54689   0.00000  Uiso   1.00
Cu1446 Cu    0.83333   0.83333   0.45311   0.00000  Uiso   1.00
N1447  N     0.83335   0.83334   0.61736   0.00000  Uiso   1.00
N1448  N     0.83332   0.83332   0.38264   0.00000  Uiso   1.00
O1449  O     0.83333   0.77322   0.53958   0.00000  Uiso   1.00
O1450  O     0.83334   0.89345   0.46042   0.00000  Uiso   1.00
O1451  O     0.83333   0.77321   0.46039   0.00000  Uiso   1.00
O1452  O     0.83334   0.89346   0.53961   0.00000  Uiso   1.00
O1453  O     0.75828   0.83334   0.53046   0.00000  Uiso   1.00
O1454  O     0.90839   0.83333   0.46954   0.00000  Uiso   1.00
O1455  O     0.75828   0.83333   0.45127   0.00000  Uiso   1.00
O1456  O     0.90839   0.83334   0.54873   0.00000  Uiso   1.00
S1457  S     0.99780   0.86013   0.42518   0.00000  Uiso   1.00
O1458  O     0.95252   0.83176   0.40112   0.00000  Uiso   1.00
O1459  O     0.98733   0.90328   0.43150   0.00000  Uiso   1.00
O1460  O     0.70940   0.86542   0.38917   0.00000  Uiso   1.00
H1461  H     0.69586   0.84608   0.36314   0.00000  Uiso   1.00
S1462  S     0.67915   0.83856   0.57935   0.00000  Uiso   1.00
O1463  O     0.69481   0.79732   0.58908   0.00000  Uiso   1.00
O1464  O     0.72398   0.87298   0.58977   0.00000  Uiso   1.00
O1465  O     0.97203   0.84327   0.61752   0.00000  Uiso   1.00
H1466  H     0.96025   0.81462   0.62913   0.00000  Uiso   1.00
N1467  N     0.88375   0.70341   0.43979   0.00000  Uiso   1.00
H1468  H     0.91098   0.68519   0.44818   0.00000  Uiso   1.00
C1469  C     0.87908   0.71620   0.39192   0.00000  Uiso   1.00
H1470  H     0.85835   0.68996   0.36980   0.00000  Uiso   1.00
H1471  H     0.91727   0.72614   0.38092   0.00000  Uiso   1.00
H1472  H     0.85968   0.74334   0.38759   0.00000  Uiso   1.00
N1473  N     0.78052   0.96456   0.56073   0.00000  Uiso   1.00
H1474  H     0.75566   0.93938   0.54555   0.00000  Uiso   1.00
C1475  C     0.78237   0.96618   0.61041   0.00000  Uiso   1.00
H1476  H     0.81001   0.99347   0.62498   0.00000  Uiso   1.00
H1477  H     0.79203   0.93675   0.62608   0.00000  Uiso   1.00
H1478  H     0.74452   0.96914   0.61930   0.00000  Uiso   1.00
N1479  N     0.76791   0.96736   0.43660   0.00000  Uiso   1.00
H1480  H     0.74475   0.98841   0.44149   0.00000  Uiso   1.00
C1481  C     0.76307   0.95447   0.38911   0.00000  Uiso   1.00
H1482  H     0.72260   0.94788   0.37486   0.00000  Uiso   1.00
H1483  H     0.77885   0.92558   0.38692   0.00000  Uiso   1.00
H1484  H     0.78271   0.97969   0.36822   0.00000  Uiso   1.00
N1485  N     0.89868   0.69812   0.56162   0.00000  Uiso   1.00
H1486  H     0.91900   0.67417   0.56146   0.00000  Uiso   1.00
C1487  C     0.90883   0.72074   0.60470   0.00000  Uiso   1.00
H1488  H     0.95018   0.72764   0.61516   0.00000  Uiso   1.00
H1489  H     0.89090   0.70143   0.63213   0.00000  Uiso   1.00
H1490  H     0.89559   0.75102   0.60073   0.00000  Uiso   1.00
S1491  S     0.75375   0.76221   0.37475   0.00000  Uiso   1.00
O1492  O     0.76159   0.71916   0.36375   0.00000  Uiso   1.00
O1493  O     0.74588   0.76172   0.42473   0.00000  Uiso   1.00
O1494  O     0.69919   0.76971   0.34483   0.00000  Uiso   1.00
H1495  H     0.67320   0.74703   0.35526   0.00000  Uiso   1.00
S1496  S     0.90708   0.90885   0.62215   0.00000  Uiso   1.00
O1497  O     0.88598   0.94836   0.62152   0.00000  Uiso   1.00
O1498  O     0.95491   0.91486   0.65523   0.00000  Uiso   1.00
O1499  O     0.92536   0.90615   0.56956   0.00000  Uiso   1.00
H1500  H     0.95094   0.93179   0.56651   0.00000  Uiso   1.00
N1501  N     0.80402   0.75873   0.61995   0.00000  Uiso   1.00
H1502  H     0.82065   0.73782   0.64084   0.00000  Uiso   1.00
C1503  C     0.75761   0.73932   0.59288   0.00000  Uiso   1.00
H1504  H     0.76262   0.70915   0.57915   0.00000  Uiso   1.00
H1505  H     0.74875   0.75844   0.56208   0.00000  Uiso   1.00
H1506  H     0.72586   0.73242   0.61399   0.00000  Uiso   1.00
N1507  N     0.89310   0.89777   0.38853   0.00000  Uiso   1.00
H1508  H     0.90074   0.88906   0.42210   0.00000  Uiso   1.00
C1509  C     0.88647   0.94094   0.38480   0.00000  Uiso   1.00
H1510  H     0.88355   0.95260   0.41925   0.00000  Uiso   1.00
H1511  H     0.85276   0.94469   0.36101   0.00000  Uiso   1.00
H1512  H     0.92057   0.96085   0.37338   0.00000  Uiso   1.00
C1513  C     0.16880   0.08770   0.83405   0.00000  Uiso   1.00
C1514  C     0.16421   0.24572   0.83267   0.00000  Uiso   1.00
C1515  C     0.06884   0.16820   0.82185   0.00000  Uiso   1.00
C1516  C     0.26540   0.16914   0.84494   0.00000  Uiso   1.00
C1517  C     0.01625   0.17440   0.81554   0.00000  Uiso   1.00
C1518  C     0.32062   0.17251   0.85217   0.00000  Uiso   1.00
C1519  C     0.17132   0.02271   0.79282   0.00000  Uiso   1.00
C1520  C     0.15956   0.31110   0.87386   0.00000  Uiso   1.00
C1521  C     0.15162   0.31279   0.79148   0.00000  Uiso   1.00
C1522  C     0.18046   0.02083   0.87561   0.00000  Uiso   1.00
C1523  C     0.16295   0.29090   0.83245   0.00000  Uiso   1.00
C1524  C     0.16884   0.04264   0.83449   0.00000  Uiso   1.00
C1525  C     0.13706   0.13465   0.68840   0.00000  Uiso   1.00
C1526  C     0.19534   0.19967   0.97773   0.00000  Uiso   1.00
C1527  C     0.14234   0.13257   0.97332   0.00000  Uiso   1.00
C1528  C     0.19407   0.19950   0.69394   0.00000  Uiso   1.00
Cu1529 Cu    0.16667   0.16667   0.88022   0.00000  Uiso   1.00
Cu1530 Cu    0.16667   0.16666   0.78645   0.00000  Uiso   1.00
N1531  N     0.16668   0.16668   0.95069   0.00000  Uiso   1.00
N1532  N     0.16665   0.16666   0.71597   0.00000  Uiso   1.00
O1533  O     0.16666   0.10655   0.87291   0.00000  Uiso   1.00
O1534  O     0.16667   0.22678   0.79375   0.00000  Uiso   1.00
O1535  O     0.16666   0.10654   0.79372   0.00000  Uiso   1.00
O1536  O     0.16667   0.22679   0.87294   0.00000  Uiso   1.00
O1537  O     0.09161   0.16667   0.86379   0.00000  Uiso   1.00
O1538  O     0.24172   0.16666   0.80288   0.00000  Uiso   1.00
O1539  O     0.09161   0.16666   0.78460   0.00000  Uiso   1.00
O1540  O     0.24172   0.16667   0.88207   0.00000  Uiso   1.00
S1541  S     0.33114   0.19346   0.75852   0.00000  Uiso   1.00
O1542  O     0.28585   0.16510   0.73445   0.00000  Uiso   1.00
O1543  O     0.32066   0.23661   0.76483   0.00000  Uiso   1.00
O1544  O     0.04273   0.19875   0.72251   0.00000  Uiso   1.00
H1545  H     0.02920   0.17942   0.69647   0.00000  Uiso   1.00
S1546  S     0.01248   0.17189   0.91269   0.00000  Uiso   1.00
O1547  O     0.02814   0.13065   0.92242   0.00000  Uiso   1.00
O1548  O     0.05731   0.20631   0.92311   0.00000  Uiso   1.00
O1549  O     0.30536   0.17660   0.95085   0.00000  Uiso   1.00
H1550  H     0.29359   0.14796   0.96246   0.00000  Uiso   1.00
N1551  N     0.21708   0.03674   0.77312   0.00000  Uiso   1.00
H1552  H     0.24431   0.01853   0.78152   0.00000  Uiso   1.00
C1553  C     0.21241   0.04953   0.72525   0.00000  Uiso   1.00
H1554  H     0.19168   0.02329   0.70313   0.00000  Uiso   1.00
H1555  H     0.25060   0.05947   0.71426   0.00000  Uiso   1.00
H1556  H     0.19301   0.07668   0.72092   0.00000  Uiso   1.00
N1557  N     0.11386   0.29789   0.89407   0.00000  Uiso   1.00
H1558  H     0.08899   0.27271   0.87888   0.00000  Uiso   1.00
C1559  C     0.11571   0.29952   0.94374   0.00000  Uiso   1.00
H1560  H     0.14335   0.32680   0.95832   0.00000  Uiso   1.00
H1561  H     0.12537   0.27008   0.95941   0.00000  Uiso   1.00
H1562  H     0.07785   0.30247   0.95263   0.00000  Uiso   1.00
N1563  N     0.10125   0.30069   0.76993   0.00000  Uiso   1.00
H1564  H     0.07808   0.32175   0.77482   0.00000  Uiso   1.00
C1565  C     0.09641   0.28780   0.72245   0.00000  Uiso   1.00
H1566  H     0.05593   0.28121   0.70820   0.00000  Uiso   1.00
H1567  H     0.11219   0.25892   0.72026   0.00000  Uiso   1.00
H1568  H     0.11604   0.31302   0.70156   0.00000  Uiso   1.00
N1569  N     0.23202   0.03146   0.89496   0.00000  Uiso   1.00
H1570  H     0.25233   0.00751   0.89479   0.00000  Uiso   1.00
C1571  C     0.24216   0.05407   0.93803   0.00000  Uiso   1.00
H1572  H     0.28351   0.06097   0.94849   0.00000  Uiso   1.00
H1573  H     0.22423   0.03477   0.96546   0.00000  Uiso   1.00
H1574  H     0.22893   0.08435   0.93406   0.00000  Uiso   1.00
S1575  S     0.08709   0.09554   0.70808   0.00000  Uiso   1.00
O1576  O     0.09492   0.05249   0.69709   0.00000  Uiso   1.00
O1577  O     0.07922   0.09505   0.75807   0.00000  Uiso   1.00
O1578  O     0.03253   0.10304   0.67817   0.00000  Uiso   1.00
H1579  H     0.00653   0.08036   0.68859   0.00000  Uiso   1.00
S1580  S     0.24042   0.24218   0.95548   0.00000  Uiso   1.00
O1581  O     0.21932   0.28169   0.95485   0.00000  Uiso   1.00
O1582  O     0.28825   0.24820   0.98856   0.00000  Uiso   1.00
O1583  O     0.25870   0.23948   0.90289   0.00000  Uiso   1.00
H1584  H     0.28427   0.26512   0.89984   0.00000  Uiso   1.00
N1585  N     0.13735   0.09207   0.95328   0.00000  Uiso   1.00
H1586  H     0.15398   0.07115   0.97418   0.00000  Uiso   1.00
C1587  C     0.09095   0.07266   0.92621   0.00000  Uiso   1.00
H1588  H     0.09595   0.04249   0.91248   0.00000  Uiso   1.00
H1589  H     0.08208   0.09177   0.89541   0.00000  Uiso   1.00
H1590  H     0.05919   0.06575   0.94733   0.00000  Uiso   1.00
N1591  N     0.22643   0.23111   0.72186   0.00000  Uiso   1.00
H1592  H     0.23408   0.22240   0.75543   0.00000  Uiso   1.00
C1593  C     0.21980   0.27428   0.71813   0.00000  Uiso   1.00
H1594  H     0.21688   0.28594   0.75258   0.00000  Uiso   1.00
H1595  H     0.18610   0.27802   0.69435   0.00000  Uiso   1.00
H1596  H     0.25391   0.29419   0.70671   0.00000  Uiso   1.00
C1597  C     0.50214   0.08770   0.83405   0.00000  Uiso   1.00
C1598  C     0.49754   0.24572   0.83267   0.00000  Uiso   1.00
C1599  C     0.40217   0.16820   0.82185   0.00000  Uiso   1.00
C1600  C     0.59873   0.16914   0.84494   0.00000  Uiso   1.00
C1601  C     0.34959   0.17440   0.81554   0.00000  Uiso   1.00
C1602  C     0.65395   0.17251   0.85217   0.00000  Uiso   1.00
C1603  C     0.50466   0.02271   0.79282   0.00000  Uiso   1.00
C1604  C     0.49289   0.31110   0.87386   0.00000  Uiso   1.00
C1605  C     0.48495   0.31279   0.79148   0.00000  Uiso   1.00
C1606  C     0.51379   0.02083   0.87561   0.00000  Uiso   1.00
C1607  C     0.49628   0.29090   0.83245   0.00000  Uiso   1.00
C1608  C     0.50218   0.04264   0.83449   0.00000  Uiso   1.00
C1609  C     0.47039   0.13465   0.68840   0.00000  Uiso   1.00
C1610  C     0.52867   0.19967   0.97773   0.00000  Uiso   1.00
C1611  C     0.47567   0.13257   0.97332   0.00000  Uiso   1.00
C1612  C     0.52740   0.19950   0.69394   0.00000  Uiso   1.00
Cu1613 Cu    0.50000   0.16667   0.88022   0.00000  Uiso   1.00
Cu1614 Cu    0.50000   0.16666   0.78645   0.00000  Uiso   1.00
N1615  N     0.50001   0.16668   0.95069   0.00000  Uiso   1.00
N1616  N     0.49999   0.16666   0.71597   0.00000  Uiso   1.00
O1617  O     0.50000   0.10655   0.87291   0.00000  Uiso   1.00
O1618  O     0.50000   0.22678   0.79375   0.00000  Uiso   1.00
O1619  O     0.50000   0.10654   0.79372   0.00000  Uiso   1.00
O1620  O     0.50000   0.22679   0.87294   0.00000  Uiso   1.00
O1621  O     0.42495   0.16667   0.86379   0.00000  Uiso   1.00
O1622  O     0.57505   0.16666   0.80288   0.00000  Uiso   1.00
O1623  O     0.42494   0.16666   0.78460   0.00000  Uiso   1.00
O1624  O     0.57506   0.16667   0.88207   0.00000  Uiso   1.00
S1625  S     0.66447   0.19346   0.75852   0.00000  Uiso   1.00
O1626  O     0.61918   0.16510   0.73445   0.00000  Uiso   1.00
O1627  O     0.65400   0.23661   0.76483   0.00000  Uiso   1.00
O1628  O     0.37606   0.19875   0.72251   0.00000  Uiso   1.00
H1629  H     0.36253   0.17942   0.69647   0.00000  Uiso   1.00
S1630  S     0.34582   0.17189   0.91269   0.00000  Uiso   1.00
O1631  O     0.36148   0.13065   0.92242   0.00000  Uiso   1.00
O1632  O     0.39065   0.20631   0.92311   0.00000  Uiso   1.00
O1633  O     0.63869   0.17660   0.95085   0.00000  Uiso   1.00
H1634  H     0.62692   0.14796   0.96246   0.00000  Uiso   1.00
N1635  N     0.55041   0.03674   0.77312   0.00000  Uiso   1.00
H1636  H     0.57764   0.01853   0.78152   0.00000  Uiso   1.00
C1637  C     0.54575   0.04953   0.72525   0.00000  Uiso   1.00
H1638  H     0.52502   0.02329   0.70313   0.00000  Uiso   1.00
H1639  H     0.58394   0.05947   0.71426   0.00000  Uiso   1.00
H1640  H     0.52635   0.07668   0.72092   0.00000  Uiso   1.00
N1641  N     0.44719   0.29789   0.89407   0.00000  Uiso   1.00
H1642  H     0.42232   0.27271   0.87888   0.00000  Uiso   1.00
C1643  C     0.44904   0.29952   0.94374   0.00000  Uiso   1.00
H1644  H     0.47668   0.32680   0.95832   0.00000  Uiso   1.00
H1645  H     0.45870   0.27008   0.95941   0.00000  Uiso   1.00
H1646  H     0.41119   0.30247   0.95263   0.00000  Uiso   1.00
N1647  N     0.43458   0.30069   0.76993   0.00000  Uiso   1.00
H1648  H     0.41142   0.32175   0.77482   0.00000  Uiso   1.00
C1649  C     0.42974   0.28780   0.72245   0.00000  Uiso   1.00
H1650  H     0.38927   0.28121   0.70820   0.00000  Uiso   1.00
H1651  H     0.44552   0.25892   0.72026   0.00000  Uiso   1.00
H1652  H     0.44938   0.31302   0.70156   0.00000  Uiso   1.00
N1653  N     0.56535   0.03146   0.89496   0.00000  Uiso   1.00
H1654  H     0.58566   0.00751   0.89479   0.00000  Uiso   1.00
C1655  C     0.57549   0.05407   0.93803   0.00000  Uiso   1.00
H1656  H     0.61684   0.06097   0.94849   0.00000  Uiso   1.00
H1657  H     0.55756   0.03477   0.96546   0.00000  Uiso   1.00
H1658  H     0.56226   0.08435   0.93406   0.00000  Uiso   1.00
S1659  S     0.42042   0.09554   0.70808   0.00000  Uiso   1.00
O1660  O     0.42825   0.05249   0.69709   0.00000  Uiso   1.00
O1661  O     0.41255   0.09505   0.75807   0.00000  Uiso   1.00
O1662  O     0.36586   0.10304   0.67817   0.00000  Uiso   1.00
H1663  H     0.33987   0.08036   0.68859   0.00000  Uiso   1.00
S1664  S     0.57375   0.24218   0.95548   0.00000  Uiso   1.00
O1665  O     0.55265   0.28169   0.95485   0.00000  Uiso   1.00
O1666  O     0.62158   0.24820   0.98856   0.00000  Uiso   1.00
O1667  O     0.59203   0.23948   0.90289   0.00000  Uiso   1.00
H1668  H     0.61760   0.26512   0.89984   0.00000  Uiso   1.00
N1669  N     0.47069   0.09207   0.95328   0.00000  Uiso   1.00
H1670  H     0.48732   0.07115   0.97418   0.00000  Uiso   1.00
C1671  C     0.42428   0.07266   0.92621   0.00000  Uiso   1.00
H1672  H     0.42929   0.04249   0.91248   0.00000  Uiso   1.00
H1673  H     0.41541   0.09177   0.89541   0.00000  Uiso   1.00
H1674  H     0.39252   0.06575   0.94733   0.00000  Uiso   1.00
N1675  N     0.55977   0.23111   0.72186   0.00000  Uiso   1.00
H1676  H     0.56741   0.22240   0.75543   0.00000  Uiso   1.00
C1677  C     0.55313   0.27428   0.71813   0.00000  Uiso   1.00
H1678  H     0.55021   0.28594   0.75258   0.00000  Uiso   1.00
H1679  H     0.51943   0.27802   0.69435   0.00000  Uiso   1.00
H1680  H     0.58724   0.29419   0.70671   0.00000  Uiso   1.00
C1681  C     0.83547   0.08770   0.83405   0.00000  Uiso   1.00
C1682  C     0.83087   0.24572   0.83267   0.00000  Uiso   1.00
C1683  C     0.73551   0.16820   0.82185   0.00000  Uiso   1.00
C1684  C     0.93206   0.16914   0.84494   0.00000  Uiso   1.00
C1685  C     0.68292   0.17440   0.81554   0.00000  Uiso   1.00
C1686  C     0.98728   0.17251   0.85217   0.00000  Uiso   1.00
C1687  C     0.83799   0.02271   0.79282   0.00000  Uiso   1.00
C1688  C     0.82623   0.31110   0.87386   0.00000  Uiso   1.00
C1689  C     0.81828   0.31279   0.79148   0.00000  Uiso   1.00
C1690  C     0.84712   0.02083   0.87561   0.00000  Uiso   1.00
C1691  C     0.82962   0.29090   0.83245   0.00000  Uiso   1.00
C1692  C     0.83551   0.04264   0.83449   0.00000  Uiso   1.00
C1693  C     0.80373   0.13465   0.68840   0.00000  Uiso   1.00
C1694  C     0.86200   0.19967   0.97773   0.00000  Uiso   1.00
C1695  C     0.80900   0.13257   0.97332   0.00000  Uiso   1.00
C1696  C     0.86074   0.19950   0.69394   0.00000  Uiso   1.00
Cu1697 Cu    0.83333   0.16667   0.88022   0.00000  Uiso   1.00
Cu1698 Cu    0.83333   0.16666   0.78645   0.00000  Uiso   1.00
N1699  N     0.83335   0.16668   0.95069   0.00000  Uiso   1.00
N1700  N     0.83332   0.16666   0.71597   0.00000  Uiso   1.00
O1701  O     0.83333   0.10655   0.87291   0.00000  Uiso   1.00
O1702  O     0.83334   0.22678   0.79375   0.00000  Uiso   1.00
O1703  O     0.83333   0.10654   0.79372   0.00000  Uiso   1.00
O1704  O     0.83334   0.22679   0.87294   0.00000  Uiso   1.00
O1705  O     0.75828   0.16667   0.86379   0.00000  Uiso   1.00
O1706  O     0.90839   0.16666   0.80288   0.00000  Uiso   1.00
O1707  O     0.75828   0.16666   0.78460   0.00000  Uiso   1.00
O1708  O     0.90839   0.16667   0.88207   0.00000  Uiso   1.00
S1709  S     0.99780   0.19346   0.75852   0.00000  Uiso   1.00
O1710  O     0.95252   0.16510   0.73445   0.00000  Uiso   1.00
O1711  O     0.98733   0.23661   0.76483   0.00000  Uiso   1.00
O1712  O     0.70940   0.19875   0.72251   0.00000  Uiso   1.00
H1713  H     0.69586   0.17942   0.69647   0.00000  Uiso   1.00
S1714  S     0.67915   0.17189   0.91269   0.00000  Uiso   1.00
O1715  O     0.69481   0.13065   0.92242   0.00000  Uiso   1.00
O1716  O     0.72398   0.20631   0.92311   0.00000  Uiso   1.00
O1717  O     0.97203   0.17660   0.95085   0.00000  Uiso   1.00
H1718  H     0.96025   0.14796   0.96246   0.00000  Uiso   1.00
N1719  N     0.88375   0.03674   0.77312   0.00000  Uiso   1.00
H1720  H     0.91098   0.01853   0.78152   0.00000  Uiso   1.00
C1721  C     0.87908   0.04953   0.72525   0.00000  Uiso   1.00
H1722  H     0.85835   0.02329   0.70313   0.00000  Uiso   1.00
H1723  H     0.91727   0.05947   0.71426   0.00000  Uiso   1.00
H1724  H     0.85968   0.07668   0.72092   0.00000  Uiso   1.00
N1725  N     0.78052   0.29789   0.89407   0.00000  Uiso   1.00
H1726  H     0.75566   0.27271   0.87888   0.00000  Uiso   1.00
C1727  C     0.78237   0.29952   0.94374   0.00000  Uiso   1.00
H1728  H     0.81001   0.32680   0.95832   0.00000  Uiso   1.00
H1729  H     0.79203   0.27008   0.95941   0.00000  Uiso   1.00
H1730  H     0.74452   0.30247   0.95263   0.00000  Uiso   1.00
N1731  N     0.76791   0.30069   0.76993   0.00000  Uiso   1.00
H1732  H     0.74475   0.32175   0.77482   0.00000  Uiso   1.00
C1733  C     0.76307   0.28780   0.72245   0.00000  Uiso   1.00
H1734  H     0.72260   0.28121   0.70820   0.00000  Uiso   1.00
H1735  H     0.77885   0.25892   0.72026   0.00000  Uiso   1.00
H1736  H     0.78271   0.31302   0.70156   0.00000  Uiso   1.00
N1737  N     0.89868   0.03146   0.89496   0.00000  Uiso   1.00
H1738  H     0.91900   0.00751   0.89479   0.00000  Uiso   1.00
C1739  C     0.90883   0.05407   0.93803   0.00000  Uiso   1.00
H1740  H     0.95018   0.06097   0.94849   0.00000  Uiso   1.00
H1741  H     0.89090   0.03477   0.96546   0.00000  Uiso   1.00
H1742  H     0.89559   0.08435   0.93406   0.00000  Uiso   1.00
S1743  S     0.75375   0.09554   0.70808   0.00000  Uiso   1.00
O1744  O     0.76159   0.05249   0.69709   0.00000  Uiso   1.00
O1745  O     0.74588   0.09505   0.75807   0.00000  Uiso   1.00
O1746  O     0.69919   0.10304   0.67817   0.00000  Uiso   1.00
H1747  H     0.67320   0.08036   0.68859   0.00000  Uiso   1.00
S1748  S     0.90708   0.24218   0.95548   0.00000  Uiso   1.00
O1749  O     0.88598   0.28169   0.95485   0.00000  Uiso   1.00
O1750  O     0.95491   0.24820   0.98856   0.00000  Uiso   1.00
O1751  O     0.92536   0.23948   0.90289   0.00000  Uiso   1.00
H1752  H     0.95094   0.26512   0.89984   0.00000  Uiso   1.00
N1753  N     0.80402   0.09207   0.95328   0.00000  Uiso   1.00
H1754  H     0.82065   0.07115   0.97418   0.00000  Uiso   1.00
C1755  C     0.75761   0.07266   0.92621   0.00000  Uiso   1.00
H1756  H     0.76262   0.04249   0.91248   0.00000  Uiso   1.00
H1757  H     0.74875   0.09177   0.89541   0.00000  Uiso   1.00
H1758  H     0.72586   0.06575   0.94733   0.00000  Uiso   1.00
N1759  N     0.89310   0.23111   0.72186   0.00000  Uiso   1.00
H1760  H     0.90074   0.22240   0.75543   0.00000  Uiso   1.00
C1761  C     0.88647   0.27428   0.71813   0.00000  Uiso   1.00
H1762  H     0.88355   0.28594   0.75258   0.00000  Uiso   1.00
H1763  H     0.85276   0.27802   0.69435   0.00000  Uiso   1.00
H1764  H     0.92057   0.29419   0.70671   0.00000  Uiso   1.00
C1765  C     0.16880   0.42103   0.83405   0.00000  Uiso   1.00
C1766  C     0.16421   0.57906   0.83267   0.00000  Uiso   1.00
C1767  C     0.06884   0.50154   0.82185   0.00000  Uiso   1.00
C1768  C     0.26540   0.50248   0.84494   0.00000  Uiso   1.00
C1769  C     0.01625   0.50773   0.81554   0.00000  Uiso   1.00
C1770  C     0.32062   0.50585   0.85217   0.00000  Uiso   1.00
C1771  C     0.17132   0.35604   0.79282   0.00000  Uiso   1.00
C1772  C     0.15956   0.64444   0.87386   0.00000  Uiso   1.00
C1773  C     0.15162   0.64612   0.79148   0.00000  Uiso   1.00
C1774  C     0.18046   0.35416   0.87561   0.00000  Uiso   1.00
C1775  C     0.16295   0.62423   0.83245   0.00000  Uiso   1.00
C1776  C     0.16884   0.37597   0.83449   0.00000  Uiso   1.00
C1777  C     0.13706   0.46799   0.68840   0.00000  Uiso   1.00
C1778  C     0.19534   0.53301   0.97773   0.00000  Uiso   1.00
C1779  C     0.14234   0.46590   0.97332   0.00000  Uiso   1.00
C1780  C     0.19407   0.53283   0.69394   0.00000  Uiso   1.00
Cu1781 Cu    0.16667   0.50001   0.88022   0.00000  Uiso   1.00
Cu1782 Cu    0.16667   0.49999   0.78645   0.00000  Uiso   1.00
N1783  N     0.16668   0.50001   0.95069   0.00000  Uiso   1.00
N1784  N     0.16665   0.49999   0.71597   0.00000  Uiso   1.00
O1785  O     0.16666   0.43989   0.87291   0.00000  Uiso   1.00
O1786  O     0.16667   0.56011   0.79375   0.00000  Uiso   1.00
O1787  O     0.16666   0.43988   0.79372   0.00000  Uiso   1.00
O1788  O     0.16667   0.56012   0.87294   0.00000  Uiso   1.00
O1789  O     0.09161   0.50000   0.86379   0.00000  Uiso   1.00
O1790  O     0.24172   0.50000   0.80288   0.00000  Uiso   1.00
O1791  O     0.09161   0.49999   0.78460   0.00000  Uiso   1.00
O1792  O     0.24172   0.50001   0.88207   0.00000  Uiso   1.00
S1793  S     0.33114   0.52680   0.75852   0.00000  Uiso   1.00
O1794  O     0.28585   0.49843   0.73445   0.00000  Uiso   1.00
O1795  O     0.32066   0.56995   0.76483   0.00000  Uiso   1.00
O1796  O     0.04273   0.53209   0.72251   0.00000  Uiso   1.00
H1797  H     0.02920   0.51275   0.69647   0.00000  Uiso   1.00
S1798  S     0.01248   0.50522   0.91269   0.00000  Uiso   1.00
O1799  O     0.02814   0.46399   0.92242   0.00000  Uiso   1.00
O1800  O     0.05731   0.53965   0.92311   0.00000  Uiso   1.00
O1801  O     0.30536   0.50993   0.95085   0.00000  Uiso   1.00
H1802  H     0.29359   0.48129   0.96246   0.00000  Uiso   1.00
N1803  N     0.21708   0.37007   0.77312   0.00000  Uiso   1.00
H1804  H     0.24431   0.35186   0.78152   0.00000  Uiso   1.00
C1805  C     0.21241   0.38287   0.72525   0.00000  Uiso   1.00
H1806  H     0.19168   0.35662   0.70313   0.00000  Uiso   1.00
H1807  H     0.25060   0.39280   0.71426   0.00000  Uiso   1.00
H1808  H     0.19301   0.41001   0.72092   0.00000  Uiso   1.00
N1809  N     0.11386   0.63123   0.89407   0.00000  Uiso   1.00
H1810  H     0.08899   0.60605   0.87888   0.00000  Uiso   1.00
C1811  C     0.11571   0.63285   0.94374   0.00000  Uiso   1.00
H1812  H     0.14335   0.66013   0.95832   0.00000  Uiso   1.00
H1813  H     0.12537   0.60341   0.95941   0.00000  Uiso   1.00
H1814  H     0.07785   0.63580   0.95263   0.00000  Uiso   1.00
N1815  N     0.10125   0.63402   0.76993   0.00000  Uiso   1.00
H1816  H     0.07808   0.65508   0.77482   0.00000  Uiso   1.00
C1817  C     0.09641   0.62113   0.72245   0.00000  Uiso   1.00
H1818  H     0.05593   0.61454   0.70820   0.00000  Uiso   1.00
H1819  H     0.11219   0.59225   0.72026   0.00000  Uiso   1.00
H1820  H     0.11604   0.64636   0.70156   0.00000  Uiso   1.00
N1821  N     0.23202   0.36479   0.89496   0.00000  Uiso   1.00
H1822  H     0.25233   0.34084   0.89479   0.00000  Uiso   1.00
C1823  C     0.24216   0.38740   0.93803   0.00000  Uiso   1.00
H1824  H     0.28351   0.39431   0.94849   0.00000  Uiso   1.00
H1825  H     0.22423   0.36810   0.96546   0.00000  Uiso   1.00
H1826  H     0.22893   0.41769   0.93406   0.00000  Uiso   1.00
S1827  S     0.08709   0.42887   0.70808   0.00000  Uiso   1.00
O1828  O     0.09492   0.38582   0.69709   0.00000  Uiso   1.00
O1829  O     0.07922   0.42838   0.75807   0.00000  Uiso   1.00
O1830  O     0.03253   0.43637   0.67817   0.00000  Uiso   1.00
H1831  H     0.00653   0.41369   0.68859   0.00000  Uiso   1.00
S1832  S     0.24042   0.57551   0.95548   0.00000  Uiso   1.00
O1833  O     0.21932   0.61502   0.95485   0.00000  Uiso   1.00
O1834  O     0.28825   0.58153   0.98856   0.00000  Uiso   1.00
O1835  O     0.25870   0.57281   0.90289   0.00000  Uiso   1.00
H1836  H     0.28427   0.59846   0.89984   0.00000  Uiso   1.00
N1837  N     0.13735   0.42540   0.95328   0.00000  Uiso   1.00
H1838  H     0.15398   0.40449   0.97418   0.00000  Uiso   1.00
C1839  C     0.09095   0.40599   0.92621   0.00000  Uiso   1.00
H1840  H     0.09595   0.37582   0.91248   0.00000  Uiso   1.00
H1841  H     0.08208   0.42510   0.89541   0.00000  Uiso   1.00
H1842  H     0.05919   0.39909   0.94733   0.00000  Uiso   1.00
N1843  N     0.22643   0.56444   0.72186   0.00000  Uiso   1.00
H1844  H     0.23408   0.55573   0.75543   0.00000  Uiso   1.00
C1845  C     0.21980   0.60761   0.71813   0.00000  Uiso   1.00
H1846  H     0.21688   0.61927   0.75258   0.00000  Uiso   1.00
H1847  H     0.18610   0.61136   0.69435   0.00000  Uiso   1.00
H1848  H     0.25391   0.62752   0.70671   0.00000  Uiso   1.00
C1849  C     0.50214   0.42103   0.83405   0.00000  Uiso   1.00
C1850  C     0.49754   0.57906   0.83267   0.00000  Uiso   1.00
C1851  C     0.40217   0.50154   0.82185   0.00000  Uiso   1.00
C1852  C     0.59873   0.50248   0.84494   0.00000  Uiso   1.00
C1853  C     0.34959   0.50773   0.81554   0.00000  Uiso   1.00
C1854  C     0.65395   0.50585   0.85217   0.00000  Uiso   1.00
C1855  C     0.50466   0.35604   0.79282   0.00000  Uiso   1.00
C1856  C     0.49289   0.64444   0.87386   0.00000  Uiso   1.00
C1857  C     0.48495   0.64612   0.79148   0.00000  Uiso   1.00
C1858  C     0.51379   0.35416   0.87561   0.00000  Uiso   1.00
C1859  C     0.49628   0.62423   0.83245   0.00000  Uiso   1.00
C1860  C     0.50218   0.37597   0.83449   0.00000  Uiso   1.00
C1861  C     0.47039   0.46799   0.68840   0.00000  Uiso   1.00
C1862  C     0.52867   0.53301   0.97773   0.00000  Uiso   1.00
C1863  C     0.47567   0.46590   0.97332   0.00000  Uiso   1.00
C1864  C     0.52740   0.53283   0.69394   0.00000  Uiso   1.00
Cu1865 Cu    0.50000   0.50001   0.88022   0.00000  Uiso   1.00
Cu1866 Cu    0.50000   0.49999   0.78645   0.00000  Uiso   1.00
N1867  N     0.50001   0.50001   0.95069   0.00000  Uiso   1.00
N1868  N     0.49999   0.49999   0.71597   0.00000  Uiso   1.00
O1869  O     0.50000   0.43989   0.87291   0.00000  Uiso   1.00
O1870  O     0.50000   0.56011   0.79375   0.00000  Uiso   1.00
O1871  O     0.50000   0.43988   0.79372   0.00000  Uiso   1.00
O1872  O     0.50000   0.56012   0.87294   0.00000  Uiso   1.00
O1873  O     0.42495   0.50000   0.86379   0.00000  Uiso   1.00
O1874  O     0.57505   0.50000   0.80288   0.00000  Uiso   1.00
O1875  O     0.42494   0.49999   0.78460   0.00000  Uiso   1.00
O1876  O     0.57506   0.50001   0.88207   0.00000  Uiso   1.00
S1877  S     0.66447   0.52680   0.75852   0.00000  Uiso   1.00
O1878  O     0.61918   0.49843   0.73445   0.00000  Uiso   1.00
O1879  O     0.65400   0.56995   0.76483   0.00000  Uiso   1.00
O1880  O     0.37606   0.53209   0.72251   0.00000  Uiso   1.00
H1881  H     0.36253   0.51275   0.69647   0.00000  Uiso   1.00
S1882  S     0.34582   0.50522   0.91269   0.00000  Uiso   1.00
O1883  O     0.36148   0.46399   0.92242   0.00000  Uiso   1.00
O1884  O     0.39065   0.53965   0.92311   0.00000  Uiso   1.00
O1885  O     0.63869   0.50993   0.95085   0.00000  Uiso   1.00
H1886  H     0.62692   0.48129   0.96246   0.00000  Uiso   1.00
N1887  N     0.55041   0.37007   0.77312   0.00000  Uiso   1.00
H1888  H     0.57764   0.35186   0.78152   0.00000  Uiso   1.00
C1889  C     0.54575   0.38287   0.72525   0.00000  Uiso   1.00
H1890  H     0.52502   0.35662   0.70313   0.00000  Uiso   1.00
H1891  H     0.58394   0.39280   0.71426   0.00000  Uiso   1.00
H1892  H     0.52635   0.41001   0.72092   0.00000  Uiso   1.00
N1893  N     0.44719   0.63123   0.89407   0.00000  Uiso   1.00
H1894  H     0.42232   0.60605   0.87888   0.00000  Uiso   1.00
C1895  C     0.44904   0.63285   0.94374   0.00000  Uiso   1.00
H1896  H     0.47668   0.66013   0.95832   0.00000  Uiso   1.00
H1897  H     0.45870   0.60341   0.95941   0.00000  Uiso   1.00
H1898  H     0.41119   0.63580   0.95263   0.00000  Uiso   1.00
N1899  N     0.43458   0.63402   0.76993   0.00000  Uiso   1.00
H1900  H     0.41142   0.65508   0.77482   0.00000  Uiso   1.00
C1901  C     0.42974   0.62113   0.72245   0.00000  Uiso   1.00
H1902  H     0.38927   0.61454   0.70820   0.00000  Uiso   1.00
H1903  H     0.44552   0.59225   0.72026   0.00000  Uiso   1.00
H1904  H     0.44938   0.64636   0.70156   0.00000  Uiso   1.00
N1905  N     0.56535   0.36479   0.89496   0.00000  Uiso   1.00
H1906  H     0.58566   0.34084   0.89479   0.00000  Uiso   1.00
C1907  C     0.57549   0.38740   0.93803   0.00000  Uiso   1.00
H1908  H     0.61684   0.39431   0.94849   0.00000  Uiso   1.00
H1909  H     0.55756   0.36810   0.96546   0.00000  Uiso   1.00
H1910  H     0.56226   0.41769   0.93406   0.00000  Uiso   1.00
S1911  S     0.42042   0.42887   0.70808   0.00000  Uiso   1.00
O1912  O     0.42825   0.38582   0.69709   0.00000  Uiso   1.00
O1913  O     0.41255   0.42838   0.75807   0.00000  Uiso   1.00
O1914  O     0.36586   0.43637   0.67817   0.00000  Uiso   1.00
H1915  H     0.33987   0.41369   0.68859   0.00000  Uiso   1.00
S1916  S     0.57375   0.57551   0.95548   0.00000  Uiso   1.00
O1917  O     0.55265   0.61502   0.95485   0.00000  Uiso   1.00
O1918  O     0.62158   0.58153   0.98856   0.00000  Uiso   1.00
O1919  O     0.59203   0.57281   0.90289   0.00000  Uiso   1.00
H1920  H     0.61760   0.59846   0.89984   0.00000  Uiso   1.00
N1921  N     0.47069   0.42540   0.95328   0.00000  Uiso   1.00
H1922  H     0.48732   0.40449   0.97418   0.00000  Uiso   1.00
C1923  C     0.42428   0.40599   0.92621   0.00000  Uiso   1.00
H1924  H     0.42929   0.37582   0.91248   0.00000  Uiso   1.00
H1925  H     0.41541   0.42510   0.89541   0.00000  Uiso   1.00
H1926  H     0.39252   0.39909   0.94733   0.00000  Uiso   1.00
N1927  N     0.55977   0.56444   0.72186   0.00000  Uiso   1.00
H1928  H     0.56741   0.55573   0.75543   0.00000  Uiso   1.00
C1929  C     0.55313   0.60761   0.71813   0.00000  Uiso   1.00
H1930  H     0.55021   0.61927   0.75258   0.00000  Uiso   1.00
H1931  H     0.51943   0.61136   0.69435   0.00000  Uiso   1.00
H1932  H     0.58724   0.62752   0.70671   0.00000  Uiso   1.00
C1933  C     0.83547   0.42103   0.83405   0.00000  Uiso   1.00
C1934  C     0.83087   0.57906   0.83267   0.00000  Uiso   1.00
C1935  C     0.73551   0.50154   0.82185   0.00000  Uiso   1.00
C1936  C     0.93206   0.50248   0.84494   0.00000  Uiso   1.00
C1937  C     0.68292   0.50773   0.81554   0.00000  Uiso   1.00
C1938  C     0.98728   0.50585   0.85217   0.00000  Uiso   1.00
C1939  C     0.83799   0.35604   0.79282   0.00000  Uiso   1.00
C1940  C     0.82623   0.64444   0.87386   0.00000  Uiso   1.00
C1941  C     0.81828   0.64612   0.79148   0.00000  Uiso   1.00
C1942  C     0.84712   0.35416   0.87561   0.00000  Uiso   1.00
C1943  C     0.82962   0.62423   0.83245   0.00000  Uiso   1.00
C1944  C     0.83551   0.37597   0.83449   0.00000  Uiso   1.00
C1945  C     0.80373   0.46799   0.68840   0.00000  Uiso   1.00
C1946  C     0.86200   0.53301   0.97773   0.00000  Uiso   1.00
C1947  C     0.80900   0.46590   0.97332   0.00000  Uiso   1.00
C1948  C     0.86074   0.53283   0.69394   0.00000  Uiso   1.00
Cu1949 Cu    0.83333   0.50001   0.88022   0.00000  Uiso   1.00
Cu1950 Cu    0.83333   0.49999   0.78645   0.00000  Uiso   1.00
N1951  N     0.83335   0.50001   0.95069   0.00000  Uiso   1.00
N1952  N     0.83332   0.49999   0.71597   0.00000  Uiso   1.00
O1953  O     0.83333   0.43989   0.87291   0.00000  Uiso   1.00
O1954  O     0.83334   0.56011   0.79375   0.00000  Uiso   1.00
O1955  O     0.83333   0.43988   0.79372   0.00000  Uiso   1.00
O1956  O     0.83334   0.56012   0.87294   0.00000  Uiso   1.00
O1957  O     0.75828   0.50000   0.86379   0.00000  Uiso   1.00
O1958  O     0.90839   0.50000   0.80288   0.00000  Uiso   1.00
O1959  O     0.75828   0.49999   0.78460   0.00000  Uiso   1.00
O1960  O     0.90839   0.50001   0.88207   0.00000  Uiso   1.00
S1961  S     0.99780   0.52680   0.75852   0.00000  Uiso   1.00
O1962  O     0.95252   0.49843   0.73445   0.00000  Uiso   1.00
O1963  O     0.98733   0.56995   0.76483   0.00000  Uiso   1.00
O1964  O     0.70940   0.53209   0.72251   0.00000  Uiso   1.00
H1965  H     0.69586   0.51275   0.69647   0.00000  Uiso   1.00
S1966  S     0.67915   0.50522   0.91269   0.00000  Uiso   1.00
O1967  O     0.69481   0.46399   0.92242   0.00000  Uiso   1.00
O1968  O     0.72398   0.53965   0.92311   0.00000  Uiso   1.00
O1969  O     0.97203   0.50993   0.95085   0.00000  Uiso   1.00
H1970  H     0.96025   0.48129   0.96246   0.00000  Uiso   1.00
N1971  N     0.88375   0.37007   0.77312   0.00000  Uiso   1.00
H1972  H     0.91098   0.35186   0.78152   0.00000  Uiso   1.00
C1973  C     0.87908   0.38287   0.72525   0.00000  Uiso   1.00
H1974  H     0.85835   0.35662   0.70313   0.00000  Uiso   1.00
H1975  H     0.91727   0.39280   0.71426   0.00000  Uiso   1.00
H1976  H     0.85968   0.41001   0.72092   0.00000  Uiso   1.00
N1977  N     0.78052   0.63123   0.89407   0.00000  Uiso   1.00
H1978  H     0.75566   0.60605   0.87888   0.00000  Uiso   1.00
C1979  C     0.78237   0.63285   0.94374   0.00000  Uiso   1.00
H1980  H     0.81001   0.66013   0.95832   0.00000  Uiso   1.00
H1981  H     0.79203   0.60341   0.95941   0.00000  Uiso   1.00
H1982  H     0.74452   0.63580   0.95263   0.00000  Uiso   1.00
N1983  N     0.76791   0.63402   0.76993   0.00000  Uiso   1.00
H1984  H     0.74475   0.65508   0.77482   0.00000  Uiso   1.00
C1985  C     0.76307   0.62113   0.72245   0.00000  Uiso   1.00
H1986  H     0.72260   0.61454   0.70820   0.00000  Uiso   1.00
H1987  H     0.77885   0.59225   0.72026   0.00000  Uiso   1.00
H1988  H     0.78271   0.64636   0.70156   0.00000  Uiso   1.00
N1989  N     0.89868   0.36479   0.89496   0.00000  Uiso   1.00
H1990  H     0.91900   0.34084   0.89479   0.00000  Uiso   1.00
C1991  C     0.90883   0.38740   0.93803   0.00000  Uiso   1.00
H1992  H     0.95018   0.39431   0.94849   0.00000  Uiso   1.00
H1993  H     0.89090   0.36810   0.96546   0.00000  Uiso   1.00
H1994  H     0.89559   0.41769   0.93406   0.00000  Uiso   1.00
S1995  S     0.75375   0.42887   0.70808   0.00000  Uiso   1.00
O1996  O     0.76159   0.38582   0.69709   0.00000  Uiso   1.00
O1997  O     0.74588   0.42838   0.75807   0.00000  Uiso   1.00
O1998  O     0.69919   0.43637   0.67817   0.00000  Uiso   1.00
H1999  H     0.67320   0.41369   0.68859   0.00000  Uiso   1.00
S2000  S     0.90708   0.57551   0.95548   0.00000  Uiso   1.00
O2001  O     0.88598   0.61502   0.95485   0.00000  Uiso   1.00
O2002  O     0.95491   0.58153   0.98856   0.00000  Uiso   1.00
O2003  O     0.92536   0.57281   0.90289   0.00000  Uiso   1.00
H2004  H     0.95094   0.59846   0.89984   0.00000  Uiso   1.00
N2005  N     0.80402   0.42540   0.95328   0.00000  Uiso   1.00
H2006  H     0.82065   0.40449   0.97418   0.00000  Uiso   1.00
C2007  C     0.75761   0.40599   0.92621   0.00000  Uiso   1.00
H2008  H     0.76262   0.37582   0.91248   0.00000  Uiso   1.00
H2009  H     0.74875   0.42510   0.89541   0.00000  Uiso   1.00
H2010  H     0.72586   0.39909   0.94733   0.00000  Uiso   1.00
N2011  N     0.89310   0.56444   0.72186   0.00000  Uiso   1.00
H2012  H     0.90074   0.55573   0.75543   0.00000  Uiso   1.00
C2013  C     0.88647   0.60761   0.71813   0.00000  Uiso   1.00
H2014  H     0.88355   0.61927   0.75258   0.00000  Uiso   1.00
H2015  H     0.85276   0.61136   0.69435   0.00000  Uiso   1.00
H2016  H     0.92057   0.62752   0.70671   0.00000  Uiso   1.00
C2017  C     0.16880   0.75436   0.83405   0.00000  Uiso   1.00
C2018  C     0.16421   0.91239   0.83267   0.00000  Uiso   1.00
C2019  C     0.06884   0.83487   0.82185   0.00000  Uiso   1.00
C2020  C     0.26540   0.83581   0.84494   0.00000  Uiso   1.00
C2021  C     0.01625   0.84107   0.81554   0.00000  Uiso   1.00
C2022  C     0.32062   0.83918   0.85217   0.00000  Uiso   1.00
C2023  C     0.17132   0.68938   0.79282   0.00000  Uiso   1.00
C2024  C     0.15956   0.97777   0.87386   0.00000  Uiso   1.00
C2025  C     0.15162   0.97945   0.79148   0.00000  Uiso   1.00
C2026  C     0.18046   0.68750   0.87561   0.00000  Uiso   1.00
C2027  C     0.16295   0.95756   0.83245   0.00000  Uiso   1.00
C2028  C     0.16884   0.70930   0.83449   0.00000  Uiso   1.00
C2029  C     0.13706   0.80132   0.68840   0.00000  Uiso   1.00
C2030  C     0.19534   0.86634   0.97773   0.00000  Uiso   1.00
C2031  C     0.14234   0.79923   0.97332   0.00000  Uiso   1.00
C2032  C     0.19407   0.86617   0.69394   0.00000  Uiso   1.00
Cu2033 Cu    0.16667   0.83334   0.88022   0.00000  Uiso   1.00
Cu2034 Cu    0.16667   0.83333   0.78645   0.00000  Uiso   1.00
N2035  N     0.16668   0.83334   0.95069   0.00000  Uiso   1.00
N2036  N     0.16665   0.83332   0.71597   0.00000  Uiso   1.00
O2037  O     0.16666   0.77322   0.87291   0.00000  Uiso   1.00
O2038  O     0.16667   0.89345   0.79375   0.00000  Uiso   1.00
O2039  O     0.16666   0.77321   0.79372   0.00000  Uiso   1.00
O2040  O     0.16667   0.89346   0.87294   0.00000  Uiso   1.00
O2041  O     0.09161   0.83334   0.86379   0.00000  Uiso   1.00
O2042  O     0.24172   0.83333   0.80288   0.00000  Uiso   1.00
O2043  O     0.09161   0.83333   0.78460   0.00000  Uiso   1.00
O2044  O     0.24172   0.83334   0.88207   0.00000  Uiso   1.00
S2045  S     0.33114   0.86013   0.75852   0.00000  Uiso   1.00
O2046  O     0.28585   0.83176   0.73445   0.00000  Uiso   1.00
O2047  O     0.32066   0.90328   0.76483   0.00000  Uiso   1.00
O2048  O     0.04273   0.86542   0.72251   0.00000  Uiso   1.00
H2049  H     0.02920   0.84608   0.69647   0.00000  Uiso   1.00
S2050  S     0.01248   0.83856   0.91269   0.00000  Uiso   1.00
O2051  O     0.02814   0.79732   0.92242   0.00000  Uiso   1.00
O2052  O     0.05731   0.87298   0.92311   0.00000  Uiso   1.00
O2053  O     0.30536   0.84327   0.95085   0.00000  Uiso   1.00
H2054  H     0.29359   0.81462   0.96246   0.00000  Uiso   1.00
N2055  N     0.21708   0.70341   0.77312   0.00000  Uiso   1.00
H2056  H     0.24431   0.68519   0.78152   0.00000  Uiso   1.00
C2057  C     0.21241   0.71620   0.72525   0.00000  Uiso   1.00
H2058  H     0.19168   0.68996   0.70313   0.00000  Uiso   1.00
H2059  H     0.25060   0.72614   0.71426   0.00000  Uiso   1.00
H2060  H     0.19301   0.74334   0.72092   0.00000  Uiso   1.00
N2061  N     0.11386   0.96456   0.89407   0.00000  Uiso   1.00
H2062  H     0.08899   0.93938   0.87888   0.00000  Uiso   1.00
C2063  C     0.11571   0.96618   0.94374   0.00000  Uiso   1.00
H2064  H     0.14335   0.99347   0.95832   0.00000  Uiso   1.00
H2065  H     0.12537   0.93675   0.95941   0.00000  Uiso   1.00
H2066  H     0.07785   0.96914   0.95263   0.00000  Uiso   1.00
N2067  N     0.10125   0.96736   0.76993   0.00000  Uiso   1.00
H2068  H     0.07808   0.98841   0.77482   0.00000  Uiso   1.00
C2069  C     0.09641   0.95447   0.72245   0.00000  Uiso   1.00
H2070  H     0.05593   0.94788   0.70820   0.00000  Uiso   1.00
H2071  H     0.11219   0.92558   0.72026   0.00000  Uiso   1.00
H2072  H     0.11604   0.97969   0.70156   0.00000  Uiso   1.00
N2073  N     0.23202   0.69812   0.89496   0.00000  Uiso   1.00
H2074  H     0.25233   0.67417   0.89479   0.00000  Uiso   1.00
C2075  C     0.24216   0.72074   0.93803   0.00000  Uiso   1.00
H2076  H     0.28351   0.72764   0.94849   0.00000  Uiso   1.00
H2077  H     0.22423   0.70143   0.96546   0.00000  Uiso   1.00
H2078  H     0.22893   0.75102   0.93406   0.00000  Uiso   1.00
S2079  S     0.08709   0.76221   0.70808   0.00000  Uiso   1.00
O2080  O     0.09492   0.71916   0.69709   0.00000  Uiso   1.00
O2081  O     0.07922   0.76172   0.75807   0.00000  Uiso   1.00
O2082  O     0.03253   0.76971   0.67817   0.00000  Uiso   1.00
H2083  H     0.00653   0.74703   0.68859   0.00000  Uiso   1.00
S2084  S     0.24042   0.90885   0.95548   0.00000  Uiso   1.00
O2085  O     0.21932   0.94836   0.95485   0.00000  Uiso   1.00
O2086  O     0.28825   0.91486   0.98856   0.00000  Uiso   1.00
O2087  O     0.25870   0.90615   0.90289   0.00000  Uiso   1.00
H2088  H     0.28427   0.93179   0.89984   0.00000  Uiso   1.00
N2089  N     0.13735   0.75873   0.95328   0.00000  Uiso   1.00
H2090  H     0.15398   0.73782   0.97418   0.00000  Uiso   1.00
C2091  C     0.09095   0.73932   0.92621   0.00000  Uiso   1.00
H2092  H     0.09595   0.70915   0.91248   0.00000  Uiso   1.00
H2093  H     0.08208   0.75844   0.89541   0.00000  Uiso   1.00
H2094  H     0.05919   0.73242   0.94733   0.00000  Uiso   1.00
N2095  N     0.22643   0.89777   0.72186   0.00000  Uiso   1.00
H2096  H     0.23408   0.88906   0.75543   0.00000  Uiso   1.00
C2097  C     0.21980   0.94094   0.71813   0.00000  Uiso   1.00
H2098  H     0.21688   0.95260   0.75258   0.00000  Uiso   1.00
H2099  H     0.18610   0.94469   0.69435   0.00000  Uiso   1.00
H2100  H     0.25391   0.96085   0.70671   0.00000  Uiso   1.00
C2101  C     0.50214   0.75436   0.83405   0.00000  Uiso   1.00
C2102  C     0.49754   0.91239   0.83267   0.00000  Uiso   1.00
C2103  C     0.40217   0.83487   0.82185   0.00000  Uiso   1.00
C2104  C     0.59873   0.83581   0.84494   0.00000  Uiso   1.00
C2105  C     0.34959   0.84107   0.81554   0.00000  Uiso   1.00
C2106  C     0.65395   0.83918   0.85217   0.00000  Uiso   1.00
C2107  C     0.50466   0.68938   0.79282   0.00000  Uiso   1.00
C2108  C     0.49289   0.97777   0.87386   0.00000  Uiso   1.00
C2109  C     0.48495   0.97945   0.79148   0.00000  Uiso   1.00
C2110  C     0.51379   0.68750   0.87561   0.00000  Uiso   1.00
C2111  C     0.49628   0.95756   0.83245   0.00000  Uiso   1.00
C2112  C     0.50218   0.70930   0.83449   0.00000  Uiso   1.00
C2113  C     0.47039   0.80132   0.68840   0.00000  Uiso   1.00
C2114  C     0.52867   0.86634   0.97773   0.00000  Uiso   1.00
C2115  C     0.47567   0.79923   0.97332   0.00000  Uiso   1.00
C2116  C     0.52740   0.86617   0.69394   0.00000  Uiso   1.00
Cu2117 Cu    0.50000   0.83334   0.88022   0.00000  Uiso   1.00
Cu2118 Cu    0.50000   0.83333   0.78645   0.00000  Uiso   1.00
N2119  N     0.50001   0.83334   0.95069   0.00000  Uiso   1.00
N2120  N     0.49999   0.83332   0.71597   0.00000  Uiso   1.00
O2121  O     0.50000   0.77322   0.87291   0.00000  Uiso   1.00
O2122  O     0.50000   0.89345   0.79375   0.00000  Uiso   1.00
O2123  O     0.50000   0.77321   0.79372   0.00000  Uiso   1.00
O2124  O     0.50000   0.89346   0.87294   0.00000  Uiso   1.00
O2125  O     0.42495   0.83334   0.86379   0.00000  Uiso   1.00
O2126  O     0.57505   0.83333   0.80288   0.00000  Uiso   1.00
O2127  O     0.42494   0.83333   0.78460   0.00000  Uiso   1.00
O2128  O     0.57506   0.83334   0.88207   0.00000  Uiso   1.00
S2129  S     0.66447   0.86013   0.75852   0.00000  Uiso   1.00
O2130  O     0.61918   0.83176   0.73445   0.00000  Uiso   1.00
O2131  O     0.65400   0.90328   0.76483   0.00000  Uiso   1.00
O2132  O     0.37606   0.86542   0.72251   0.00000  Uiso   1.00
H2133  H     0.36253   0.84608   0.69647   0.00000  Uiso   1.00
S2134  S     0.34582   0.83856   0.91269   0.00000  Uiso   1.00
O2135  O     0.36148   0.79732   0.92242   0.00000  Uiso   1.00
O2136  O     0.39065   0.87298   0.92311   0.00000  Uiso   1.00
O2137  O     0.63869   0.84327   0.95085   0.00000  Uiso   1.00
H2138  H     0.62692   0.81462   0.96246   0.00000  Uiso   1.00
N2139  N     0.55041   0.70341   0.77312   0.00000  Uiso   1.00
H2140  H     0.57764   0.68519   0.78152   0.00000  Uiso   1.00
C2141  C     0.54575   0.71620   0.72525   0.00000  Uiso   1.00
H2142  H     0.52502   0.68996   0.70313   0.00000  Uiso   1.00
H2143  H     0.58394   0.72614   0.71426   0.00000  Uiso   1.00
H2144  H     0.52635   0.74334   0.72092   0.00000  Uiso   1.00
N2145  N     0.44719   0.96456   0.89407   0.00000  Uiso   1.00
H2146  H     0.42232   0.93938   0.87888   0.00000  Uiso   1.00
C2147  C     0.44904   0.96618   0.94374   0.00000  Uiso   1.00
H2148  H     0.47668   0.99347   0.95832   0.00000  Uiso   1.00
H2149  H     0.45870   0.93675   0.95941   0.00000  Uiso   1.00
H2150  H     0.41119   0.96914   0.95263   0.00000  Uiso   1.00
N2151  N     0.43458   0.96736   0.76993   0.00000  Uiso   1.00
H2152  H     0.41142   0.98841   0.77482   0.00000  Uiso   1.00
C2153  C     0.42974   0.95447   0.72245   0.00000  Uiso   1.00
H2154  H     0.38927   0.94788   0.70820   0.00000  Uiso   1.00
H2155  H     0.44552   0.92558   0.72026   0.00000  Uiso   1.00
H2156  H     0.44938   0.97969   0.70156   0.00000  Uiso   1.00
N2157  N     0.56535   0.69812   0.89496   0.00000  Uiso   1.00
H2158  H     0.58566   0.67417   0.89479   0.00000  Uiso   1.00
C2159  C     0.57549   0.72074   0.93803   0.00000  Uiso   1.00
H2160  H     0.61684   0.72764   0.94849   0.00000  Uiso   1.00
H2161  H     0.55756   0.70143   0.96546   0.00000  Uiso   1.00
H2162  H     0.56226   0.75102   0.93406   0.00000  Uiso   1.00
S2163  S     0.42042   0.76221   0.70808   0.00000  Uiso   1.00
O2164  O     0.42825   0.71916   0.69709   0.00000  Uiso   1.00
O2165  O     0.41255   0.76172   0.75807   0.00000  Uiso   1.00
O2166  O     0.36586   0.76971   0.67817   0.00000  Uiso   1.00
H2167  H     0.33987   0.74703   0.68859   0.00000  Uiso   1.00
S2168  S     0.57375   0.90885   0.95548   0.00000  Uiso   1.00
O2169  O     0.55265   0.94836   0.95485   0.00000  Uiso   1.00
O2170  O     0.62158   0.91486   0.98856   0.00000  Uiso   1.00
O2171  O     0.59203   0.90615   0.90289   0.00000  Uiso   1.00
H2172  H     0.61760   0.93179   0.89984   0.00000  Uiso   1.00
N2173  N     0.47069   0.75873   0.95328   0.00000  Uiso   1.00
H2174  H     0.48732   0.73782   0.97418   0.00000  Uiso   1.00
C2175  C     0.42428   0.73932   0.92621   0.00000  Uiso   1.00
H2176  H     0.42929   0.70915   0.91248   0.00000  Uiso   1.00
H2177  H     0.41541   0.75844   0.89541   0.00000  Uiso   1.00
H2178  H     0.39252   0.73242   0.94733   0.00000  Uiso   1.00
N2179  N     0.55977   0.89777   0.72186   0.00000  Uiso   1.00
H2180  H     0.56741   0.88906   0.75543   0.00000  Uiso   1.00
C2181  C     0.55313   0.94094   0.71813   0.00000  Uiso   1.00
H2182  H     0.55021   0.95260   0.75258   0.00000  Uiso   1.00
H2183  H     0.51943   0.94469   0.69435   0.00000  Uiso   1.00
H2184  H     0.58724   0.96085   0.70671   0.00000  Uiso   1.00
C2185  C     0.83547   0.75436   0.83405   0.00000  Uiso   1.00
C2186  C     0.83087   0.91239   0.83267   0.00000  Uiso   1.00
C2187  C     0.73551   0.83487   0.82185   0.00000  Uiso   1.00
C2188  C     0.93206   0.83581   0.84494   0.00000  Uiso   1.00
C2189  C     0.68292   0.84107   0.81554   0.00000  Uiso   1.00
C2190  C     0.98728   0.83918   0.85217   0.00000  Uiso   1.00
C2191  C     0.83799   0.68938   0.79282   0.00000  Uiso   1.00
C2192  C     0.82623   0.97777   0.87386   0.00000  Uiso   1.00
C2193  C     0.81828   0.97945   0.79148   0.00000  Uiso   1.00
C2194  C     0.84712   0.68750   0.87561   0.00000  Uiso   1.00
C2195  C     0.82962   0.95756   0.83245   0.00000  Uiso   1.00
C2196  C     0.83551   0.70930   0.83449   0.00000  Uiso   1.00
C2197  C     0.80373   0.80132   0.68840   0.00000  Uiso   1.00
C2198  C     0.86200   0.86634   0.97773   0.00000  Uiso   1.00
C2199  C     0.80900   0.79923   0.97332   0.00000  Uiso   1.00
C2200  C     0.86074   0.86617   0.69394   0.00000  Uiso   1.00
Cu2201 Cu    0.83333   0.83334   0.88022   0.00000  Uiso   1.00
Cu2202 Cu    0.83333   0.83333   0.78645   0.00000  Uiso   1.00
N2203  N     0.83335   0.83334   0.95069   0.00000  Uiso   1.00
N2204  N     0.83332   0.83332   0.71597   0.00000  Uiso   1.00
O2205  O     0.83333   0.77322   0.87291   0.00000  Uiso   1.00
O2206  O     0.83334   0.89345   0.79375   0.00000  Uiso   1.00
O2207  O     0.83333   0.77321   0.79372   0.00000  Uiso   1.00
O2208  O     0.83334   0.89346   0.87294   0.00000  Uiso   1.00
O2209  O     0.75828   0.83334   0.86379   0.00000  Uiso   1.00
O2210  O     0.90839   0.83333   0.80288   0.00000  Uiso   1.00
O2211  O     0.75828   0.83333   0.78460   0.00000  Uiso   1.00
O2212  O     0.90839   0.83334   0.88207   0.00000  Uiso   1.00
S2213  S     0.99780   0.86013   0.75852   0.00000  Uiso   1.00
O2214  O     0.95252   0.83176   0.73445   0.00000  Uiso   1.00
O2215  O     0.98733   0.90328   0.76483   0.00000  Uiso   1.00
O2216  O     0.70940   0.86542   0.72251   0.00000  Uiso   1.00
H2217  H     0.69586   0.84608   0.69647   0.00000  Uiso   1.00
S2218  S     0.67915   0.83856   0.91269   0.00000  Uiso   1.00
O2219  O     0.69481   0.79732   0.92242   0.00000  Uiso   1.00
O2220  O     0.72398   0.87298   0.92311   0.00000  Uiso   1.00
O2221  O     0.97203   0.84327   0.95085   0.00000  Uiso   1.00
H2222  H     0.96025   0.81462   0.96246   0.00000  Uiso   1.00
N2223  N     0.88375   0.70341   0.77312   0.00000  Uiso   1.00
H2224  H     0.91098   0.68519   0.78152   0.00000  Uiso   1.00
C2225  C     0.87908   0.71620   0.72525   0.00000  Uiso   1.00
H2226  H     0.85835   0.68996   0.70313   0.00000  Uiso   1.00
H2227  H     0.91727   0.72614   0.71426   0.00000  Uiso   1.00
H2228  H     0.85968   0.74334   0.72092   0.00000  Uiso   1.00
N2229  N     0.78052   0.96456   0.89407   0.00000  Uiso   1.00
H2230  H     0.75566   0.93938   0.87888   0.00000  Uiso   1.00
C2231  C     0.78237   0.96618   0.94374   0.00000  Uiso   1.00
H2232  H     0.81001   0.99347   0.95832   0.00000  Uiso   1.00
H2233  H     0.79203   0.93675   0.95941   0.00000  Uiso   1.00
H2234  H     0.74452   0.96914   0.95263   0.00000  Uiso   1.00
N2235  N     0.76791   0.96736   0.76993   0.00000  Uiso   1.00
H2236  H     0.74475   0.98841   0.77482   0.00000  Uiso   1.00
C2237  C     0.76307   0.95447   0.72245   0.00000  Uiso   1.00
H2238  H     0.72260   0.94788   0.70820   0.00000  Uiso   1.00
H2239  H     0.77885   0.92558   0.72026   0.00000  Uiso   1.00
H2240  H     0.78271   0.97969   0.70156   0.00000  Uiso   1.00
N2241  N     0.89868   0.69812   0.89496   0.00000  Uiso   1.00
H2242  H     0.91900   0.67417   0.89479   0.00000  Uiso   1.00
C2243  C     0.90883   0.72074   0.93803   0.00000  Uiso   1.00
H2244  H     0.95018   0.72764   0.94849   0.00000  Uiso   1.00
H2245  H     0.89090   0.70143   0.96546   0.00000  Uiso   1.00
H2246  H     0.89559   0.75102   0.93406   0.00000  Uiso   1.00
S2247  S     0.75375   0.76221   0.70808   0.00000  Uiso   1.00
O2248  O     0.76159   0.71916   0.69709   0.00000  Uiso   1.00
O2249  O     0.74588   0.76172   0.75807   0.00000  Uiso   1.00
O2250  O     0.69919   0.76971   0.67817   0.00000  Uiso   1.00
H2251  H     0.67320   0.74703   0.68859   0.00000  Uiso   1.00
S2252  S     0.90708   0.90885   0.95548   0.00000  Uiso   1.00
O2253  O     0.88598   0.94836   0.95485   0.00000  Uiso   1.00
O2254  O     0.95491   0.91486   0.98856   0.00000  Uiso   1.00
O2255  O     0.92536   0.90615   0.90289   0.00000  Uiso   1.00
H2256  H     0.95094   0.93179   0.89984   0.00000  Uiso   1.00
N2257  N     0.80402   0.75873   0.95328   0.00000  Uiso   1.00
H2258  H     0.82065   0.73782   0.97418   0.00000  Uiso   1.00
C2259  C     0.75761   0.73932   0.92621   0.00000  Uiso   1.00
H2260  H     0.76262   0.70915   0.91248   0.00000  Uiso   1.00
H2261  H     0.74875   0.75844   0.89541   0.00000  Uiso   1.00
H2262  H     0.72586   0.73242   0.94733   0.00000  Uiso   1.00
N2263  N     0.89310   0.89777   0.72186   0.00000  Uiso   1.00
H2264  H     0.90074   0.88906   0.75543   0.00000  Uiso   1.00
C2265  C     0.88647   0.94094   0.71813   0.00000  Uiso   1.00
H2266  H     0.88355   0.95260   0.75258   0.00000  Uiso   1.00
H2267  H     0.85276   0.94469   0.69435   0.00000  Uiso   1.00
H2268  H     0.92057   0.96085   0.70671   0.00000  Uiso   1.00
loop_
_geom_bond_atom_site_label_1
_geom_bond_atom_site_label_2
_geom_bond_distance
_geom_bond_site_symmetry_2
_ccdc_geom_bond_type
C1     O21     1.311   .     A
C1     C12     1.463   .     S
C1     O23     1.308   .     A
C2     O22     1.316   .     A
C2     C11     1.473   .     S
C2     O24     1.308   .     A
C3     O25     1.302   .     A
C3     C5      1.466   .     S
C3     O27     1.316   .     A
C4     O28     1.314   .     A
C4     C6      1.472   .     S
C4     O26     1.308   .     A
C5     C174    1.392   1_455 S
C5     S197    1.799   1_455 S
C6     C89     1.392   .     S
C6     S118    1.810   .     S
C7     C12     1.403   .     A
C7     N39     1.424   .     S
C7     C513    1.408   1_545 S
C8     C11     1.407   .     A
C8     N45     1.426   .     S
C8     C262    1.409   .     S
C9     N51     1.423   .     S
C9     C11     1.401   .     A
C9     C259    1.408   .     S
C10    N57     1.427   .     S
C10    C12     1.405   .     A
C10    C512    1.409   1_545 S
C13    S63     1.815   .     S
C13    N20     1.397   .     A
C13    C1527   1.436   1_554 S
C14    N19     1.401   .     A
C14    S68     1.829   .     S
C14    C772    1.445   .     S
C15    N19     1.376   .     A
C15    N73     1.429   .     S
C15    C769    1.436   .     S
C16    N20     1.374   .     A
C16    N79     1.423   .     S
C16    C1526   1.445   1_554 S
Cu17   O24     1.957   .     S
Cu17   O21     1.969   .     S
Cu17   Cu18    2.726   .     S
Cu17   O28     2.031   .     S
Cu17   O25     2.035   .     S
Cu17   N19     2.048   .     S
Cu18   O26     2.035   .     S
Cu18   O23     1.957   .     S
Cu18   O22     1.969   .     S
Cu18   O27     2.031   .     S
Cu18   N20     2.048   .     S
S29    O30     1.503   .     D
S29    O31     1.500   .     D
S29    C89     1.799   .     S
S29    O116    1.683   .     S
O32    H33     0.988   .     S
O32    S197    1.683   1_455 S
S34    O35     1.487   .     D
S34    O36     1.501   .     D
S34    C174    1.810   1_455 S
S34    O205    1.680   1_455 S
O37    H38     0.991   .     S
O37    S118    1.680   .     S
N39    H40     1.031   .     S
N39    C41     1.439   .     S
C41    H42     1.106   .     S
C41    H43     1.110   .     S
C41    H44     1.103   .     S
N45    C47     1.441   .     S
N45    H46     1.031   .     S
C47    H49     1.109   .     S
C47    H50     1.110   .     S
C47    H48     1.108   .     S
N51    H52     1.033   .     S
N51    C53     1.437   .     S
C53    H54     1.110   .     S
C53    H55     1.106   .     S
C53    H56     1.102   .     S
N57    C59     1.440   .     S
N57    H58     1.032   .     S
C59    H60     1.109   .     S
C59    H61     1.105   .     S
C59    H62     1.105   .     S
S63    O65     1.493   .     D
S63    O66     1.678   .     S
S63    O64     1.500   .     D
O66    H67     0.990   .     S
S68    O69     1.496   .     D
S68    O70     1.504   .     D
S68    O71     1.672   .     S
O71    H72     0.991   .     S
N73    C75     1.449   .     S
N73    H74     1.028   .     S
C75    H76     1.104   .     S
C75    H77     1.103   .     S
C75    H78     1.104   .     S
N79    C81     1.445   .     S
N79    H80     1.016   .     S
C81    H82     1.097   .     S
C81    H83     1.101   .     S
C81    H84     1.108   .     S
C85    O105    1.311   .     A
C85    C96     1.463   .     S
C85    O107    1.308   .     A
C86    O106    1.316   .     A
C86    C95     1.473   .     S
C86    O108    1.308   .     A
C87    O109    1.302   .     A
C87    C89     1.466   .     S
C87    O111    1.316   .     A
C88    O112    1.314   .     A
C88    C90     1.472   .     S
C88    O110    1.308   .     A
C90    C173    1.392   .     S
C90    S202    1.810   .     S
C91    C96     1.403   .     A
C91    N123    1.424   .     S
C91    C597    1.408   1_545 S
C92    C95     1.407   .     A
C92    N129    1.426   .     S
C92    C346    1.409   .     S
C93    N135    1.423   .     S
C93    C95     1.401   .     A
C93    C343    1.408   .     S
C94    N141    1.427   .     S
C94    C96     1.405   .     A
C94    C596    1.409   1_545 S
C97    S147    1.815   .     S
C97    N104    1.397   .     A
C97    C1611   1.436   1_554 S
C98    N103    1.401   .     A
C98    S152    1.829   .     S
C98    C856    1.445   .     S
C99    N103    1.376   .     A
C99    N157    1.429   .     S
C99    C853    1.436   .     S
C100   N104    1.374   .     A
C100   N163    1.423   .     S
C100   C1610   1.445   1_554 S
Cu101  O108    1.957   .     S
Cu101  O105    1.969   .     S
Cu101  Cu102   2.726   .     S
Cu101  O112    2.031   .     S
Cu101  O109    2.035   .     S
Cu101  N103    2.048   .     S
Cu102  O110    2.035   .     S
Cu102  O107    1.957   .     S
Cu102  O106    1.969   .     S
Cu102  O111    2.031   .     S
Cu102  N104    2.048   .     S
S113   O114    1.503   .     D
S113   O115    1.500   .     D
S113   C173    1.799   .     S
S113   O200    1.683   .     S
O116   H117    0.988   .     S
S118   O119    1.487   .     D
S118   O120    1.501   .     D
O121   H122    0.991   .     S
O121   S202    1.680   .     S
N123   H124    1.031   .     S
N123   C125    1.439   .     S
C125   H126    1.106   .     S
C125   H127    1.110   .     S
C125   H128    1.103   .     S
N129   C131    1.441   .     S
N129   H130    1.031   .     S
C131   H133    1.109   .     S
C131   H134    1.110   .     S
C131   H132    1.108   .     S
N135   H136    1.033   .     S
N135   C137    1.437   .     S
C137   H138    1.110   .     S
C137   H139    1.106   .     S
C137   H140    1.102   .     S
N141   C143    1.440   .     S
N141   H142    1.032   .     S
C143   H144    1.109   .     S
C143   H145    1.105   .     S
C143   H146    1.105   .     S
S147   O149    1.493   .     D
S147   O150    1.678   .     S
S147   O148    1.500   .     D
O150   H151    0.990   .     S
S152   O153    1.496   .     D
S152   O154    1.504   .     D
S152   O155    1.672   .     S
O155   H156    0.991   .     S
N157   C159    1.449   .     S
N157   H158    1.028   .     S
C159   H160    1.104   .     S
C159   H161    1.103   .     S
C159   H162    1.104   .     S
N163   C165    1.445   .     S
N163   H164    1.016   .     S
C165   H166    1.097   .     S
C165   H167    1.101   .     S
C165   H168    1.108   .     S
C169   O189    1.311   .     A
C169   C180    1.463   .     S
C169   O191    1.308   .     A
C170   O190    1.316   .     A
C170   C179    1.473   .     S
C170   O192    1.308   .     A
C171   O193    1.302   .     A
C171   C173    1.466   .     S
C171   O195    1.316   .     A
C172   O196    1.314   .     A
C172   C174    1.472   .     S
C172   O194    1.308   .     A
C174   C5      1.392   1_655 S
C174   S34     1.810   1_655 S
C175   C180    1.403   .     A
C175   N207    1.424   .     S
C175   C681    1.408   1_545 S
C176   C179    1.407   .     A
C176   N213    1.426   .     S
C176   C430    1.409   .     S
C177   N219    1.423   .     S
C177   C179    1.401   .     A
C177   C427    1.408   .     S
C178   N225    1.427   .     S
C178   C180    1.405   .     A
C178   C680    1.409   1_545 S
C181   S231    1.815   .     S
C181   N188    1.397   .     A
C181   C1695   1.436   1_554 S
C182   N187    1.401   .     A
C182   S236    1.829   .     S
C182   C940    1.445   .     S
C183   N187    1.376   .     A
C183   N241    1.429   .     S
C183   C937    1.436   .     S
C184   N188    1.374   .     A
C184   N247    1.423   .     S
C184   C1694   1.445   1_554 S
Cu185  O192    1.957   .     S
Cu185  O189    1.969   .     S
Cu185  Cu186   2.726   .     S
Cu185  O196    2.031   .     S
Cu185  O193    2.035   .     S
Cu185  N187    2.048   .     S
Cu186  O194    2.035   .     S
Cu186  O191    1.957   .     S
Cu186  O190    1.969   .     S
Cu186  O195    2.031   .     S
Cu186  N188    2.048   .     S
S197   O198    1.503   .     D
S197   O199    1.500   .     D
S197   C5      1.799   1_655 S
S197   O32     1.683   1_655 S
O200   H201    0.988   .     S
S202   O203    1.487   .     D
S202   O204    1.501   .     D
O205   H206    0.991   .     S
O205   S34     1.680   1_655 S
N207   H208    1.031   .     S
N207   C209    1.439   .     S
C209   H210    1.106   .     S
C209   H211    1.110   .     S
C209   H212    1.103   .     S
N213   C215    1.441   .     S
N213   H214    1.031   .     S
C215   H217    1.109   .     S
C215   H218    1.110   .     S
C215   H216    1.108   .     S
N219   H220    1.033   .     S
N219   C221    1.437   .     S
C221   H222    1.110   .     S
C221   H223    1.106   .     S
C221   H224    1.102   .     S
N225   C227    1.440   .     S
N225   H226    1.032   .     S
C227   H228    1.109   .     S
C227   H229    1.105   .     S
C227   H230    1.105   .     S
S231   O233    1.493   .     D
S231   O234    1.678   .     S
S231   O232    1.500   .     D
O234   H235    0.990   .     S
S236   O237    1.496   .     D
S236   O238    1.504   .     D
S236   O239    1.672   .     S
O239   H240    0.991   .     S
N241   C243    1.449   .     S
N241   H242    1.028   .     S
C243   H244    1.104   .     S
C243   H245    1.103   .     S
C243   H246    1.104   .     S
N247   C249    1.445   .     S
N247   H248    1.016   .     S
C249   H250    1.097   .     S
C249   H251    1.101   .     S
C249   H252    1.108   .     S
C253   O273    1.311   .     A
C253   C264    1.463   .     S
C253   O275    1.308   .     A
C254   O274    1.316   .     A
C254   C263    1.473   .     S
C254   O276    1.308   .     A
C255   O277    1.302   .     A
C255   C257    1.466   .     S
C255   O279    1.316   .     A
C256   O280    1.314   .     A
C256   C258    1.472   .     S
C256   O278    1.308   .     A
C257   C426    1.392   1_455 S
C257   S449    1.799   1_455 S
C258   C341    1.392   .     S
C258   S370    1.810   .     S
C259   C264    1.403   .     A
C259   N291    1.424   .     S
C260   C263    1.407   .     A
C260   N297    1.426   .     S
C260   C514    1.409   .     S
C261   N303    1.423   .     S
C261   C263    1.401   .     A
C261   C511    1.408   .     S
C262   N309    1.427   .     S
C262   C264    1.405   .     A
C265   S315    1.815   .     S
C265   N272    1.397   .     A
C265   C1779   1.436   1_554 S
C266   N271    1.401   .     A
C266   S320    1.829   .     S
C266   C1024   1.445   .     S
C267   N271    1.376   .     A
C267   N325    1.429   .     S
C267   C1021   1.436   .     S
C268   N272    1.374   .     A
C268   N331    1.423   .     S
C268   C1778   1.445   1_554 S
Cu269  O276    1.957   .     S
Cu269  O273    1.969   .     S
Cu269  Cu270   2.726   .     S
Cu269  O280    2.031   .     S
Cu269  O277    2.035   .     S
Cu269  N271    2.048   .     S
Cu270  O278    2.035   .     S
Cu270  O275    1.957   .     S
Cu270  O274    1.969   .     S
Cu270  O279    2.031   .     S
Cu270  N272    2.048   .     S
S281   O282    1.503   .     D
S281   O283    1.500   .     D
S281   C341    1.799   .     S
S281   O368    1.683   .     S
O284   H285    0.988   .     S
O284   S449    1.683   1_455 S
S286   O287    1.487   .     D
S286   O288    1.501   .     D
S286   C426    1.810   1_455 S
S286   O457    1.680   1_455 S
O289   H290    0.991   .     S
O289   S370    1.680   .     S
N291   H292    1.031   .     S
N291   C293    1.439   .     S
C293   H294    1.106   .     S
C293   H295    1.110   .     S
C293   H296    1.103   .     S
N297   C299    1.441   .     S
N297   H298    1.031   .     S
C299   H301    1.109   .     S
C299   H302    1.110   .     S
C299   H300    1.108   .     S
N303   H304    1.033   .     S
N303   C305    1.437   .     S
C305   H306    1.110   .     S
C305   H307    1.106   .     S
C305   H308    1.102   .     S
N309   C311    1.440   .     S
N309   H310    1.032   .     S
C311   H312    1.109   .     S
C311   H313    1.105   .     S
C311   H314    1.105   .     S
S315   O317    1.493   .     D
S315   O318    1.678   .     S
S315   O316    1.500   .     D
O318   H319    0.990   .     S
S320   O321    1.496   .     D
S320   O322    1.504   .     D
S320   O323    1.672   .     S
O323   H324    0.991   .     S
N325   C327    1.449   .     S
N325   H326    1.028   .     S
C327   H328    1.104   .     S
C327   H329    1.103   .     S
C327   H330    1.104   .     S
N331   C333    1.445   .     S
N331   H332    1.016   .     S
C333   H334    1.097   .     S
C333   H335    1.101   .     S
C333   H336    1.108   .     S
C337   O357    1.311   .     A
C337   C348    1.463   .     S
C337   O359    1.308   .     A
C338   O358    1.316   .     A
C338   C347    1.473   .     S
C338   O360    1.308   .     A
C339   O361    1.302   .     A
C339   C341    1.466   .     S
C339   O363    1.316   .     A
C340   O364    1.314   .     A
C340   C342    1.472   .     S
C340   O362    1.308   .     A
C342   C425    1.392   .     S
C342   S454    1.810   .     S
C343   C348    1.403   .     A
C343   N375    1.424   .     S
C344   C347    1.407   .     A
C344   N381    1.426   .     S
C344   C598    1.409   .     S
C345   N387    1.423   .     S
C345   C347    1.401   .     A
C345   C595    1.408   .     S
C346   N393    1.427   .     S
C346   C348    1.405   .     A
C349   S399    1.815   .     S
C349   N356    1.397   .     A
C349   C1863   1.436   1_554 S
C350   N355    1.401   .     A
C350   S404    1.829   .     S
C350   C1108   1.445   .     S
C351   N355    1.376   .     A
C351   N409    1.429   .     S
C351   C1105   1.436   .     S
C352   N356    1.374   .     A
C352   N415    1.423   .     S
C352   C1862   1.445   1_554 S
Cu353  O360    1.957   .     S
Cu353  O357    1.969   .     S
Cu353  Cu354   2.726   .     S
Cu353  O364    2.031   .     S
Cu353  O361    2.035   .     S
Cu353  N355    2.048   .     S
Cu354  O362    2.035   .     S
Cu354  O359    1.957   .     S
Cu354  O358    1.969   .     S
Cu354  O363    2.031   .     S
Cu354  N356    2.048   .     S
S365   O366    1.503   .     D
S365   O367    1.500   .     D
S365   C425    1.799   .     S
S365   O452    1.683   .     S
O368   H369    0.988   .     S
S370   O371    1.487   .     D
S370   O372    1.501   .     D
O373   H374    0.991   .     S
O373   S454    1.680   .     S
N375   H376    1.031   .     S
N375   C377    1.439   .     S
C377   H378    1.106   .     S
C377   H379    1.110   .     S
C377   H380    1.103   .     S
N381   C383    1.441   .     S
N381   H382    1.031   .     S
C383   H385    1.109   .     S
C383   H386    1.110   .     S
C383   H384    1.108   .     S
N387   H388    1.033   .     S
N387   C389    1.437   .     S
C389   H390    1.110   .     S
C389   H391    1.106   .     S
C389   H392    1.102   .     S
N393   C395    1.440   .     S
N393   H394    1.032   .     S
C395   H396    1.109   .     S
C395   H397    1.105   .     S
C395   H398    1.105   .     S
S399   O401    1.493   .     D
S399   O402    1.678   .     S
S399   O400    1.500   .     D
O402   H403    0.990   .     S
S404   O405    1.496   .     D
S404   O406    1.504   .     D
S404   O407    1.672   .     S
O407   H408    0.991   .     S
N409   C411    1.449   .     S
N409   H410    1.028   .     S
C411   H412    1.104   .     S
C411   H413    1.103   .     S
C411   H414    1.104   .     S
N415   C417    1.445   .     S
N415   H416    1.016   .     S
C417   H418    1.097   .     S
C417   H419    1.101   .     S
C417   H420    1.108   .     S
C421   O441    1.311   .     A
C421   C432    1.463   .     S
C421   O443    1.308   .     A
C422   O442    1.316   .     A
C422   C431    1.473   .     S
C422   O444    1.308   .     A
C423   O445    1.302   .     A
C423   C425    1.466   .     S
C423   O447    1.316   .     A
C424   O448    1.314   .     A
C424   C426    1.472   .     S
C424   O446    1.308   .     A
C426   C257    1.392   1_655 S
C426   S286    1.810   1_655 S
C427   C432    1.403   .     A
C427   N459    1.424   .     S
C428   C431    1.407   .     A
C428   N465    1.426   .     S
C428   C682    1.409   .     S
C429   N471    1.423   .     S
C429   C431    1.401   .     A
C429   C679    1.408   .     S
C430   N477    1.427   .     S
C430   C432    1.405   .     A
C433   S483    1.815   .     S
C433   N440    1.397   .     A
C433   C1947   1.436   1_554 S
C434   N439    1.401   .     A
C434   S488    1.829   .     S
C434   C1192   1.445   .     S
C435   N439    1.376   .     A
C435   N493    1.429   .     S
C435   C1189   1.436   .     S
C436   N440    1.374   .     A
C436   N499    1.423   .     S
C436   C1946   1.445   1_554 S
Cu437  O444    1.957   .     S
Cu437  O441    1.969   .     S
Cu437  Cu438   2.726   .     S
Cu437  O448    2.031   .     S
Cu437  O445    2.035   .     S
Cu437  N439    2.048   .     S
Cu438  O446    2.035   .     S
Cu438  O443    1.957   .     S
Cu438  O442    1.969   .     S
Cu438  O447    2.031   .     S
Cu438  N440    2.048   .     S
S449   O450    1.503   .     D
S449   O451    1.500   .     D
S449   C257    1.799   1_655 S
S449   O284    1.683   1_655 S
O452   H453    0.988   .     S
S454   O455    1.487   .     D
S454   O456    1.501   .     D
O457   H458    0.991   .     S
O457   S286    1.680   1_655 S
N459   H460    1.031   .     S
N459   C461    1.439   .     S
C461   H462    1.106   .     S
C461   H463    1.110   .     S
C461   H464    1.103   .     S
N465   C467    1.441   .     S
N465   H466    1.031   .     S
C467   H469    1.109   .     S
C467   H470    1.110   .     S
C467   H468    1.108   .     S
N471   H472    1.033   .     S
N471   C473    1.437   .     S
C473   H474    1.110   .     S
C473   H475    1.106   .     S
C473   H476    1.102   .     S
N477   C479    1.440   .     S
N477   H478    1.032   .     S
C479   H480    1.109   .     S
C479   H481    1.105   .     S
C479   H482    1.105   .     S
S483   O485    1.493   .     D
S483   O486    1.678   .     S
S483   O484    1.500   .     D
O486   H487    0.990   .     S
S488   O489    1.496   .     D
S488   O490    1.504   .     D
S488   O491    1.672   .     S
O491   H492    0.991   .     S
N493   C495    1.449   .     S
N493   H494    1.028   .     S
C495   H496    1.104   .     S
C495   H497    1.103   .     S
C495   H498    1.104   .     S
N499   C501    1.445   .     S
N499   H500    1.016   .     S
C501   H502    1.097   .     S
C501   H503    1.101   .     S
C501   H504    1.108   .     S
C505   O525    1.311   .     A
C505   C516    1.463   .     S
C505   O527    1.308   .     A
C506   O526    1.316   .     A
C506   C515    1.473   .     S
C506   O528    1.308   .     A
C507   O529    1.302   .     A
C507   C509    1.466   .     S
C507   O531    1.316   .     A
C508   O532    1.314   .     A
C508   C510    1.472   .     S
C508   O530    1.308   .     A
C509   C678    1.392   1_455 S
C509   S701    1.799   1_455 S
C510   C593    1.392   .     S
C510   S622    1.810   .     S
C511   C516    1.403   .     A
C511   N543    1.424   .     S
C512   C515    1.407   .     A
C512   N549    1.426   .     S
C512   C10     1.409   1_565 S
C513   N555    1.423   .     S
C513   C515    1.401   .     A
C513   C7      1.408   1_565 S
C514   N561    1.427   .     S
C514   C516    1.405   .     A
C517   S567    1.815   .     S
C517   N524    1.397   .     A
C517   C2031   1.436   1_554 S
C518   N523    1.401   .     A
C518   S572    1.829   .     S
C518   C1276   1.445   .     S
C519   N523    1.376   .     A
C519   N577    1.429   .     S
C519   C1273   1.436   .     S
C520   N524    1.374   .     A
C520   N583    1.423   .     S
C520   C2030   1.445   1_554 S
Cu521  O528    1.957   .     S
Cu521  O525    1.969   .     S
Cu521  Cu522   2.726   .     S
Cu521  O532    2.031   .     S
Cu521  O529    2.035   .     S
Cu521  N523    2.048   .     S
Cu522  O530    2.035   .     S
Cu522  O527    1.957   .     S
Cu522  O526    1.969   .     S
Cu522  O531    2.031   .     S
Cu522  N524    2.048   .     S
S533   O534    1.503   .     D
S533   O535    1.500   .     D
S533   C593    1.799   .     S
S533   O620    1.683   .     S
O536   H537    0.988   .     S
O536   S701    1.683   1_455 S
S538   O539    1.487   .     D
S538   O540    1.501   .     D
S538   C678    1.810   1_455 S
S538   O709    1.680   1_455 S
O541   H542    0.991   .     S
O541   S622    1.680   .     S
N543   H544    1.031   .     S
N543   C545    1.439   .     S
C545   H546    1.106   .     S
C545   H547    1.110   .     S
C545   H548    1.103   .     S
N549   C551    1.441   .     S
N549   H550    1.031   .     S
C551   H553    1.109   .     S
C551   H554    1.110   .     S
C551   H552    1.108   .     S
N555   H556    1.033   .     S
N555   C557    1.437   .     S
C557   H558    1.110   .     S
C557   H559    1.106   .     S
C557   H560    1.102   .     S
N561   C563    1.440   .     S
N561   H562    1.032   .     S
C563   H564    1.109   .     S
C563   H565    1.105   .     S
C563   H566    1.105   .     S
S567   O569    1.493   .     D
S567   O570    1.678   .     S
S567   O568    1.500   .     D
O570   H571    0.990   .     S
S572   O573    1.496   .     D
S572   O574    1.504   .     D
S572   O575    1.672   .     S
O575   H576    0.991   .     S
N577   C579    1.449   .     S
N577   H578    1.028   .     S
C579   H580    1.104   .     S
C579   H581    1.103   .     S
C579   H582    1.104   .     S
N583   C585    1.445   .     S
N583   H584    1.016   .     S
C585   H586    1.097   .     S
C585   H587    1.101   .     S
C585   H588    1.108   .     S
C589   O609    1.311   .     A
C589   C600    1.463   .     S
C589   O611    1.308   .     A
C590   O610    1.316   .     A
C590   C599    1.473   .     S
C590   O612    1.308   .     A
C591   O613    1.302   .     A
C591   C593    1.466   .     S
C591   O615    1.316   .     A
C592   O616    1.314   .     A
C592   C594    1.472   .     S
C592   O614    1.308   .     A
C594   C677    1.392   .     S
C594   S706    1.810   .     S
C595   C600    1.403   .     A
C595   N627    1.424   .     S
C596   C599    1.407   .     A
C596   N633    1.426   .     S
C596   C94     1.409   1_565 S
C597   N639    1.423   .     S
C597   C599    1.401   .     A
C597   C91     1.408   1_565 S
C598   N645    1.427   .     S
C598   C600    1.405   .     A
C601   S651    1.815   .     S
C601   N608    1.397   .     A
C601   C2115   1.436   1_554 S
C602   N607    1.401   .     A
C602   S656    1.829   .     S
C602   C1360   1.445   .     S
C603   N607    1.376   .     A
C603   N661    1.429   .     S
C603   C1357   1.436   .     S
C604   N608    1.374   .     A
C604   N667    1.423   .     S
C604   C2114   1.445   1_554 S
Cu605  O612    1.957   .     S
Cu605  O609    1.969   .     S
Cu605  Cu606   2.726   .     S
Cu605  O616    2.031   .     S
Cu605  O613    2.035   .     S
Cu605  N607    2.048   .     S
Cu606  O614    2.035   .     S
Cu606  O611    1.957   .     S
Cu606  O610    1.969   .     S
Cu606  O615    2.031   .     S
Cu606  N608    2.048   .     S
S617   O618    1.503   .     D
S617   O619    1.500   .     D
S617   C677    1.799   .     S
S617   O704    1.683   .     S
O620   H621    0.988   .     S
S622   O623    1.487   .     D
S622   O624    1.501   .     D
O625   H626    0.991   .     S
O625   S706    1.680   .     S
N627   H628    1.031   .     S
N627   C629    1.439   .     S
C629   H630    1.106   .     S
C629   H631    1.110   .     S
C629   H632    1.103   .     S
N633   C635    1.441   .     S
N633   H634    1.031   .     S
C635   H637    1.109   .     S
C635   H638    1.110   .     S
C635   H636    1.108   .     S
N639   H640    1.033   .     S
N639   C641    1.437   .     S
C641   H642    1.110   .     S
C641   H643    1.106   .     S
C641   H644    1.102   .     S
N645   C647    1.440   .     S
N645   H646    1.032   .     S
C647   H648    1.109   .     S
C647   H649    1.105   .     S
C647   H650    1.105   .     S
S651   O653    1.493   .     D
S651   O654    1.678   .     S
S651   O652    1.500   .     D
O654   H655    0.990   .     S
S656   O657    1.496   .     D
S656   O658    1.504   .     D
S656   O659    1.672   .     S
O659   H660    0.991   .     S
N661   C663    1.449   .     S
N661   H662    1.028   .     S
C663   H664    1.104   .     S
C663   H665    1.103   .     S
C663   H666    1.104   .     S
N667   C669    1.445   .     S
N667   H668    1.016   .     S
C669   H670    1.097   .     S
C669   H671    1.101   .     S
C669   H672    1.108   .     S
C673   O693    1.311   .     A
C673   C684    1.463   .     S
C673   O695    1.308   .     A
C674   O694    1.316   .     A
C674   C683    1.473   .     S
C674   O696    1.308   .     A
C675   O697    1.302   .     A
C675   C677    1.466   .     S
C675   O699    1.316   .     A
C676   O700    1.314   .     A
C676   C678    1.472   .     S
C676   O698    1.308   .     A
C678   C509    1.392   1_655 S
C678   S538    1.810   1_655 S
C679   C684    1.403   .     A
C679   N711    1.424   .     S
C680   C683    1.407   .     A
C680   N717    1.426   .     S
C680   C178    1.409   1_565 S
C681   N723    1.423   .     S
C681   C683    1.401   .     A
C681   C175    1.408   1_565 S
C682   N729    1.427   .     S
C682   C684    1.405   .     A
C685   S735    1.815   .     S
C685   N692    1.397   .     A
C685   C2199   1.436   1_554 S
C686   N691    1.401   .     A
C686   S740    1.829   .     S
C686   C1444   1.445   .     S
C687   N691    1.376   .     A
C687   N745    1.429   .     S
C687   C1441   1.436   .     S
C688   N692    1.374   .     A
C688   N751    1.423   .     S
C688   C2198   1.445   1_554 S
Cu689  O696    1.957   .     S
Cu689  O693    1.969   .     S
Cu689  Cu690   2.726   .     S
Cu689  O700    2.031   .     S
Cu689  O697    2.035   .     S
Cu689  N691    2.048   .     S
Cu690  O698    2.035   .     S
Cu690  O695    1.957   .     S
Cu690  O694    1.969   .     S
Cu690  O699    2.031   .     S
Cu690  N692    2.048   .     S
S701   O702    1.503   .     D
S701   O703    1.500   .     D
S701   C509    1.799   1_655 S
S701   O536    1.683   1_655 S
O704   H705    0.988   .     S
S706   O707    1.487   .     D
S706   O708    1.501   .     D
O709   H710    0.991   .     S
O709   S538    1.680   1_655 S
N711   H712    1.031   .     S
N711   C713    1.439   .     S
C713   H714    1.106   .     S
C713   H715    1.110   .     S
C713   H716    1.103   .     S
N717   C719    1.441   .     S
N717   H718    1.031   .     S
C719   H721    1.109   .     S
C719   H722    1.110   .     S
C719   H720    1.108   .     S
N723   H724    1.033   .     S
N723   C725    1.437   .     S
C725   H726    1.110   .     S
C725   H727    1.106   .     S
C725   H728    1.102   .     S
N729   C731    1.440   .     S
N729   H730    1.032   .     S
C731   H732    1.109   .     S
C731   H733    1.105   .     S
C731   H734    1.105   .     S
S735   O737    1.493   .     D
S735   O738    1.678   .     S
S735   O736    1.500   .     D
O738   H739    0.990   .     S
S740   O741    1.496   .     D
S740   O742    1.504   .     D
S740   O743    1.672   .     S
O743   H744    0.991   .     S
N745   C747    1.449   .     S
N745   H746    1.028   .     S
C747   H748    1.104   .     S
C747   H749    1.103   .     S
C747   H750    1.104   .     S
N751   C753    1.445   .     S
N751   H752    1.016   .     S
C753   H754    1.097   .     S
C753   H755    1.101   .     S
C753   H756    1.108   .     S
C757   O777    1.311   .     A
C757   C768    1.463   .     S
C757   O779    1.308   .     A
C758   O778    1.316   .     A
C758   C767    1.473   .     S
C758   O780    1.308   .     A
C759   O781    1.302   .     A
C759   C761    1.466   .     S
C759   O783    1.316   .     A
C760   O784    1.314   .     A
C760   C762    1.472   .     S
C760   O782    1.308   .     A
C761   C930    1.392   1_455 S
C761   S953    1.799   1_455 S
C762   C845    1.392   .     S
C762   S874    1.810   .     S
C763   C768    1.403   .     A
C763   N795    1.424   .     S
C763   C1269   1.408   1_545 S
C764   C767    1.407   .     A
C764   N801    1.426   .     S
C764   C1018   1.409   .     S
C765   N807    1.423   .     S
C765   C767    1.401   .     A
C765   C1015   1.408   .     S
C766   N813    1.427   .     S
C766   C768    1.405   .     A
C766   C1268   1.409   1_545 S
C769   S819    1.815   .     S
C769   N776    1.397   .     A
C770   N775    1.401   .     A
C770   S824    1.829   .     S
C770   C1528   1.445   .     S
C771   N775    1.376   .     A
C771   N829    1.429   .     S
C771   C1525   1.436   .     S
C772   N776    1.374   .     A
C772   N835    1.423   .     S
Cu773  O780    1.957   .     S
Cu773  O777    1.969   .     S
Cu773  Cu774   2.726   .     S
Cu773  O784    2.031   .     S
Cu773  O781    2.035   .     S
Cu773  N775    2.048   .     S
Cu774  O782    2.035   .     S
Cu774  O779    1.957   .     S
Cu774  O778    1.969   .     S
Cu774  O783    2.031   .     S
Cu774  N776    2.048   .     S
S785   O786    1.503   .     D
S785   O787    1.500   .     D
S785   C845    1.799   .     S
S785   O872    1.683   .     S
O788   H789    0.988   .     S
O788   S953    1.683   1_455 S
S790   O791    1.487   .     D
S790   O792    1.501   .     D
S790   C930    1.810   1_455 S
S790   O961    1.680   1_455 S
O793   H794    0.991   .     S
O793   S874    1.680   .     S
N795   H796    1.031   .     S
N795   C797    1.439   .     S
C797   H798    1.106   .     S
C797   H799    1.110   .     S
C797   H800    1.103   .     S
N801   C803    1.441   .     S
N801   H802    1.031   .     S
C803   H805    1.109   .     S
C803   H806    1.110   .     S
C803   H804    1.108   .     S
N807   H808    1.033   .     S
N807   C809    1.437   .     S
C809   H810    1.110   .     S
C809   H811    1.106   .     S
C809   H812    1.102   .     S
N813   C815    1.440   .     S
N813   H814    1.032   .     S
C815   H816    1.109   .     S
C815   H817    1.105   .     S
C815   H818    1.105   .     S
S819   O821    1.493   .     D
S819   O822    1.678   .     S
S819   O820    1.500   .     D
O822   H823    0.990   .     S
S824   O825    1.496   .     D
S824   O826    1.504   .     D
S824   O827    1.672   .     S
O827   H828    0.991   .     S
N829   C831    1.449   .     S
N829   H830    1.028   .     S
C831   H832    1.104   .     S
C831   H833    1.103   .     S
C831   H834    1.104   .     S
N835   C837    1.445   .     S
N835   H836    1.016   .     S
C837   H838    1.097   .     S
C837   H839    1.101   .     S
C837   H840    1.108   .     S
C841   O861    1.311   .     A
C841   C852    1.463   .     S
C841   O863    1.308   .     A
C842   O862    1.316   .     A
C842   C851    1.473   .     S
C842   O864    1.308   .     A
C843   O865    1.302   .     A
C843   C845    1.466   .     S
C843   O867    1.316   .     A
C844   O868    1.314   .     A
C844   C846    1.472   .     S
C844   O866    1.308   .     A
C846   C929    1.392   .     S
C846   S958    1.810   .     S
C847   C852    1.403   .     A
C847   N879    1.424   .     S
C847   C1353   1.408   1_545 S
C848   C851    1.407   .     A
C848   N885    1.426   .     S
C848   C1102   1.409   .     S
C849   N891    1.423   .     S
C849   C851    1.401   .     A
C849   C1099   1.408   .     S
C850   N897    1.427   .     S
C850   C852    1.405   .     A
C850   C1352   1.409   1_545 S
C853   S903    1.815   .     S
C853   N860    1.397   .     A
C854   N859    1.401   .     A
C854   S908    1.829   .     S
C854   C1612   1.445   .     S
C855   N859    1.376   .     A
C855   N913    1.429   .     S
C855   C1609   1.436   .     S
C856   N860    1.374   .     A
C856   N919    1.423   .     S
Cu857  O864    1.957   .     S
Cu857  O861    1.969   .     S
Cu857  Cu858   2.726   .     S
Cu857  O868    2.031   .     S
Cu857  O865    2.035   .     S
Cu857  N859    2.048   .     S
Cu858  O866    2.035   .     S
Cu858  O863    1.957   .     S
Cu858  O862    1.969   .     S
Cu858  O867    2.031   .     S
Cu858  N860    2.048   .     S
S869   O870    1.503   .     D
S869   O871    1.500   .     D
S869   C929    1.799   .     S
S869   O956    1.683   .     S
O872   H873    0.988   .     S
S874   O875    1.487   .     D
S874   O876    1.501   .     D
O877   H878    0.991   .     S
O877   S958    1.680   .     S
N879   H880    1.031   .     S
N879   C881    1.439   .     S
C881   H882    1.106   .     S
C881   H883    1.110   .     S
C881   H884    1.103   .     S
N885   C887    1.441   .     S
N885   H886    1.031   .     S
C887   H889    1.109   .     S
C887   H890    1.110   .     S
C887   H888    1.108   .     S
N891   H892    1.033   .     S
N891   C893    1.437   .     S
C893   H894    1.110   .     S
C893   H895    1.106   .     S
C893   H896    1.102   .     S
N897   C899    1.440   .     S
N897   H898    1.032   .     S
C899   H900    1.109   .     S
C899   H901    1.105   .     S
C899   H902    1.105   .     S
S903   O905    1.493   .     D
S903   O906    1.678   .     S
S903   O904    1.500   .     D
O906   H907    0.990   .     S
S908   O909    1.496   .     D
S908   O910    1.504   .     D
S908   O911    1.672   .     S
O911   H912    0.991   .     S
N913   C915    1.449   .     S
N913   H914    1.028   .     S
C915   H916    1.104   .     S
C915   H917    1.103   .     S
C915   H918    1.104   .     S
N919   C921    1.445   .     S
N919   H920    1.016   .     S
C921   H922    1.097   .     S
C921   H923    1.101   .     S
C921   H924    1.108   .     S
C925   O945    1.311   .     A
C925   C936    1.463   .     S
C925   O947    1.308   .     A
C926   O946    1.316   .     A
C926   C935    1.473   .     S
C926   O948    1.308   .     A
C927   O949    1.302   .     A
C927   C929    1.466   .     S
C927   O951    1.316   .     A
C928   O952    1.314   .     A
C928   C930    1.472   .     S
C928   O950    1.308   .     A
C930   C761    1.392   1_655 S
C930   S790    1.810   1_655 S
C931   C936    1.403   .     A
C931   N963    1.424   .     S
C931   C1437   1.408   1_545 S
C932   C935    1.407   .     A
C932   N969    1.426   .     S
C932   C1186   1.409   .     S
C933   N975    1.423   .     S
C933   C935    1.401   .     A
C933   C1183   1.408   .     S
C934   N981    1.427   .     S
C934   C936    1.405   .     A
C934   C1436   1.409   1_545 S
C937   S987    1.815   .     S
C937   N944    1.397   .     A
C938   N943    1.401   .     A
C938   S992    1.829   .     S
C938   C1696   1.445   .     S
C939   N943    1.376   .     A
C939   N997    1.429   .     S
C939   C1693   1.436   .     S
C940   N944    1.374   .     A
C940   N1003   1.423   .     S
Cu941  O948    1.957   .     S
Cu941  O945    1.969   .     S
Cu941  Cu942   2.726   .     S
Cu941  O952    2.031   .     S
Cu941  O949    2.035   .     S
Cu941  N943    2.048   .     S
Cu942  O950    2.035   .     S
Cu942  O947    1.957   .     S
Cu942  O946    1.969   .     S
Cu942  O951    2.031   .     S
Cu942  N944    2.048   .     S
S953   O954    1.503   .     D
S953   O955    1.500   .     D
S953   C761    1.799   1_655 S
S953   O788    1.683   1_655 S
O956   H957    0.988   .     S
S958   O959    1.487   .     D
S958   O960    1.501   .     D
O961   H962    0.991   .     S
O961   S790    1.680   1_655 S
N963   H964    1.031   .     S
N963   C965    1.439   .     S
C965   H966    1.106   .     S
C965   H967    1.110   .     S
C965   H968    1.103   .     S
N969   C971    1.441   .     S
N969   H970    1.031   .     S
C971   H973    1.109   .     S
C971   H974    1.110   .     S
C971   H972    1.108   .     S
N975   H976    1.033   .     S
N975   C977    1.437   .     S
C977   H978    1.110   .     S
C977   H979    1.106   .     S
C977   H980    1.102   .     S
N981   C983    1.440   .     S
N981   H982    1.032   .     S
C983   H984    1.109   .     S
C983   H985    1.105   .     S
C983   H986    1.105   .     S
S987   O989    1.493   .     D
S987   O990    1.678   .     S
S987   O988    1.500   .     D
O990   H991    0.990   .     S
S992   O993    1.496   .     D
S992   O994    1.504   .     D
S992   O995    1.672   .     S
O995   H996    0.991   .     S
N997   C999    1.449   .     S
N997   H998    1.028   .     S
C999   H1000   1.104   .     S
C999   H1001   1.103   .     S
C999   H1002   1.104   .     S
N1003  C1005   1.445   .     S
N1003  H1004   1.016   .     S
C1005  H1006   1.097   .     S
C1005  H1007   1.101   .     S
C1005  H1008   1.108   .     S
C1009  O1029   1.311   .     A
C1009  C1020   1.463   .     S
C1009  O1031   1.308   .     A
C1010  O1030   1.316   .     A
C1010  C1019   1.473   .     S
C1010  O1032   1.308   .     A
C1011  O1033   1.302   .     A
C1011  C1013   1.466   .     S
C1011  O1035   1.316   .     A
C1012  O1036   1.314   .     A
C1012  C1014   1.472   .     S
C1012  O1034   1.308   .     A
C1013  C1182   1.392   1_455 S
C1013  S1205   1.799   1_455 S
C1014  C1097   1.392   .     S
C1014  S1126   1.810   .     S
C1015  C1020   1.403   .     A
C1015  N1047   1.424   .     S
C1016  C1019   1.407   .     A
C1016  N1053   1.426   .     S
C1016  C1270   1.409   .     S
C1017  N1059   1.423   .     S
C1017  C1019   1.401   .     A
C1017  C1267   1.408   .     S
C1018  N1065   1.427   .     S
C1018  C1020   1.405   .     A
C1021  S1071   1.815   .     S
C1021  N1028   1.397   .     A
C1022  N1027   1.401   .     A
C1022  S1076   1.829   .     S
C1022  C1780   1.445   .     S
C1023  N1027   1.376   .     A
C1023  N1081   1.429   .     S
C1023  C1777   1.436   .     S
C1024  N1028   1.374   .     A
C1024  N1087   1.423   .     S
Cu1025 O1032   1.957   .     S
Cu1025 O1029   1.969   .     S
Cu1025 Cu1026  2.726   .     S
Cu1025 O1036   2.031   .     S
Cu1025 O1033   2.035   .     S
Cu1025 N1027   2.048   .     S
Cu1026 O1034   2.035   .     S
Cu1026 O1031   1.957   .     S
Cu1026 O1030   1.969   .     S
Cu1026 O1035   2.031   .     S
Cu1026 N1028   2.048   .     S
S1037  O1038   1.503   .     D
S1037  O1039   1.500   .     D
S1037  C1097   1.799   .     S
S1037  O1124   1.683   .     S
O1040  H1041   0.988   .     S
O1040  S1205   1.683   1_455 S
S1042  O1043   1.487   .     D
S1042  O1044   1.501   .     D
S1042  C1182   1.810   1_455 S
S1042  O1213   1.680   1_455 S
O1045  H1046   0.991   .     S
O1045  S1126   1.680   .     S
N1047  H1048   1.031   .     S
N1047  C1049   1.439   .     S
C1049  H1050   1.106   .     S
C1049  H1051   1.110   .     S
C1049  H1052   1.103   .     S
N1053  C1055   1.441   .     S
N1053  H1054   1.031   .     S
C1055  H1057   1.109   .     S
C1055  H1058   1.110   .     S
C1055  H1056   1.108   .     S
N1059  H1060   1.033   .     S
N1059  C1061   1.437   .     S
C1061  H1062   1.110   .     S
C1061  H1063   1.106   .     S
C1061  H1064   1.102   .     S
N1065  C1067   1.440   .     S
N1065  H1066   1.032   .     S
C1067  H1068   1.109   .     S
C1067  H1069   1.105   .     S
C1067  H1070   1.105   .     S
S1071  O1073   1.493   .     D
S1071  O1074   1.678   .     S
S1071  O1072   1.500   .     D
O1074  H1075   0.990   .     S
S1076  O1077   1.496   .     D
S1076  O1078   1.504   .     D
S1076  O1079   1.672   .     S
O1079  H1080   0.991   .     S
N1081  C1083   1.449   .     S
N1081  H1082   1.028   .     S
C1083  H1084   1.104   .     S
C1083  H1085   1.103   .     S
C1083  H1086   1.104   .     S
N1087  C1089   1.445   .     S
N1087  H1088   1.016   .     S
C1089  H1090   1.097   .     S
C1089  H1091   1.101   .     S
C1089  H1092   1.108   .     S
C1093  O1113   1.311   .     A
C1093  C1104   1.463   .     S
C1093  O1115   1.308   .     A
C1094  O1114   1.316   .     A
C1094  C1103   1.473   .     S
C1094  O1116   1.308   .     A
C1095  O1117   1.302   .     A
C1095  C1097   1.466   .     S
C1095  O1119   1.316   .     A
C1096  O1120   1.314   .     A
C1096  C1098   1.472   .     S
C1096  O1118   1.308   .     A
C1098  C1181   1.392   .     S
C1098  S1210   1.810   .     S
C1099  C1104   1.403   .     A
C1099  N1131   1.424   .     S
C1100  C1103   1.407   .     A
C1100  N1137   1.426   .     S
C1100  C1354   1.409   .     S
C1101  N1143   1.423   .     S
C1101  C1103   1.401   .     A
C1101  C1351   1.408   .     S
C1102  N1149   1.427   .     S
C1102  C1104   1.405   .     A
C1105  S1155   1.815   .     S
C1105  N1112   1.397   .     A
C1106  N1111   1.401   .     A
C1106  S1160   1.829   .     S
C1106  C1864   1.445   .     S
C1107  N1111   1.376   .     A
C1107  N1165   1.429   .     S
C1107  C1861   1.436   .     S
C1108  N1112   1.374   .     A
C1108  N1171   1.423   .     S
Cu1109 O1116   1.957   .     S
Cu1109 O1113   1.969   .     S
Cu1109 Cu1110  2.726   .     S
Cu1109 O1120   2.031   .     S
Cu1109 O1117   2.035   .     S
Cu1109 N1111   2.048   .     S
Cu1110 O1118   2.035   .     S
Cu1110 O1115   1.957   .     S
Cu1110 O1114   1.969   .     S
Cu1110 O1119   2.031   .     S
Cu1110 N1112   2.048   .     S
S1121  O1122   1.503   .     D
S1121  O1123   1.500   .     D
S1121  C1181   1.799   .     S
S1121  O1208   1.683   .     S
O1124  H1125   0.988   .     S
S1126  O1127   1.487   .     D
S1126  O1128   1.501   .     D
O1129  H1130   0.991   .     S
O1129  S1210   1.680   .     S
N1131  H1132   1.031   .     S
N1131  C1133   1.439   .     S
C1133  H1134   1.106   .     S
C1133  H1135   1.110   .     S
C1133  H1136   1.103   .     S
N1137  C1139   1.441   .     S
N1137  H1138   1.031   .     S
C1139  H1141   1.109   .     S
C1139  H1142   1.110   .     S
C1139  H1140   1.108   .     S
N1143  H1144   1.033   .     S
N1143  C1145   1.437   .     S
C1145  H1146   1.110   .     S
C1145  H1147   1.106   .     S
C1145  H1148   1.102   .     S
N1149  C1151   1.440   .     S
N1149  H1150   1.032   .     S
C1151  H1152   1.109   .     S
C1151  H1153   1.105   .     S
C1151  H1154   1.105   .     S
S1155  O1157   1.493   .     D
S1155  O1158   1.678   .     S
S1155  O1156   1.500   .     D
O1158  H1159   0.990   .     S
S1160  O1161   1.496   .     D
S1160  O1162   1.504   .     D
S1160  O1163   1.672   .     S
O1163  H1164   0.991   .     S
N1165  C1167   1.449   .     S
N1165  H1166   1.028   .     S
C1167  H1168   1.104   .     S
C1167  H1169   1.103   .     S
C1167  H1170   1.104   .     S
N1171  C1173   1.445   .     S
N1171  H1172   1.016   .     S
C1173  H1174   1.097   .     S
C1173  H1175   1.101   .     S
C1173  H1176   1.108   .     S
C1177  O1197   1.311   .     A
C1177  C1188   1.463   .     S
C1177  O1199   1.308   .     A
C1178  O1198   1.316   .     A
C1178  C1187   1.473   .     S
C1178  O1200   1.308   .     A
C1179  O1201   1.302   .     A
C1179  C1181   1.466   .     S
C1179  O1203   1.316   .     A
C1180  O1204   1.314   .     A
C1180  C1182   1.472   .     S
C1180  O1202   1.308   .     A
C1182  C1013   1.392   1_655 S
C1182  S1042   1.810   1_655 S
C1183  C1188   1.403   .     A
C1183  N1215   1.424   .     S
C1184  C1187   1.407   .     A
C1184  N1221   1.426   .     S
C1184  C1438   1.409   .     S
C1185  N1227   1.423   .     S
C1185  C1187   1.401   .     A
C1185  C1435   1.408   .     S
C1186  N1233   1.427   .     S
C1186  C1188   1.405   .     A
C1189  S1239   1.815   .     S
C1189  N1196   1.397   .     A
C1190  N1195   1.401   .     A
C1190  S1244   1.829   .     S
C1190  C1948   1.445   .     S
C1191  N1195   1.376   .     A
C1191  N1249   1.429   .     S
C1191  C1945   1.436   .     S
C1192  N1196   1.374   .     A
C1192  N1255   1.423   .     S
Cu1193 O1200   1.957   .     S
Cu1193 O1197   1.969   .     S
Cu1193 Cu1194  2.726   .     S
Cu1193 O1204   2.031   .     S
Cu1193 O1201   2.035   .     S
Cu1193 N1195   2.048   .     S
Cu1194 O1202   2.035   .     S
Cu1194 O1199   1.957   .     S
Cu1194 O1198   1.969   .     S
Cu1194 O1203   2.031   .     S
Cu1194 N1196   2.048   .     S
S1205  O1206   1.503   .     D
S1205  O1207   1.500   .     D
S1205  C1013   1.799   1_655 S
S1205  O1040   1.683   1_655 S
O1208  H1209   0.988   .     S
S1210  O1211   1.487   .     D
S1210  O1212   1.501   .     D
O1213  H1214   0.991   .     S
O1213  S1042   1.680   1_655 S
N1215  H1216   1.031   .     S
N1215  C1217   1.439   .     S
C1217  H1218   1.106   .     S
C1217  H1219   1.110   .     S
C1217  H1220   1.103   .     S
N1221  C1223   1.441   .     S
N1221  H1222   1.031   .     S
C1223  H1225   1.109   .     S
C1223  H1226   1.110   .     S
C1223  H1224   1.108   .     S
N1227  H1228   1.033   .     S
N1227  C1229   1.437   .     S
C1229  H1230   1.110   .     S
C1229  H1231   1.106   .     S
C1229  H1232   1.102   .     S
N1233  C1235   1.440   .     S
N1233  H1234   1.032   .     S
C1235  H1236   1.109   .     S
C1235  H1237   1.105   .     S
C1235  H1238   1.105   .     S
S1239  O1241   1.493   .     D
S1239  O1242   1.678   .     S
S1239  O1240   1.500   .     D
O1242  H1243   0.990   .     S
S1244  O1245   1.496   .     D
S1244  O1246   1.504   .     D
S1244  O1247   1.672   .     S
O1247  H1248   0.991   .     S
N1249  C1251   1.449   .     S
N1249  H1250   1.028   .     S
C1251  H1252   1.104   .     S
C1251  H1253   1.103   .     S
C1251  H1254   1.104   .     S
N1255  C1257   1.445   .     S
N1255  H1256   1.016   .     S
C1257  H1258   1.097   .     S
C1257  H1259   1.101   .     S
C1257  H1260   1.108   .     S
C1261  O1281   1.311   .     A
C1261  C1272   1.463   .     S
C1261  O1283   1.308   .     A
C1262  O1282   1.316   .     A
C1262  C1271   1.473   .     S
C1262  O1284   1.308   .     A
C1263  O1285   1.302   .     A
C1263  C1265   1.466   .     S
C1263  O1287   1.316   .     A
C1264  O1288   1.314   .     A
C1264  C1266   1.472   .     S
C1264  O1286   1.308   .     A
C1265  C1434   1.392   1_455 S
C1265  S1457   1.799   1_455 S
C1266  C1349   1.392   .     S
C1266  S1378   1.810   .     S
C1267  C1272   1.403   .     A
C1267  N1299   1.424   .     S
C1268  C1271   1.407   .     A
C1268  N1305   1.426   .     S
C1268  C766    1.409   1_565 S
C1269  N1311   1.423   .     S
C1269  C1271   1.401   .     A
C1269  C763    1.408   1_565 S
C1270  N1317   1.427   .     S
C1270  C1272   1.405   .     A
C1273  S1323   1.815   .     S
C1273  N1280   1.397   .     A
C1274  N1279   1.401   .     A
C1274  S1328   1.829   .     S
C1274  C2032   1.445   .     S
C1275  N1279   1.376   .     A
C1275  N1333   1.429   .     S
C1275  C2029   1.436   .     S
C1276  N1280   1.374   .     A
C1276  N1339   1.423   .     S
Cu1277 O1284   1.957   .     S
Cu1277 O1281   1.969   .     S
Cu1277 Cu1278  2.726   .     S
Cu1277 O1288   2.031   .     S
Cu1277 O1285   2.035   .     S
Cu1277 N1279   2.048   .     S
Cu1278 O1286   2.035   .     S
Cu1278 O1283   1.957   .     S
Cu1278 O1282   1.969   .     S
Cu1278 O1287   2.031   .     S
Cu1278 N1280   2.048   .     S
S1289  O1290   1.503   .     D
S1289  O1291   1.500   .     D
S1289  C1349   1.799   .     S
S1289  O1376   1.683   .     S
O1292  H1293   0.988   .     S
O1292  S1457   1.683   1_455 S
S1294  O1295   1.487   .     D
S1294  O1296   1.501   .     D
S1294  C1434   1.810   1_455 S
S1294  O1465   1.680   1_455 S
O1297  H1298   0.991   .     S
O1297  S1378   1.680   .     S
N1299  H1300   1.031   .     S
N1299  C1301   1.439   .     S
C1301  H1302   1.106   .     S
C1301  H1303   1.110   .     S
C1301  H1304   1.103   .     S
N1305  C1307   1.441   .     S
N1305  H1306   1.031   .     S
C1307  H1309   1.109   .     S
C1307  H1310   1.110   .     S
C1307  H1308   1.108   .     S
N1311  H1312   1.033   .     S
N1311  C1313   1.437   .     S
C1313  H1314   1.110   .     S
C1313  H1315   1.106   .     S
C1313  H1316   1.102   .     S
N1317  C1319   1.440   .     S
N1317  H1318   1.032   .     S
C1319  H1320   1.109   .     S
C1319  H1321   1.105   .     S
C1319  H1322   1.105   .     S
S1323  O1325   1.493   .     D
S1323  O1326   1.678   .     S
S1323  O1324   1.500   .     D
O1326  H1327   0.990   .     S
S1328  O1329   1.496   .     D
S1328  O1330   1.504   .     D
S1328  O1331   1.672   .     S
O1331  H1332   0.991   .     S
N1333  C1335   1.449   .     S
N1333  H1334   1.028   .     S
C1335  H1336   1.104   .     S
C1335  H1337   1.103   .     S
C1335  H1338   1.104   .     S
N1339  C1341   1.445   .     S
N1339  H1340   1.016   .     S
C1341  H1342   1.097   .     S
C1341  H1343   1.101   .     S
C1341  H1344   1.108   .     S
C1345  O1365   1.311   .     A
C1345  C1356   1.463   .     S
C1345  O1367   1.308   .     A
C1346  O1366   1.316   .     A
C1346  C1355   1.473   .     S
C1346  O1368   1.308   .     A
C1347  O1369   1.302   .     A
C1347  C1349   1.466   .     S
C1347  O1371   1.316   .     A
C1348  O1372   1.314   .     A
C1348  C1350   1.472   .     S
C1348  O1370   1.308   .     A
C1350  C1433   1.392   .     S
C1350  S1462   1.810   .     S
C1351  C1356   1.403   .     A
C1351  N1383   1.424   .     S
C1352  C1355   1.407   .     A
C1352  N1389   1.426   .     S
C1352  C850    1.409   1_565 S
C1353  N1395   1.423   .     S
C1353  C1355   1.401   .     A
C1353  C847    1.408   1_565 S
C1354  N1401   1.427   .     S
C1354  C1356   1.405   .     A
C1357  S1407   1.815   .     S
C1357  N1364   1.397   .     A
C1358  N1363   1.401   .     A
C1358  S1412   1.829   .     S
C1358  C2116   1.445   .     S
C1359  N1363   1.376   .     A
C1359  N1417   1.429   .     S
C1359  C2113   1.436   .     S
C1360  N1364   1.374   .     A
C1360  N1423   1.423   .     S
Cu1361 O1368   1.957   .     S
Cu1361 O1365   1.969   .     S
Cu1361 Cu1362  2.726   .     S
Cu1361 O1372   2.031   .     S
Cu1361 O1369   2.035   .     S
Cu1361 N1363   2.048   .     S
Cu1362 O1370   2.035   .     S
Cu1362 O1367   1.957   .     S
Cu1362 O1366   1.969   .     S
Cu1362 O1371   2.031   .     S
Cu1362 N1364   2.048   .     S
S1373  O1374   1.503   .     D
S1373  O1375   1.500   .     D
S1373  C1433   1.799   .     S
S1373  O1460   1.683   .     S
O1376  H1377   0.988   .     S
S1378  O1379   1.487   .     D
S1378  O1380   1.501   .     D
O1381  H1382   0.991   .     S
O1381  S1462   1.680   .     S
N1383  H1384   1.031   .     S
N1383  C1385   1.439   .     S
C1385  H1386   1.106   .     S
C1385  H1387   1.110   .     S
C1385  H1388   1.103   .     S
N1389  C1391   1.441   .     S
N1389  H1390   1.031   .     S
C1391  H1393   1.109   .     S
C1391  H1394   1.110   .     S
C1391  H1392   1.108   .     S
N1395  H1396   1.033   .     S
N1395  C1397   1.437   .     S
C1397  H1398   1.110   .     S
C1397  H1399   1.106   .     S
C1397  H1400   1.102   .     S
N1401  C1403   1.440   .     S
N1401  H1402   1.032   .     S
C1403  H1404   1.109   .     S
C1403  H1405   1.105   .     S
C1403  H1406   1.105   .     S
S1407  O1409   1.493   .     D
S1407  O1410   1.678   .     S
S1407  O1408   1.500   .     D
O1410  H1411   0.990   .     S
S1412  O1413   1.496   .     D
S1412  O1414   1.504   .     D
S1412  O1415   1.672   .     S
O1415  H1416   0.991   .     S
N1417  C1419   1.449   .     S
N1417  H1418   1.028   .     S
C1419  H1420   1.104   .     S
C1419  H1421   1.103   .     S
C1419  H1422   1.104   .     S
N1423  C1425   1.445   .     S
N1423  H1424   1.016   .     S
C1425  H1426   1.097   .     S
C1425  H1427   1.101   .     S
C1425  H1428   1.108   .     S
C1429  O1449   1.311   .     A
C1429  C1440   1.463   .     S
C1429  O1451   1.308   .     A
C1430  O1450   1.316   .     A
C1430  C1439   1.473   .     S
C1430  O1452   1.308   .     A
C1431  O1453   1.302   .     A
C1431  C1433   1.466   .     S
C1431  O1455   1.316   .     A
C1432  O1456   1.314   .     A
C1432  C1434   1.472   .     S
C1432  O1454   1.308   .     A
C1434  C1265   1.392   1_655 S
C1434  S1294   1.810   1_655 S
C1435  C1440   1.403   .     A
C1435  N1467   1.424   .     S
C1436  C1439   1.407   .     A
C1436  N1473   1.426   .     S
C1436  C934    1.409   1_565 S
C1437  N1479   1.423   .     S
C1437  C1439   1.401   .     A
C1437  C931    1.408   1_565 S
C1438  N1485   1.427   .     S
C1438  C1440   1.405   .     A
C1441  S1491   1.815   .     S
C1441  N1448   1.397   .     A
C1442  N1447   1.401   .     A
C1442  S1496   1.829   .     S
C1442  C2200   1.445   .     S
C1443  N1447   1.376   .     A
C1443  N1501   1.429   .     S
C1443  C2197   1.436   .     S
C1444  N1448   1.374   .     A
C1444  N1507   1.423   .     S
Cu1445 O1452   1.957   .     S
Cu1445 O1449   1.969   .     S
Cu1445 Cu1446  2.726   .     S
Cu1445 O1456   2.031   .     S
Cu1445 O1453   2.035   .     S
Cu1445 N1447   2.048   .     S
Cu1446 O1454   2.035   .     S
Cu1446 O1451   1.957   .     S
Cu1446 O1450   1.969   .     S
Cu1446 O1455   2.031   .     S
Cu1446 N1448   2.048   .     S
S1457  O1458   1.503   .     D
S1457  O1459   1.500   .     D
S1457  C1265   1.799   1_655 S
S1457  O1292   1.683   1_655 S
O1460  H1461   0.988   .     S
S1462  O1463   1.487   .     D
S1462  O1464   1.501   .     D
O1465  H1466   0.991   .     S
O1465  S1294   1.680   1_655 S
N1467  H1468   1.031   .     S
N1467  C1469   1.439   .     S
C1469  H1470   1.106   .     S
C1469  H1471   1.110   .     S
C1469  H1472   1.103   .     S
N1473  C1475   1.441   .     S
N1473  H1474   1.031   .     S
C1475  H1477   1.109   .     S
C1475  H1478   1.110   .     S
C1475  H1476   1.108   .     S
N1479  H1480   1.033   .     S
N1479  C1481   1.437   .     S
C1481  H1482   1.110   .     S
C1481  H1483   1.106   .     S
C1481  H1484   1.102   .     S
N1485  C1487   1.440   .     S
N1485  H1486   1.032   .     S
C1487  H1488   1.109   .     S
C1487  H1489   1.105   .     S
C1487  H1490   1.105   .     S
S1491  O1493   1.493   .     D
S1491  O1494   1.678   .     S
S1491  O1492   1.500   .     D
O1494  H1495   0.990   .     S
S1496  O1497   1.496   .     D
S1496  O1498   1.504   .     D
S1496  O1499   1.672   .     S
O1499  H1500   0.991   .     S
N1501  C1503   1.449   .     S
N1501  H1502   1.028   .     S
C1503  H1504   1.104   .     S
C1503  H1505   1.103   .     S
C1503  H1506   1.104   .     S
N1507  C1509   1.445   .     S
N1507  H1508   1.016   .     S
C1509  H1510   1.097   .     S
C1509  H1511   1.101   .     S
C1509  H1512   1.108   .     S
C1513  O1533   1.311   .     A
C1513  C1524   1.463   .     S
C1513  O1535   1.308   .     A
C1514  O1534   1.316   .     A
C1514  C1523   1.473   .     S
C1514  O1536   1.308   .     A
C1515  O1537   1.302   .     A
C1515  C1517   1.466   .     S
C1515  O1539   1.316   .     A
C1516  O1540   1.314   .     A
C1516  C1518   1.472   .     S
C1516  O1538   1.308   .     A
C1517  C1686   1.392   1_455 S
C1517  S1709   1.799   1_455 S
C1518  C1601   1.392   .     S
C1518  S1630   1.810   .     S
C1519  C1524   1.403   .     A
C1519  N1551   1.424   .     S
C1519  C2025   1.408   1_545 S
C1520  C1523   1.407   .     A
C1520  N1557   1.426   .     S
C1520  C1774   1.409   .     S
C1521  N1563   1.423   .     S
C1521  C1523   1.401   .     A
C1521  C1771   1.408   .     S
C1522  N1569   1.427   .     S
C1522  C1524   1.405   .     A
C1522  C2024   1.409   1_545 S
C1525  S1575   1.815   .     S
C1525  N1532   1.397   .     A
C1526  N1531   1.401   .     A
C1526  S1580   1.829   .     S
C1526  C16     1.445   1_556 S
C1527  N1531   1.376   .     A
C1527  N1585   1.429   .     S
C1527  C13     1.436   1_556 S
C1528  N1532   1.374   .     A
C1528  N1591   1.423   .     S
Cu1529 O1536   1.957   .     S
Cu1529 O1533   1.969   .     S
Cu1529 Cu1530  2.726   .     S
Cu1529 O1540   2.031   .     S
Cu1529 O1537   2.035   .     S
Cu1529 N1531   2.048   .     S
Cu1530 O1538   2.035   .     S
Cu1530 O1535   1.957   .     S
Cu1530 O1534   1.969   .     S
Cu1530 O1539   2.031   .     S
Cu1530 N1532   2.048   .     S
S1541  O1542   1.503   .     D
S1541  O1543   1.500   .     D
S1541  C1601   1.799   .     S
S1541  O1628   1.683   .     S
O1544  H1545   0.988   .     S
O1544  S1709   1.683   1_455 S
S1546  O1547   1.487   .     D
S1546  O1548   1.501   .     D
S1546  C1686   1.810   1_455 S
S1546  O1717   1.680   1_455 S
O1549  H1550   0.991   .     S
O1549  S1630   1.680   .     S
N1551  H1552   1.031   .     S
N1551  C1553   1.439   .     S
C1553  H1554   1.106   .     S
C1553  H1555   1.110   .     S
C1553  H1556   1.103   .     S
N1557  C1559   1.441   .     S
N1557  H1558   1.031   .     S
C1559  H1561   1.109   .     S
C1559  H1562   1.110   .     S
C1559  H1560   1.108   .     S
N1563  H1564   1.033   .     S
N1563  C1565   1.437   .     S
C1565  H1566   1.110   .     S
C1565  H1567   1.106   .     S
C1565  H1568   1.102   .     S
N1569  C1571   1.440   .     S
N1569  H1570   1.032   .     S
C1571  H1572   1.109   .     S
C1571  H1573   1.105   .     S
C1571  H1574   1.105   .     S
S1575  O1577   1.493   .     D
S1575  O1578   1.678   .     S
S1575  O1576   1.500   .     D
O1578  H1579   0.990   .     S
S1580  O1581   1.496   .     D
S1580  O1582   1.504   .     D
S1580  O1583   1.672   .     S
O1583  H1584   0.991   .     S
N1585  C1587   1.449   .     S
N1585  H1586   1.028   .     S
C1587  H1588   1.104   .     S
C1587  H1589   1.103   .     S
C1587  H1590   1.104   .     S
N1591  C1593   1.445   .     S
N1591  H1592   1.016   .     S
C1593  H1594   1.097   .     S
C1593  H1595   1.101   .     S
C1593  H1596   1.108   .     S
C1597  O1617   1.311   .     A
C1597  C1608   1.463   .     S
C1597  O1619   1.308   .     A
C1598  O1618   1.316   .     A
C1598  C1607   1.473   .     S
C1598  O1620   1.308   .     A
C1599  O1621   1.302   .     A
C1599  C1601   1.466   .     S
C1599  O1623   1.316   .     A
C1600  O1624   1.314   .     A
C1600  C1602   1.472   .     S
C1600  O1622   1.308   .     A
C1602  C1685   1.392   .     S
C1602  S1714   1.810   .     S
C1603  C1608   1.403   .     A
C1603  N1635   1.424   .     S
C1603  C2109   1.408   1_545 S
C1604  C1607   1.407   .     A
C1604  N1641   1.426   .     S
C1604  C1858   1.409   .     S
C1605  N1647   1.423   .     S
C1605  C1607   1.401   .     A
C1605  C1855   1.408   .     S
C1606  N1653   1.427   .     S
C1606  C1608   1.405   .     A
C1606  C2108   1.409   1_545 S
C1609  S1659   1.815   .     S
C1609  N1616   1.397   .     A
C1610  N1615   1.401   .     A
C1610  S1664   1.829   .     S
C1610  C100    1.445   1_556 S
C1611  N1615   1.376   .     A
C1611  N1669   1.429   .     S
C1611  C97     1.436   1_556 S
C1612  N1616   1.374   .     A
C1612  N1675   1.423   .     S
Cu1613 O1620   1.957   .     S
Cu1613 O1617   1.969   .     S
Cu1613 Cu1614  2.726   .     S
Cu1613 O1624   2.031   .     S
Cu1613 O1621   2.035   .     S
Cu1613 N1615   2.048   .     S
Cu1614 O1622   2.035   .     S
Cu1614 O1619   1.957   .     S
Cu1614 O1618   1.969   .     S
Cu1614 O1623   2.031   .     S
Cu1614 N1616   2.048   .     S
S1625  O1626   1.503   .     D
S1625  O1627   1.500   .     D
S1625  C1685   1.799   .     S
S1625  O1712   1.683   .     S
O1628  H1629   0.988   .     S
S1630  O1631   1.487   .     D
S1630  O1632   1.501   .     D
O1633  H1634   0.991   .     S
O1633  S1714   1.680   .     S
N1635  H1636   1.031   .     S
N1635  C1637   1.439   .     S
C1637  H1638   1.106   .     S
C1637  H1639   1.110   .     S
C1637  H1640   1.103   .     S
N1641  C1643   1.441   .     S
N1641  H1642   1.031   .     S
C1643  H1645   1.109   .     S
C1643  H1646   1.110   .     S
C1643  H1644   1.108   .     S
N1647  H1648   1.033   .     S
N1647  C1649   1.437   .     S
C1649  H1650   1.110   .     S
C1649  H1651   1.106   .     S
C1649  H1652   1.102   .     S
N1653  C1655   1.440   .     S
N1653  H1654   1.032   .     S
C1655  H1656   1.109   .     S
C1655  H1657   1.105   .     S
C1655  H1658   1.105   .     S
S1659  O1661   1.493   .     D
S1659  O1662   1.678   .     S
S1659  O1660   1.500   .     D
O1662  H1663   0.990   .     S
S1664  O1665   1.496   .     D
S1664  O1666   1.504   .     D
S1664  O1667   1.672   .     S
O1667  H1668   0.991   .     S
N1669  C1671   1.449   .     S
N1669  H1670   1.028   .     S
C1671  H1672   1.104   .     S
C1671  H1673   1.103   .     S
C1671  H1674   1.104   .     S
N1675  C1677   1.445   .     S
N1675  H1676   1.016   .     S
C1677  H1678   1.097   .     S
C1677  H1679   1.101   .     S
C1677  H1680   1.108   .     S
C1681  O1701   1.311   .     A
C1681  C1692   1.463   .     S
C1681  O1703   1.308   .     A
C1682  O1702   1.316   .     A
C1682  C1691   1.473   .     S
C1682  O1704   1.308   .     A
C1683  O1705   1.302   .     A
C1683  C1685   1.466   .     S
C1683  O1707   1.316   .     A
C1684  O1708   1.314   .     A
C1684  C1686   1.472   .     S
C1684  O1706   1.308   .     A
C1686  C1517   1.392   1_655 S
C1686  S1546   1.810   1_655 S
C1687  C1692   1.403   .     A
C1687  N1719   1.424   .     S
C1687  C2193   1.408   1_545 S
C1688  C1691   1.407   .     A
C1688  N1725   1.426   .     S
C1688  C1942   1.409   .     S
C1689  N1731   1.423   .     S
C1689  C1691   1.401   .     A
C1689  C1939   1.408   .     S
C1690  N1737   1.427   .     S
C1690  C1692   1.405   .     A
C1690  C2192   1.409   1_545 S
C1693  S1743   1.815   .     S
C1693  N1700   1.397   .     A
C1694  N1699   1.401   .     A
C1694  S1748   1.829   .     S
C1694  C184    1.445   1_556 S
C1695  N1699   1.376   .     A
C1695  N1753   1.429   .     S
C1695  C181    1.436   1_556 S
C1696  N1700   1.374   .     A
C1696  N1759   1.423   .     S
Cu1697 O1704   1.957   .     S
Cu1697 O1701   1.969   .     S
Cu1697 Cu1698  2.726   .     S
Cu1697 O1708   2.031   .     S
Cu1697 O1705   2.035   .     S
Cu1697 N1699   2.048   .     S
Cu1698 O1706   2.035   .     S
Cu1698 O1703   1.957   .     S
Cu1698 O1702   1.969   .     S
Cu1698 O1707   2.031   .     S
Cu1698 N1700   2.048   .     S
S1709  O1710   1.503   .     D
S1709  O1711   1.500   .     D
S1709  C1517   1.799   1_655 S
S1709  O1544   1.683   1_655 S
O1712  H1713   0.988   .     S
S1714  O1715   1.487   .     D
S1714  O1716   1.501   .     D
O1717  H1718   0.991   .     S
O1717  S1546   1.680   1_655 S
N1719  H1720   1.031   .     S
N1719  C1721   1.439   .     S
C1721  H1722   1.106   .     S
C1721  H1723   1.110   .     S
C1721  H1724   1.103   .     S
N1725  C1727   1.441   .     S
N1725  H1726   1.031   .     S
C1727  H1729   1.109   .     S
C1727  H1730   1.110   .     S
C1727  H1728   1.108   .     S
N1731  H1732   1.033   .     S
N1731  C1733   1.437   .     S
C1733  H1734   1.110   .     S
C1733  H1735   1.106   .     S
C1733  H1736   1.102   .     S
N1737  C1739   1.440   .     S
N1737  H1738   1.032   .     S
C1739  H1740   1.109   .     S
C1739  H1741   1.105   .     S
C1739  H1742   1.105   .     S
S1743  O1745   1.493   .     D
S1743  O1746   1.678   .     S
S1743  O1744   1.500   .     D
O1746  H1747   0.990   .     S
S1748  O1749   1.496   .     D
S1748  O1750   1.504   .     D
S1748  O1751   1.672   .     S
O1751  H1752   0.991   .     S
N1753  C1755   1.449   .     S
N1753  H1754   1.028   .     S
C1755  H1756   1.104   .     S
C1755  H1757   1.103   .     S
C1755  H1758   1.104   .     S
N1759  C1761   1.445   .     S
N1759  H1760   1.016   .     S
C1761  H1762   1.097   .     S
C1761  H1763   1.101   .     S
C1761  H1764   1.108   .     S
C1765  O1785   1.311   .     A
C1765  C1776   1.463   .     S
C1765  O1787   1.308   .     A
C1766  O1786   1.316   .     A
C1766  C1775   1.473   .     S
C1766  O1788   1.308   .     A
C1767  O1789   1.302   .     A
C1767  C1769   1.466   .     S
C1767  O1791   1.316   .     A
C1768  O1792   1.314   .     A
C1768  C1770   1.472   .     S
C1768  O1790   1.308   .     A
C1769  C1938   1.392   1_455 S
C1769  S1961   1.799   1_455 S
C1770  C1853   1.392   .     S
C1770  S1882   1.810   .     S
C1771  C1776   1.403   .     A
C1771  N1803   1.424   .     S
C1772  C1775   1.407   .     A
C1772  N1809   1.426   .     S
C1772  C2026   1.409   .     S
C1773  N1815   1.423   .     S
C1773  C1775   1.401   .     A
C1773  C2023   1.408   .     S
C1774  N1821   1.427   .     S
C1774  C1776   1.405   .     A
C1777  S1827   1.815   .     S
C1777  N1784   1.397   .     A
C1778  N1783   1.401   .     A
C1778  S1832   1.829   .     S
C1778  C268    1.445   1_556 S
C1779  N1783   1.376   .     A
C1779  N1837   1.429   .     S
C1779  C265    1.436   1_556 S
C1780  N1784   1.374   .     A
C1780  N1843   1.423   .     S
Cu1781 O1788   1.957   .     S
Cu1781 O1785   1.969   .     S
Cu1781 Cu1782  2.726   .     S
Cu1781 O1792   2.031   .     S
Cu1781 O1789   2.035   .     S
Cu1781 N1783   2.048   .     S
Cu1782 O1790   2.035   .     S
Cu1782 O1787   1.957   .     S
Cu1782 O1786   1.969   .     S
Cu1782 O1791   2.031   .     S
Cu1782 N1784   2.048   .     S
S1793  O1794   1.503   .     D
S1793  O1795   1.500   .     D
S1793  C1853   1.799   .     S
S1793  O1880   1.683   .     S
O1796  H1797   0.988   .     S
O1796  S1961   1.683   1_455 S
S1798  O1799   1.487   .     D
S1798  O1800   1.501   .     D
S1798  C1938   1.810   1_455 S
S1798  O1969   1.680   1_455 S
O1801  H1802   0.991   .     S
O1801  S1882   1.680   .     S
N1803  H1804   1.031   .     S
N1803  C1805   1.439   .     S
C1805  H1806   1.106   .     S
C1805  H1807   1.110   .     S
C1805  H1808   1.103   .     S
N1809  C1811   1.441   .     S
N1809  H1810   1.031   .     S
C1811  H1813   1.109   .     S
C1811  H1814   1.110   .     S
C1811  H1812   1.108   .     S
N1815  H1816   1.033   .     S
N1815  C1817   1.437   .     S
C1817  H1818   1.110   .     S
C1817  H1819   1.106   .     S
C1817  H1820   1.102   .     S
N1821  C1823   1.440   .     S
N1821  H1822   1.032   .     S
C1823  H1824   1.109   .     S
C1823  H1825   1.105   .     S
C1823  H1826   1.105   .     S
S1827  O1829   1.493   .     D
S1827  O1830   1.678   .     S
S1827  O1828   1.500   .     D
O1830  H1831   0.990   .     S
S1832  O1833   1.496   .     D
S1832  O1834   1.504   .     D
S1832  O1835   1.672   .     S
O1835  H1836   0.991   .     S
N1837  C1839   1.449   .     S
N1837  H1838   1.028   .     S
C1839  H1840   1.104   .     S
C1839  H1841   1.103   .     S
C1839  H1842   1.104   .     S
N1843  C1845   1.445   .     S
N1843  H1844   1.016   .     S
C1845  H1846   1.097   .     S
C1845  H1847   1.101   .     S
C1845  H1848   1.108   .     S
C1849  O1869   1.311   .     A
C1849  C1860   1.463   .     S
C1849  O1871   1.308   .     A
C1850  O1870   1.316   .     A
C1850  C1859   1.473   .     S
C1850  O1872   1.308   .     A
C1851  O1873   1.302   .     A
C1851  C1853   1.466   .     S
C1851  O1875   1.316   .     A
C1852  O1876   1.314   .     A
C1852  C1854   1.472   .     S
C1852  O1874   1.308   .     A
C1854  C1937   1.392   .     S
C1854  S1966   1.810   .     S
C1855  C1860   1.403   .     A
C1855  N1887   1.424   .     S
C1856  C1859   1.407   .     A
C1856  N1893   1.426   .     S
C1856  C2110   1.409   .     S
C1857  N1899   1.423   .     S
C1857  C1859   1.401   .     A
C1857  C2107   1.408   .     S
C1858  N1905   1.427   .     S
C1858  C1860   1.405   .     A
C1861  S1911   1.815   .     S
C1861  N1868   1.397   .     A
C1862  N1867   1.401   .     A
C1862  S1916   1.829   .     S
C1862  C352    1.445   1_556 S
C1863  N1867   1.376   .     A
C1863  N1921   1.429   .     S
C1863  C349    1.436   1_556 S
C1864  N1868   1.374   .     A
C1864  N1927   1.423   .     S
Cu1865 O1872   1.957   .     S
Cu1865 O1869   1.969   .     S
Cu1865 Cu1866  2.726   .     S
Cu1865 O1876   2.031   .     S
Cu1865 O1873   2.035   .     S
Cu1865 N1867   2.048   .     S
Cu1866 O1874   2.035   .     S
Cu1866 O1871   1.957   .     S
Cu1866 O1870   1.969   .     S
Cu1866 O1875   2.031   .     S
Cu1866 N1868   2.048   .     S
S1877  O1878   1.503   .     D
S1877  O1879   1.500   .     D
S1877  C1937   1.799   .     S
S1877  O1964   1.683   .     S
O1880  H1881   0.988   .     S
S1882  O1883   1.487   .     D
S1882  O1884   1.501   .     D
O1885  H1886   0.991   .     S
O1885  S1966   1.680   .     S
N1887  H1888   1.031   .     S
N1887  C1889   1.439   .     S
C1889  H1890   1.106   .     S
C1889  H1891   1.110   .     S
C1889  H1892   1.103   .     S
N1893  C1895   1.441   .     S
N1893  H1894   1.031   .     S
C1895  H1897   1.109   .     S
C1895  H1898   1.110   .     S
C1895  H1896   1.108   .     S
N1899  H1900   1.033   .     S
N1899  C1901   1.437   .     S
C1901  H1902   1.110   .     S
C1901  H1903   1.106   .     S
C1901  H1904   1.102   .     S
N1905  C1907   1.440   .     S
N1905  H1906   1.032   .     S
C1907  H1908   1.109   .     S
C1907  H1909   1.105   .     S
C1907  H1910   1.105   .     S
S1911  O1913   1.493   .     D
S1911  O1914   1.678   .     S
S1911  O1912   1.500   .     D
O1914  H1915   0.990   .     S
S1916  O1917   1.496   .     D
S1916  O1918   1.504   .     D
S1916  O1919   1.672   .     S
O1919  H1920   0.991   .     S
N1921  C1923   1.449   .     S
N1921  H1922   1.028   .     S
C1923  H1924   1.104   .     S
C1923  H1925   1.103   .     S
C1923  H1926   1.104   .     S
N1927  C1929   1.445   .     S
N1927  H1928   1.016   .     S
C1929  H1930   1.097   .     S
C1929  H1931   1.101   .     S
C1929  H1932   1.108   .     S
C1933  O1953   1.311   .     A
C1933  C1944   1.463   .     S
C1933  O1955   1.308   .     A
C1934  O1954   1.316   .     A
C1934  C1943   1.473   .     S
C1934  O1956   1.308   .     A
C1935  O1957   1.302   .     A
C1935  C1937   1.466   .     S
C1935  O1959   1.316   .     A
C1936  O1960   1.314   .     A
C1936  C1938   1.472   .     S
C1936  O1958   1.308   .     A
C1938  C1769   1.392   1_655 S
C1938  S1798   1.810   1_655 S
C1939  C1944   1.403   .     A
C1939  N1971   1.424   .     S
C1940  C1943   1.407   .     A
C1940  N1977   1.426   .     S
C1940  C2194   1.409   .     S
C1941  N1983   1.423   .     S
C1941  C1943   1.401   .     A
C1941  C2191   1.408   .     S
C1942  N1989   1.427   .     S
C1942  C1944   1.405   .     A
C1945  S1995   1.815   .     S
C1945  N1952   1.397   .     A
C1946  N1951   1.401   .     A
C1946  S2000   1.829   .     S
C1946  C436    1.445   1_556 S
C1947  N1951   1.376   .     A
C1947  N2005   1.429   .     S
C1947  C433    1.436   1_556 S
C1948  N1952   1.374   .     A
C1948  N2011   1.423   .     S
Cu1949 O1956   1.957   .     S
Cu1949 O1953   1.969   .     S
Cu1949 Cu1950  2.726   .     S
Cu1949 O1960   2.031   .     S
Cu1949 O1957   2.035   .     S
Cu1949 N1951   2.048   .     S
Cu1950 O1958   2.035   .     S
Cu1950 O1955   1.957   .     S
Cu1950 O1954   1.969   .     S
Cu1950 O1959   2.031   .     S
Cu1950 N1952   2.048   .     S
S1961  O1962   1.503   .     D
S1961  O1963   1.500   .     D
S1961  C1769   1.799   1_655 S
S1961  O1796   1.683   1_655 S
O1964  H1965   0.988   .     S
S1966  O1967   1.487   .     D
S1966  O1968   1.501   .     D
O1969  H1970   0.991   .     S
O1969  S1798   1.680   1_655 S
N1971  H1972   1.031   .     S
N1971  C1973   1.439   .     S
C1973  H1974   1.106   .     S
C1973  H1975   1.110   .     S
C1973  H1976   1.103   .     S
N1977  C1979   1.441   .     S
N1977  H1978   1.031   .     S
C1979  H1981   1.109   .     S
C1979  H1982   1.110   .     S
C1979  H1980   1.108   .     S
N1983  H1984   1.033   .     S
N1983  C1985   1.437   .     S
C1985  H1986   1.110   .     S
C1985  H1987   1.106   .     S
C1985  H1988   1.102   .     S
N1989  C1991   1.440   .     S
N1989  H1990   1.032   .     S
C1991  H1992   1.109   .     S
C1991  H1993   1.105   .     S
C1991  H1994   1.105   .     S
S1995  O1997   1.493   .     D
S1995  O1998   1.678   .     S
S1995  O1996   1.500   .     D
O1998  H1999   0.990   .     S
S2000  O2001   1.496   .     D
S2000  O2002   1.504   .     D
S2000  O2003   1.672   .     S
O2003  H2004   0.991   .     S
N2005  C2007   1.449   .     S
N2005  H2006   1.028   .     S
C2007  H2008   1.104   .     S
C2007  H2009   1.103   .     S
C2007  H2010   1.104   .     S
N2011  C2013   1.445   .     S
N2011  H2012   1.016   .     S
C2013  H2014   1.097   .     S
C2013  H2015   1.101   .     S
C2013  H2016   1.108   .     S
C2017  O2037   1.311   .     A
C2017  C2028   1.463   .     S
C2017  O2039   1.308   .     A
C2018  O2038   1.316   .     A
C2018  C2027   1.473   .     S
C2018  O2040   1.308   .     A
C2019  O2041   1.302   .     A
C2019  C2021   1.466   .     S
C2019  O2043   1.316   .     A
C2020  O2044   1.314   .     A
C2020  C2022   1.472   .     S
C2020  O2042   1.308   .     A
C2021  C2190   1.392   1_455 S
C2021  S2213   1.799   1_455 S
C2022  C2105   1.392   .     S
C2022  S2134   1.810   .     S
C2023  C2028   1.403   .     A
C2023  N2055   1.424   .     S
C2024  C2027   1.407   .     A
C2024  N2061   1.426   .     S
C2024  C1522   1.409   1_565 S
C2025  N2067   1.423   .     S
C2025  C2027   1.401   .     A
C2025  C1519   1.408   1_565 S
C2026  N2073   1.427   .     S
C2026  C2028   1.405   .     A
C2029  S2079   1.815   .     S
C2029  N2036   1.397   .     A
C2030  N2035   1.401   .     A
C2030  S2084   1.829   .     S
C2030  C520    1.445   1_556 S
C2031  N2035   1.376   .     A
C2031  N2089   1.429   .     S
C2031  C517    1.436   1_556 S
C2032  N2036   1.374   .     A
C2032  N2095   1.423   .     S
Cu2033 O2040   1.957   .     S
Cu2033 O2037   1.969   .     S
Cu2033 Cu2034  2.726   .     S
Cu2033 O2044   2.031   .     S
Cu2033 O2041   2.035   .     S
Cu2033 N2035   2.048   .     S
Cu2034 O2042   2.035   .     S
Cu2034 O2039   1.957   .     S
Cu2034 O2038   1.969   .     S
Cu2034 O2043   2.031   .     S
Cu2034 N2036   2.048   .     S
S2045  O2046   1.503   .     D
S2045  O2047   1.500   .     D
S2045  C2105   1.799   .     S
S2045  O2132   1.683   .     S
O2048  H2049   0.988   .     S
O2048  S2213   1.683   1_455 S
S2050  O2051   1.487   .     D
S2050  O2052   1.501   .     D
S2050  C2190   1.810   1_455 S
S2050  O2221   1.680   1_455 S
O2053  H2054   0.991   .     S
O2053  S2134   1.680   .     S
N2055  H2056   1.031   .     S
N2055  C2057   1.439   .     S
C2057  H2058   1.106   .     S
C2057  H2059   1.110   .     S
C2057  H2060   1.103   .     S
N2061  C2063   1.441   .     S
N2061  H2062   1.031   .     S
C2063  H2065   1.109   .     S
C2063  H2066   1.110   .     S
C2063  H2064   1.108   .     S
N2067  H2068   1.033   .     S
N2067  C2069   1.437   .     S
C2069  H2070   1.110   .     S
C2069  H2071   1.106   .     S
C2069  H2072   1.102   .     S
N2073  C2075   1.440   .     S
N2073  H2074   1.032   .     S
C2075  H2076   1.109   .     S
C2075  H2077   1.105   .     S
C2075  H2078   1.105   .     S
S2079  O2081   1.493   .     D
S2079  O2082   1.678   .     S
S2079  O2080   1.500   .     D
O2082  H2083   0.990   .     S
S2084  O2085   1.496   .     D
S2084  O2086   1.504   .     D
S2084  O2087   1.672   .     S
O2087  H2088   0.991   .     S
N2089  C2091   1.449   .     S
N2089  H2090   1.028   .     S
C2091  H2092   1.104   .     S
C2091  H2093   1.103   .     S
C2091  H2094   1.104   .     S
N2095  C2097   1.445   .     S
N2095  H2096   1.016   .     S
C2097  H2098   1.097   .     S
C2097  H2099   1.101   .     S
C2097  H2100   1.108   .     S
C2101  O2121   1.311   .     A
C2101  C2112   1.463   .     S
C2101  O2123   1.308   .     A
C2102  O2122   1.316   .     A
C2102  C2111   1.473   .     S
C2102  O2124   1.308   .     A
C2103  O2125   1.302   .     A
C2103  C2105   1.466   .     S
C2103  O2127   1.316   .     A
C2104  O2128   1.314   .     A
C2104  C2106   1.472   .     S
C2104  O2126   1.308   .     A
C2106  C2189   1.392   .     S
C2106  S2218   1.810   .     S
C2107  C2112   1.403   .     A
C2107  N2139   1.424   .     S
C2108  C2111   1.407   .     A
C2108  N2145   1.426   .     S
C2108  C1606   1.409   1_565 S
C2109  N2151   1.423   .     S
C2109  C2111   1.401   .     A
C2109  C1603   1.408   1_565 S
C2110  N2157   1.427   .     S
C2110  C2112   1.405   .     A
C2113  S2163   1.815   .     S
C2113  N2120   1.397   .     A
C2114  N2119   1.401   .     A
C2114  S2168   1.829   .     S
C2114  C604    1.445   1_556 S
C2115  N2119   1.376   .     A
C2115  N2173   1.429   .     S
C2115  C601    1.436   1_556 S
C2116  N2120   1.374   .     A
C2116  N2179   1.423   .     S
Cu2117 O2124   1.957   .     S
Cu2117 O2121   1.969   .     S
Cu2117 Cu2118  2.726   .     S
Cu2117 O2128   2.031   .     S
Cu2117 O2125   2.035   .     S
Cu2117 N2119   2.048   .     S
Cu2118 O2126   2.035   .     S
Cu2118 O2123   1.957   .     S
Cu2118 O2122   1.969   .     S
Cu2118 O2127   2.031   .     S
Cu2118 N2120   2.048   .     S
S2129  O2130   1.503   .     D
S2129  O2131   1.500   .     D
S2129  C2189   1.799   .     S
S2129  O2216   1.683   .     S
O2132  H2133   0.988   .     S
S2134  O2135   1.487   .     D
S2134  O2136   1.501   .     D
O2137  H2138   0.991   .     S
O2137  S2218   1.680   .     S
N2139  H2140   1.031   .     S
N2139  C2141   1.439   .     S
C2141  H2142   1.106   .     S
C2141  H2143   1.110   .     S
C2141  H2144   1.103   .     S
N2145  C2147   1.441   .     S
N2145  H2146   1.031   .     S
C2147  H2149   1.109   .     S
C2147  H2150   1.110   .     S
C2147  H2148   1.108   .     S
N2151  H2152   1.033   .     S
N2151  C2153   1.437   .     S
C2153  H2154   1.110   .     S
C2153  H2155   1.106   .     S
C2153  H2156   1.102   .     S
N2157  C2159   1.440   .     S
N2157  H2158   1.032   .     S
C2159  H2160   1.109   .     S
C2159  H2161   1.105   .     S
C2159  H2162   1.105   .     S
S2163  O2165   1.493   .     D
S2163  O2166   1.678   .     S
S2163  O2164   1.500   .     D
O2166  H2167   0.990   .     S
S2168  O2169   1.496   .     D
S2168  O2170   1.504   .     D
S2168  O2171   1.672   .     S
O2171  H2172   0.991   .     S
N2173  C2175   1.449   .     S
N2173  H2174   1.028   .     S
C2175  H2176   1.104   .     S
C2175  H2177   1.103   .     S
C2175  H2178   1.104   .     S
N2179  C2181   1.445   .     S
N2179  H2180   1.016   .     S
C2181  H2182   1.097   .     S
C2181  H2183   1.101   .     S
C2181  H2184   1.108   .     S
C2185  O2205   1.311   .     A
C2185  C2196   1.463   .     S
C2185  O2207   1.308   .     A
C2186  O2206   1.316   .     A
C2186  C2195   1.473   .     S
C2186  O2208   1.308   .     A
C2187  O2209   1.302   .     A
C2187  C2189   1.466   .     S
C2187  O2211   1.316   .     A
C2188  O2212   1.314   .     A
C2188  C2190   1.472   .     S
C2188  O2210   1.308   .     A
C2190  C2021   1.392   1_655 S
C2190  S2050   1.810   1_655 S
C2191  C2196   1.403   .     A
C2191  N2223   1.424   .     S
C2192  C2195   1.407   .     A
C2192  N2229   1.426   .     S
C2192  C1690   1.409   1_565 S
C2193  N2235   1.423   .     S
C2193  C2195   1.401   .     A
C2193  C1687   1.408   1_565 S
C2194  N2241   1.427   .     S
C2194  C2196   1.405   .     A
C2197  S2247   1.815   .     S
C2197  N2204   1.397   .     A
C2198  N2203   1.401   .     A
C2198  S2252   1.829   .     S
C2198  C688    1.445   1_556 S
C2199  N2203   1.376   .     A
C2199  N2257   1.429   .     S
C2199  C685    1.436   1_556 S
C2200  N2204   1.374   .     A
C2200  N2263   1.423   .     S
Cu2201 O2208   1.957   .     S
Cu2201 O2205   1.969   .     S
Cu2201 Cu2202  2.726   .     S
Cu2201 O2212   2.031   .     S
Cu2201 O2209   2.035   .     S
Cu2201 N2203   2.048   .     S
Cu2202 O2210   2.035   .     S
Cu2202 O2207   1.957   .     S
Cu2202 O2206   1.969   .     S
Cu2202 O2211   2.031   .     S
Cu2202 N2204   2.048   .     S
S2213  O2214   1.503   .     D
S2213  O2215   1.500   .     D
S2213  C2021   1.799   1_655 S
S2213  O2048   1.683   1_655 S
O2216  H2217   0.988   .     S
S2218  O2219   1.487   .     D
S2218  O2220   1.501   .     D
O2221  H2222   0.991   .     S
O2221  S2050   1.680   1_655 S
N2223  H2224   1.031   .     S
N2223  C2225   1.439   .     S
C2225  H2226   1.106   .     S
C2225  H2227   1.110   .     S
C2225  H2228   1.103   .     S
N2229  C2231   1.441   .     S
N2229  H2230   1.031   .     S
C2231  H2233   1.109   .     S
C2231  H2234   1.110   .     S
C2231  H2232   1.108   .     S
N2235  H2236   1.033   .     S
N2235  C2237   1.437   .     S
C2237  H2238   1.110   .     S
C2237  H2239   1.106   .     S
C2237  H2240   1.102   .     S
N2241  C2243   1.440   .     S
N2241  H2242   1.032   .     S
C2243  H2244   1.109   .     S
C2243  H2245   1.105   .     S
C2243  H2246   1.105   .     S
S2247  O2249   1.493   .     D
S2247  O2250   1.678   .     S
S2247  O2248   1.500   .     D
O2250  H2251   0.990   .     S
S2252  O2253   1.496   .     D
S2252  O2254   1.504   .     D
S2252  O2255   1.672   .     S
O2255  H2256   0.991   .     S
N2257  C2259   1.449   .     S
N2257  H2258   1.028   .     S
C2259  H2260   1.104   .     S
C2259  H2261   1.103   .     S
C2259  H2262   1.104   .     S
N2263  C2265   1.445   .     S
N2263  H2264   1.016   .     S
C2265  H2266   1.097   .     S
C2265  H2267   1.101   .     S
C2265  H2268   1.108   .     S
