data_str_m2_o1_o16_pcu_sym.63
_audit_creation_date              2020-01-03
_audit_creation_method            'Materials Studio'
_symmetry_space_group_name_H-M    'P1'
_symmetry_Int_Tables_number       1
_symmetry_cell_setting            triclinic
loop_
_symmetry_equiv_pos_as_xyz
  x,y,z
_cell_length_a                    28.5924
_cell_length_b                    32.4672
_cell_length_c                    26.8971
_cell_angle_alpha                 90.6064
_cell_angle_beta                  72.3749
_cell_angle_gamma                 90.2901
loop_
_atom_site_label
_atom_site_type_symbol
_atom_site_fract_x
_atom_site_fract_y
_atom_site_fract_z
_atom_site_U_iso_or_equiv
_atom_site_adp_type
_atom_site_occupancy
O1     O     0.12708   0.22678   0.25000   0.00000  Uiso   1.00
O2     O     0.20627   0.22679   0.25000   0.00000  Uiso   1.00
C3     C     0.16669   0.24596   0.25026   0.00000  Uiso   1.00
O4     O     0.10775   0.16665   0.32549   0.00000  Uiso   1.00
O5     O     0.18694   0.16666   0.32549   0.00000  Uiso   1.00
C6     C     0.14035   0.16501   0.35008   0.00000  Uiso   1.00
Cu7    Cu    0.11978   0.16666   0.25000   0.00000  Uiso   1.00
Cu8    Cu    0.21355   0.16667   0.25000   0.00000  Uiso   1.00
O9     O     0.12706   0.10654   0.24999   0.00000  Uiso   1.00
O10    O     0.20625   0.10655   0.24999   0.00000  Uiso   1.00
O11    O     0.14640   0.16667   0.17451   0.00000  Uiso   1.00
O12    O     0.22559   0.16668   0.17451   0.00000  Uiso   1.00
C13    C     0.16654   0.08737   0.25023   0.00000  Uiso   1.00
C14    C     0.19319   0.16618   0.14978   0.00000  Uiso   1.00
C15    C     0.26150   0.13031   0.01293   0.00000  Uiso   1.00
H16    H     0.26518   0.10363   0.41849   0.00000  Uiso   1.00
H17    H     0.29590   0.11576   0.49163   0.00000  Uiso   1.00
C18    C     0.20896   0.16127   0.09257   0.00000  Uiso   1.00
C19    C     0.07839   0.18193   0.43397   0.00000  Uiso   1.00
C20    C     0.06507   0.18881   0.48738   0.00000  Uiso   1.00
C21    C     0.09793   0.18046   0.01497   0.00000  Uiso   1.00
C22    C     0.14462   0.16315   0.48968   0.00000  Uiso   1.00
C23    C     0.15580   0.15203   0.43616   0.00000  Uiso   1.00
C24    C     0.18063   0.15643   0.01555   0.00000  Uiso   1.00
C25    C     0.22496   0.13595   0.48886   0.00000  Uiso   1.00
C26    C     0.23241   0.12094   0.43841   0.00000  Uiso   1.00
C27    C     0.19801   0.12819   0.41275   0.00000  Uiso   1.00
C28    C     0.17421   0.16971   0.06698   0.00000  Uiso   1.00
C29    C     0.25434   0.14328   0.06436   0.00000  Uiso   1.00
C30    C     0.12420   0.16480   0.40753   0.00000  Uiso   1.00
H31    H     0.14188   0.18630   0.08872   0.00000  Uiso   1.00
H32    H     0.05328   0.19127   0.41306   0.00000  Uiso   1.00
H33    H     0.08519   0.18732   0.05612   0.00000  Uiso   1.00
H34    H     0.02962   0.20213   0.00726   0.00000  Uiso   1.00
H35    H     0.20473   0.11418   0.37462   0.00000  Uiso   1.00
C36    C     0.21114   0.31215   0.23925   0.00000  Uiso   1.00
H37    H     0.24594   0.29615   0.22978   0.00000  Uiso   1.00
C38    C     0.21106   0.02144   0.23913   0.00000  Uiso   1.00
H39    H     0.24584   0.03763   0.22952   0.00000  Uiso   1.00
C40    C     0.16648   0.04275   0.25075   0.00000  Uiso   1.00
C41    C     0.12199   0.02117   0.26308   0.00000  Uiso   1.00
H42    H     0.08716   0.03714   0.27337   0.00000  Uiso   1.00
C43    C     0.12208   0.31188   0.26280   0.00000  Uiso   1.00
H44    H     0.08730   0.29568   0.27244   0.00000  Uiso   1.00
C45    C     0.16666   0.29057   0.25076   0.00000  Uiso   1.00
C46    C     0.29947   0.19231   0.28260   0.00000  Uiso   1.00
H47    H     0.27352   0.21289   0.30874   0.00000  Uiso   1.00
C48    C     0.01569   0.19223   0.28270   0.00000  Uiso   1.00
H49    H     0.02705   0.21271   0.30889   0.00000  Uiso   1.00
N50    N     0.04931   0.16666   0.24998   0.00000  Uiso   1.00
C51    C     0.03346   0.14089   0.21726   0.00000  Uiso   1.00
C52    C     0.31721   0.14098   0.21767   0.00000  Uiso   1.00
H53    H     0.30536   0.12032   0.19200   0.00000  Uiso   1.00
N54    N     0.28402   0.16669   0.24999   0.00000  Uiso   1.00
N55    N     0.29329   0.13764   0.08693   0.00000  Uiso   1.00
O56    O     0.31248   0.16963   0.10293   0.00000  Uiso   1.00
O57    O     0.31669   0.10277   0.08051   0.00000  Uiso   1.00
N58    N     0.06646   0.11343   0.18198   0.00000  Uiso   1.00
O59    O     0.06731   0.07511   0.19527   0.00000  Uiso   1.00
O60    O     0.08056   0.12222   0.13259   0.00000  Uiso   1.00
O61    O     0.46042   0.22678   0.25000   0.00000  Uiso   1.00
O62    O     0.53961   0.22679   0.25000   0.00000  Uiso   1.00
C63    C     0.50002   0.24596   0.25026   0.00000  Uiso   1.00
O64    O     0.44108   0.16665   0.32549   0.00000  Uiso   1.00
O65    O     0.52027   0.16666   0.32549   0.00000  Uiso   1.00
C66    C     0.47369   0.16501   0.35008   0.00000  Uiso   1.00
Cu67   Cu    0.45311   0.16666   0.25000   0.00000  Uiso   1.00
Cu68   Cu    0.54689   0.16667   0.25000   0.00000  Uiso   1.00
O69    O     0.46039   0.10654   0.24999   0.00000  Uiso   1.00
O70    O     0.53958   0.10655   0.24999   0.00000  Uiso   1.00
O71    O     0.47973   0.16667   0.17451   0.00000  Uiso   1.00
O72    O     0.55892   0.16668   0.17451   0.00000  Uiso   1.00
C73    C     0.49987   0.08737   0.25023   0.00000  Uiso   1.00
C74    C     0.52653   0.16618   0.14978   0.00000  Uiso   1.00
C75    C     0.59484   0.13031   0.01293   0.00000  Uiso   1.00
H76    H     0.59851   0.10363   0.41849   0.00000  Uiso   1.00
H77    H     0.62923   0.11576   0.49163   0.00000  Uiso   1.00
C78    C     0.54229   0.16127   0.09257   0.00000  Uiso   1.00
C79    C     0.41172   0.18193   0.43397   0.00000  Uiso   1.00
C80    C     0.39841   0.18881   0.48738   0.00000  Uiso   1.00
C81    C     0.43126   0.18046   0.01497   0.00000  Uiso   1.00
C82    C     0.47795   0.16315   0.48968   0.00000  Uiso   1.00
C83    C     0.48913   0.15203   0.43616   0.00000  Uiso   1.00
C84    C     0.51396   0.15643   0.01555   0.00000  Uiso   1.00
C85    C     0.55830   0.13595   0.48886   0.00000  Uiso   1.00
C86    C     0.56575   0.12094   0.43841   0.00000  Uiso   1.00
C87    C     0.53134   0.12819   0.41275   0.00000  Uiso   1.00
C88    C     0.50754   0.16971   0.06698   0.00000  Uiso   1.00
C89    C     0.58767   0.14328   0.06436   0.00000  Uiso   1.00
C90    C     0.45754   0.16480   0.40753   0.00000  Uiso   1.00
H91    H     0.47521   0.18630   0.08872   0.00000  Uiso   1.00
H92    H     0.38662   0.19127   0.41306   0.00000  Uiso   1.00
H93    H     0.41852   0.18732   0.05612   0.00000  Uiso   1.00
H94    H     0.36295   0.20213   0.00726   0.00000  Uiso   1.00
H95    H     0.53806   0.11418   0.37462   0.00000  Uiso   1.00
C96    C     0.54447   0.31215   0.23925   0.00000  Uiso   1.00
H97    H     0.57927   0.29615   0.22978   0.00000  Uiso   1.00
C98    C     0.54439   0.02144   0.23913   0.00000  Uiso   1.00
H99    H     0.57917   0.03763   0.22952   0.00000  Uiso   1.00
C100   C     0.49981   0.04275   0.25075   0.00000  Uiso   1.00
C101   C     0.45532   0.02117   0.26308   0.00000  Uiso   1.00
H102   H     0.42050   0.03714   0.27337   0.00000  Uiso   1.00
C103   C     0.45541   0.31188   0.26280   0.00000  Uiso   1.00
H104   H     0.42064   0.29568   0.27244   0.00000  Uiso   1.00
C105   C     0.49999   0.29057   0.25076   0.00000  Uiso   1.00
C106   C     0.63280   0.19231   0.28260   0.00000  Uiso   1.00
H107   H     0.60686   0.21289   0.30874   0.00000  Uiso   1.00
C108   C     0.34903   0.19223   0.28270   0.00000  Uiso   1.00
H109   H     0.36038   0.21271   0.30889   0.00000  Uiso   1.00
N110   N     0.38265   0.16666   0.24998   0.00000  Uiso   1.00
C111   C     0.36679   0.14089   0.21726   0.00000  Uiso   1.00
C112   C     0.65054   0.14098   0.21767   0.00000  Uiso   1.00
H113   H     0.63869   0.12032   0.19200   0.00000  Uiso   1.00
N114   N     0.61735   0.16669   0.24999   0.00000  Uiso   1.00
N115   N     0.62663   0.13764   0.08693   0.00000  Uiso   1.00
O116   O     0.64582   0.16963   0.10293   0.00000  Uiso   1.00
O117   O     0.65002   0.10277   0.08051   0.00000  Uiso   1.00
N118   N     0.39980   0.11343   0.18198   0.00000  Uiso   1.00
O119   O     0.40065   0.07511   0.19527   0.00000  Uiso   1.00
O120   O     0.41389   0.12222   0.13259   0.00000  Uiso   1.00
O121   O     0.79375   0.22678   0.25000   0.00000  Uiso   1.00
O122   O     0.87294   0.22679   0.25000   0.00000  Uiso   1.00
C123   C     0.83336   0.24596   0.25026   0.00000  Uiso   1.00
O124   O     0.77441   0.16665   0.32549   0.00000  Uiso   1.00
O125   O     0.85360   0.16666   0.32549   0.00000  Uiso   1.00
C126   C     0.80702   0.16501   0.35008   0.00000  Uiso   1.00
Cu127  Cu    0.78645   0.16666   0.25000   0.00000  Uiso   1.00
Cu128  Cu    0.88022   0.16667   0.25000   0.00000  Uiso   1.00
O129   O     0.79373   0.10654   0.24999   0.00000  Uiso   1.00
O130   O     0.87292   0.10655   0.24999   0.00000  Uiso   1.00
O131   O     0.81306   0.16667   0.17451   0.00000  Uiso   1.00
O132   O     0.89225   0.16668   0.17451   0.00000  Uiso   1.00
C133   C     0.83320   0.08737   0.25023   0.00000  Uiso   1.00
C134   C     0.85986   0.16618   0.14978   0.00000  Uiso   1.00
C135   C     0.92817   0.13031   0.01293   0.00000  Uiso   1.00
H136   H     0.93184   0.10363   0.41849   0.00000  Uiso   1.00
H137   H     0.96257   0.11576   0.49163   0.00000  Uiso   1.00
C138   C     0.87562   0.16127   0.09257   0.00000  Uiso   1.00
C139   C     0.74505   0.18193   0.43397   0.00000  Uiso   1.00
C140   C     0.73174   0.18881   0.48738   0.00000  Uiso   1.00
C141   C     0.76459   0.18046   0.01497   0.00000  Uiso   1.00
C142   C     0.81129   0.16315   0.48968   0.00000  Uiso   1.00
C143   C     0.82246   0.15203   0.43616   0.00000  Uiso   1.00
C144   C     0.84730   0.15643   0.01555   0.00000  Uiso   1.00
C145   C     0.89163   0.13595   0.48886   0.00000  Uiso   1.00
C146   C     0.89908   0.12094   0.43841   0.00000  Uiso   1.00
C147   C     0.86468   0.12819   0.41275   0.00000  Uiso   1.00
C148   C     0.84088   0.16971   0.06698   0.00000  Uiso   1.00
C149   C     0.92101   0.14328   0.06436   0.00000  Uiso   1.00
C150   C     0.79087   0.16480   0.40753   0.00000  Uiso   1.00
H151   H     0.80854   0.18630   0.08872   0.00000  Uiso   1.00
H152   H     0.71995   0.19127   0.41306   0.00000  Uiso   1.00
H153   H     0.75185   0.18732   0.05612   0.00000  Uiso   1.00
H154   H     0.69629   0.20213   0.00726   0.00000  Uiso   1.00
H155   H     0.87139   0.11418   0.37462   0.00000  Uiso   1.00
C156   C     0.87780   0.31215   0.23925   0.00000  Uiso   1.00
H157   H     0.91261   0.29615   0.22978   0.00000  Uiso   1.00
C158   C     0.87772   0.02144   0.23913   0.00000  Uiso   1.00
H159   H     0.91250   0.03763   0.22952   0.00000  Uiso   1.00
C160   C     0.83315   0.04275   0.25075   0.00000  Uiso   1.00
C161   C     0.78865   0.02117   0.26308   0.00000  Uiso   1.00
H162   H     0.75383   0.03714   0.27337   0.00000  Uiso   1.00
C163   C     0.78874   0.31188   0.26280   0.00000  Uiso   1.00
H164   H     0.75397   0.29568   0.27244   0.00000  Uiso   1.00
C165   C     0.83333   0.29057   0.25076   0.00000  Uiso   1.00
C166   C     0.96613   0.19231   0.28260   0.00000  Uiso   1.00
H167   H     0.94019   0.21289   0.30874   0.00000  Uiso   1.00
C168   C     0.68236   0.19223   0.28270   0.00000  Uiso   1.00
H169   H     0.69372   0.21271   0.30889   0.00000  Uiso   1.00
N170   N     0.71598   0.16666   0.24998   0.00000  Uiso   1.00
C171   C     0.70012   0.14089   0.21726   0.00000  Uiso   1.00
C172   C     0.98388   0.14098   0.21767   0.00000  Uiso   1.00
H173   H     0.97203   0.12032   0.19200   0.00000  Uiso   1.00
N174   N     0.95069   0.16669   0.24999   0.00000  Uiso   1.00
N175   N     0.95996   0.13764   0.08693   0.00000  Uiso   1.00
O176   O     0.97915   0.16963   0.10293   0.00000  Uiso   1.00
O177   O     0.98335   0.10277   0.08051   0.00000  Uiso   1.00
N178   N     0.73313   0.11343   0.18198   0.00000  Uiso   1.00
O179   O     0.73398   0.07511   0.19527   0.00000  Uiso   1.00
O180   O     0.74723   0.12222   0.13259   0.00000  Uiso   1.00
O181   O     0.12708   0.56011   0.25000   0.00000  Uiso   1.00
O182   O     0.20627   0.56012   0.25000   0.00000  Uiso   1.00
C183   C     0.16669   0.57929   0.25026   0.00000  Uiso   1.00
O184   O     0.10775   0.49998   0.32549   0.00000  Uiso   1.00
O185   O     0.18694   0.49999   0.32549   0.00000  Uiso   1.00
C186   C     0.14035   0.49834   0.35008   0.00000  Uiso   1.00
Cu187  Cu    0.11978   0.49999   0.25000   0.00000  Uiso   1.00
Cu188  Cu    0.21355   0.50001   0.25000   0.00000  Uiso   1.00
O189   O     0.12706   0.43988   0.24999   0.00000  Uiso   1.00
O190   O     0.20625   0.43989   0.24999   0.00000  Uiso   1.00
O191   O     0.14640   0.50001   0.17451   0.00000  Uiso   1.00
O192   O     0.22559   0.50002   0.17451   0.00000  Uiso   1.00
C193   C     0.16654   0.42071   0.25023   0.00000  Uiso   1.00
C194   C     0.19319   0.49952   0.14978   0.00000  Uiso   1.00
C195   C     0.26150   0.46364   0.01293   0.00000  Uiso   1.00
H196   H     0.26518   0.43696   0.41849   0.00000  Uiso   1.00
H197   H     0.29590   0.44909   0.49163   0.00000  Uiso   1.00
C198   C     0.20896   0.49460   0.09257   0.00000  Uiso   1.00
C199   C     0.07839   0.51526   0.43397   0.00000  Uiso   1.00
C200   C     0.06507   0.52214   0.48738   0.00000  Uiso   1.00
C201   C     0.09793   0.51379   0.01497   0.00000  Uiso   1.00
C202   C     0.14462   0.49648   0.48968   0.00000  Uiso   1.00
C203   C     0.15580   0.48536   0.43616   0.00000  Uiso   1.00
C204   C     0.18063   0.48976   0.01555   0.00000  Uiso   1.00
C205   C     0.22496   0.46928   0.48886   0.00000  Uiso   1.00
C206   C     0.23241   0.45428   0.43841   0.00000  Uiso   1.00
C207   C     0.19801   0.46152   0.41275   0.00000  Uiso   1.00
C208   C     0.17421   0.50304   0.06698   0.00000  Uiso   1.00
C209   C     0.25434   0.47661   0.06436   0.00000  Uiso   1.00
C210   C     0.12420   0.49813   0.40753   0.00000  Uiso   1.00
H211   H     0.14188   0.51964   0.08872   0.00000  Uiso   1.00
H212   H     0.05328   0.52460   0.41306   0.00000  Uiso   1.00
H213   H     0.08519   0.52066   0.05612   0.00000  Uiso   1.00
H214   H     0.02962   0.53547   0.00726   0.00000  Uiso   1.00
H215   H     0.20473   0.44751   0.37462   0.00000  Uiso   1.00
C216   C     0.21114   0.64548   0.23925   0.00000  Uiso   1.00
H217   H     0.24594   0.62948   0.22978   0.00000  Uiso   1.00
C218   C     0.21106   0.35477   0.23913   0.00000  Uiso   1.00
H219   H     0.24584   0.37096   0.22952   0.00000  Uiso   1.00
C220   C     0.16648   0.37609   0.25075   0.00000  Uiso   1.00
C221   C     0.12199   0.35450   0.26308   0.00000  Uiso   1.00
H222   H     0.08716   0.37047   0.27337   0.00000  Uiso   1.00
C223   C     0.12208   0.64522   0.26280   0.00000  Uiso   1.00
H224   H     0.08730   0.62902   0.27244   0.00000  Uiso   1.00
C225   C     0.16666   0.62390   0.25076   0.00000  Uiso   1.00
C226   C     0.29947   0.52565   0.28260   0.00000  Uiso   1.00
H227   H     0.27352   0.54623   0.30874   0.00000  Uiso   1.00
C228   C     0.01569   0.52556   0.28270   0.00000  Uiso   1.00
H229   H     0.02705   0.54604   0.30889   0.00000  Uiso   1.00
N230   N     0.04931   0.49999   0.24998   0.00000  Uiso   1.00
C231   C     0.03346   0.47422   0.21726   0.00000  Uiso   1.00
C232   C     0.31721   0.47431   0.21767   0.00000  Uiso   1.00
H233   H     0.30536   0.45366   0.19200   0.00000  Uiso   1.00
N234   N     0.28402   0.50002   0.24999   0.00000  Uiso   1.00
N235   N     0.29329   0.47098   0.08693   0.00000  Uiso   1.00
O236   O     0.31248   0.50296   0.10293   0.00000  Uiso   1.00
O237   O     0.31669   0.43610   0.08051   0.00000  Uiso   1.00
N238   N     0.06646   0.44676   0.18198   0.00000  Uiso   1.00
O239   O     0.06731   0.40845   0.19527   0.00000  Uiso   1.00
O240   O     0.08056   0.45556   0.13259   0.00000  Uiso   1.00
O241   O     0.46042   0.56011   0.25000   0.00000  Uiso   1.00
O242   O     0.53961   0.56012   0.25000   0.00000  Uiso   1.00
C243   C     0.50002   0.57929   0.25026   0.00000  Uiso   1.00
O244   O     0.44108   0.49998   0.32549   0.00000  Uiso   1.00
O245   O     0.52027   0.49999   0.32549   0.00000  Uiso   1.00
C246   C     0.47369   0.49834   0.35008   0.00000  Uiso   1.00
Cu247  Cu    0.45311   0.49999   0.25000   0.00000  Uiso   1.00
Cu248  Cu    0.54689   0.50001   0.25000   0.00000  Uiso   1.00
O249   O     0.46039   0.43988   0.24999   0.00000  Uiso   1.00
O250   O     0.53958   0.43989   0.24999   0.00000  Uiso   1.00
O251   O     0.47973   0.50001   0.17451   0.00000  Uiso   1.00
O252   O     0.55892   0.50002   0.17451   0.00000  Uiso   1.00
C253   C     0.49987   0.42071   0.25023   0.00000  Uiso   1.00
C254   C     0.52653   0.49952   0.14978   0.00000  Uiso   1.00
C255   C     0.59484   0.46364   0.01293   0.00000  Uiso   1.00
H256   H     0.59851   0.43696   0.41849   0.00000  Uiso   1.00
H257   H     0.62923   0.44909   0.49163   0.00000  Uiso   1.00
C258   C     0.54229   0.49460   0.09257   0.00000  Uiso   1.00
C259   C     0.41172   0.51526   0.43397   0.00000  Uiso   1.00
C260   C     0.39841   0.52214   0.48738   0.00000  Uiso   1.00
C261   C     0.43126   0.51379   0.01497   0.00000  Uiso   1.00
C262   C     0.47795   0.49648   0.48968   0.00000  Uiso   1.00
C263   C     0.48913   0.48536   0.43616   0.00000  Uiso   1.00
C264   C     0.51396   0.48976   0.01555   0.00000  Uiso   1.00
C265   C     0.55830   0.46928   0.48886   0.00000  Uiso   1.00
C266   C     0.56575   0.45428   0.43841   0.00000  Uiso   1.00
C267   C     0.53134   0.46152   0.41275   0.00000  Uiso   1.00
C268   C     0.50754   0.50304   0.06698   0.00000  Uiso   1.00
C269   C     0.58767   0.47661   0.06436   0.00000  Uiso   1.00
C270   C     0.45754   0.49813   0.40753   0.00000  Uiso   1.00
H271   H     0.47521   0.51964   0.08872   0.00000  Uiso   1.00
H272   H     0.38662   0.52460   0.41306   0.00000  Uiso   1.00
H273   H     0.41852   0.52066   0.05612   0.00000  Uiso   1.00
H274   H     0.36295   0.53547   0.00726   0.00000  Uiso   1.00
H275   H     0.53806   0.44751   0.37462   0.00000  Uiso   1.00
C276   C     0.54447   0.64548   0.23925   0.00000  Uiso   1.00
H277   H     0.57927   0.62948   0.22978   0.00000  Uiso   1.00
C278   C     0.54439   0.35477   0.23913   0.00000  Uiso   1.00
H279   H     0.57917   0.37096   0.22952   0.00000  Uiso   1.00
C280   C     0.49981   0.37609   0.25075   0.00000  Uiso   1.00
C281   C     0.45532   0.35450   0.26308   0.00000  Uiso   1.00
H282   H     0.42050   0.37047   0.27337   0.00000  Uiso   1.00
C283   C     0.45541   0.64522   0.26280   0.00000  Uiso   1.00
H284   H     0.42064   0.62902   0.27244   0.00000  Uiso   1.00
C285   C     0.49999   0.62390   0.25076   0.00000  Uiso   1.00
C286   C     0.63280   0.52565   0.28260   0.00000  Uiso   1.00
H287   H     0.60686   0.54623   0.30874   0.00000  Uiso   1.00
C288   C     0.34903   0.52556   0.28270   0.00000  Uiso   1.00
H289   H     0.36038   0.54604   0.30889   0.00000  Uiso   1.00
N290   N     0.38265   0.49999   0.24998   0.00000  Uiso   1.00
C291   C     0.36679   0.47422   0.21726   0.00000  Uiso   1.00
C292   C     0.65054   0.47431   0.21767   0.00000  Uiso   1.00
H293   H     0.63869   0.45366   0.19200   0.00000  Uiso   1.00
N294   N     0.61735   0.50002   0.24999   0.00000  Uiso   1.00
N295   N     0.62663   0.47098   0.08693   0.00000  Uiso   1.00
O296   O     0.64582   0.50296   0.10293   0.00000  Uiso   1.00
O297   O     0.65002   0.43610   0.08051   0.00000  Uiso   1.00
N298   N     0.39980   0.44676   0.18198   0.00000  Uiso   1.00
O299   O     0.40065   0.40845   0.19527   0.00000  Uiso   1.00
O300   O     0.41389   0.45556   0.13259   0.00000  Uiso   1.00
O301   O     0.79375   0.56011   0.25000   0.00000  Uiso   1.00
O302   O     0.87294   0.56012   0.25000   0.00000  Uiso   1.00
C303   C     0.83336   0.57929   0.25026   0.00000  Uiso   1.00
O304   O     0.77441   0.49998   0.32549   0.00000  Uiso   1.00
O305   O     0.85360   0.49999   0.32549   0.00000  Uiso   1.00
C306   C     0.80702   0.49834   0.35008   0.00000  Uiso   1.00
Cu307  Cu    0.78645   0.49999   0.25000   0.00000  Uiso   1.00
Cu308  Cu    0.88022   0.50001   0.25000   0.00000  Uiso   1.00
O309   O     0.79373   0.43988   0.24999   0.00000  Uiso   1.00
O310   O     0.87292   0.43989   0.24999   0.00000  Uiso   1.00
O311   O     0.81306   0.50001   0.17451   0.00000  Uiso   1.00
O312   O     0.89225   0.50002   0.17451   0.00000  Uiso   1.00
C313   C     0.83320   0.42071   0.25023   0.00000  Uiso   1.00
C314   C     0.85986   0.49952   0.14978   0.00000  Uiso   1.00
C315   C     0.92817   0.46364   0.01293   0.00000  Uiso   1.00
H316   H     0.93184   0.43696   0.41849   0.00000  Uiso   1.00
H317   H     0.96257   0.44909   0.49163   0.00000  Uiso   1.00
C318   C     0.87562   0.49460   0.09257   0.00000  Uiso   1.00
C319   C     0.74505   0.51526   0.43397   0.00000  Uiso   1.00
C320   C     0.73174   0.52214   0.48738   0.00000  Uiso   1.00
C321   C     0.76459   0.51379   0.01497   0.00000  Uiso   1.00
C322   C     0.81129   0.49648   0.48968   0.00000  Uiso   1.00
C323   C     0.82246   0.48536   0.43616   0.00000  Uiso   1.00
C324   C     0.84730   0.48976   0.01555   0.00000  Uiso   1.00
C325   C     0.89163   0.46928   0.48886   0.00000  Uiso   1.00
C326   C     0.89908   0.45428   0.43841   0.00000  Uiso   1.00
C327   C     0.86468   0.46152   0.41275   0.00000  Uiso   1.00
C328   C     0.84088   0.50304   0.06698   0.00000  Uiso   1.00
C329   C     0.92101   0.47661   0.06436   0.00000  Uiso   1.00
C330   C     0.79087   0.49813   0.40753   0.00000  Uiso   1.00
H331   H     0.80854   0.51964   0.08872   0.00000  Uiso   1.00
H332   H     0.71995   0.52460   0.41306   0.00000  Uiso   1.00
H333   H     0.75185   0.52066   0.05612   0.00000  Uiso   1.00
H334   H     0.69629   0.53547   0.00726   0.00000  Uiso   1.00
H335   H     0.87139   0.44751   0.37462   0.00000  Uiso   1.00
C336   C     0.87780   0.64548   0.23925   0.00000  Uiso   1.00
H337   H     0.91261   0.62948   0.22978   0.00000  Uiso   1.00
C338   C     0.87772   0.35477   0.23913   0.00000  Uiso   1.00
H339   H     0.91250   0.37096   0.22952   0.00000  Uiso   1.00
C340   C     0.83315   0.37609   0.25075   0.00000  Uiso   1.00
C341   C     0.78865   0.35450   0.26308   0.00000  Uiso   1.00
H342   H     0.75383   0.37047   0.27337   0.00000  Uiso   1.00
C343   C     0.78874   0.64522   0.26280   0.00000  Uiso   1.00
H344   H     0.75397   0.62902   0.27244   0.00000  Uiso   1.00
C345   C     0.83333   0.62390   0.25076   0.00000  Uiso   1.00
C346   C     0.96613   0.52565   0.28260   0.00000  Uiso   1.00
H347   H     0.94019   0.54623   0.30874   0.00000  Uiso   1.00
C348   C     0.68236   0.52556   0.28270   0.00000  Uiso   1.00
H349   H     0.69372   0.54604   0.30889   0.00000  Uiso   1.00
N350   N     0.71598   0.49999   0.24998   0.00000  Uiso   1.00
C351   C     0.70012   0.47422   0.21726   0.00000  Uiso   1.00
C352   C     0.98388   0.47431   0.21767   0.00000  Uiso   1.00
H353   H     0.97203   0.45366   0.19200   0.00000  Uiso   1.00
N354   N     0.95069   0.50002   0.24999   0.00000  Uiso   1.00
N355   N     0.95996   0.47098   0.08693   0.00000  Uiso   1.00
O356   O     0.97915   0.50296   0.10293   0.00000  Uiso   1.00
O357   O     0.98335   0.43610   0.08051   0.00000  Uiso   1.00
N358   N     0.73313   0.44676   0.18198   0.00000  Uiso   1.00
O359   O     0.73398   0.40845   0.19527   0.00000  Uiso   1.00
O360   O     0.74723   0.45556   0.13259   0.00000  Uiso   1.00
O361   O     0.12708   0.89345   0.25000   0.00000  Uiso   1.00
O362   O     0.20627   0.89346   0.25000   0.00000  Uiso   1.00
C363   C     0.16669   0.91262   0.25026   0.00000  Uiso   1.00
O364   O     0.10775   0.83332   0.32549   0.00000  Uiso   1.00
O365   O     0.18694   0.83333   0.32549   0.00000  Uiso   1.00
C366   C     0.14035   0.83168   0.35008   0.00000  Uiso   1.00
Cu367  Cu    0.11978   0.83333   0.25000   0.00000  Uiso   1.00
Cu368  Cu    0.21355   0.83334   0.25000   0.00000  Uiso   1.00
O369   O     0.12706   0.77321   0.24999   0.00000  Uiso   1.00
O370   O     0.20625   0.77322   0.24999   0.00000  Uiso   1.00
O371   O     0.14640   0.83334   0.17451   0.00000  Uiso   1.00
O372   O     0.22559   0.83335   0.17451   0.00000  Uiso   1.00
C373   C     0.16654   0.75404   0.25023   0.00000  Uiso   1.00
C374   C     0.19319   0.83285   0.14978   0.00000  Uiso   1.00
C375   C     0.26150   0.79697   0.01293   0.00000  Uiso   1.00
H376   H     0.26518   0.77030   0.41849   0.00000  Uiso   1.00
H377   H     0.29590   0.78242   0.49163   0.00000  Uiso   1.00
C378   C     0.20896   0.82793   0.09257   0.00000  Uiso   1.00
C379   C     0.07839   0.84859   0.43397   0.00000  Uiso   1.00
C380   C     0.06507   0.85548   0.48738   0.00000  Uiso   1.00
C381   C     0.09793   0.84713   0.01497   0.00000  Uiso   1.00
C382   C     0.14462   0.82981   0.48968   0.00000  Uiso   1.00
C383   C     0.15580   0.81869   0.43616   0.00000  Uiso   1.00
C384   C     0.18063   0.82310   0.01555   0.00000  Uiso   1.00
C385   C     0.22496   0.80262   0.48886   0.00000  Uiso   1.00
C386   C     0.23241   0.78761   0.43841   0.00000  Uiso   1.00
C387   C     0.19801   0.79486   0.41275   0.00000  Uiso   1.00
C388   C     0.17421   0.83638   0.06698   0.00000  Uiso   1.00
C389   C     0.25434   0.80994   0.06436   0.00000  Uiso   1.00
C390   C     0.12420   0.83146   0.40753   0.00000  Uiso   1.00
H391   H     0.14188   0.85297   0.08872   0.00000  Uiso   1.00
H392   H     0.05328   0.85793   0.41306   0.00000  Uiso   1.00
H393   H     0.08519   0.85399   0.05612   0.00000  Uiso   1.00
H394   H     0.02962   0.86880   0.00726   0.00000  Uiso   1.00
H395   H     0.20473   0.78085   0.37462   0.00000  Uiso   1.00
C396   C     0.21114   0.97881   0.23925   0.00000  Uiso   1.00
H397   H     0.24594   0.96282   0.22978   0.00000  Uiso   1.00
C398   C     0.21106   0.68810   0.23913   0.00000  Uiso   1.00
H399   H     0.24584   0.70429   0.22952   0.00000  Uiso   1.00
C400   C     0.16648   0.70942   0.25075   0.00000  Uiso   1.00
C401   C     0.12199   0.68784   0.26308   0.00000  Uiso   1.00
H402   H     0.08716   0.70381   0.27337   0.00000  Uiso   1.00
C403   C     0.12208   0.97855   0.26280   0.00000  Uiso   1.00
H404   H     0.08730   0.96235   0.27244   0.00000  Uiso   1.00
C405   C     0.16666   0.95724   0.25076   0.00000  Uiso   1.00
C406   C     0.29947   0.85898   0.28260   0.00000  Uiso   1.00
H407   H     0.27352   0.87956   0.30874   0.00000  Uiso   1.00
C408   C     0.01569   0.85890   0.28270   0.00000  Uiso   1.00
H409   H     0.02705   0.87938   0.30889   0.00000  Uiso   1.00
N410   N     0.04931   0.83332   0.24998   0.00000  Uiso   1.00
C411   C     0.03346   0.80756   0.21726   0.00000  Uiso   1.00
C412   C     0.31721   0.80765   0.21767   0.00000  Uiso   1.00
H413   H     0.30536   0.78699   0.19200   0.00000  Uiso   1.00
N414   N     0.28402   0.83335   0.24999   0.00000  Uiso   1.00
N415   N     0.29329   0.80431   0.08693   0.00000  Uiso   1.00
O416   O     0.31248   0.83630   0.10293   0.00000  Uiso   1.00
O417   O     0.31669   0.76943   0.08051   0.00000  Uiso   1.00
N418   N     0.06646   0.78009   0.18198   0.00000  Uiso   1.00
O419   O     0.06731   0.74178   0.19527   0.00000  Uiso   1.00
O420   O     0.08056   0.78889   0.13259   0.00000  Uiso   1.00
O421   O     0.46042   0.89345   0.25000   0.00000  Uiso   1.00
O422   O     0.53961   0.89346   0.25000   0.00000  Uiso   1.00
C423   C     0.50002   0.91262   0.25026   0.00000  Uiso   1.00
O424   O     0.44108   0.83332   0.32549   0.00000  Uiso   1.00
O425   O     0.52027   0.83333   0.32549   0.00000  Uiso   1.00
C426   C     0.47369   0.83168   0.35008   0.00000  Uiso   1.00
Cu427  Cu    0.45311   0.83333   0.25000   0.00000  Uiso   1.00
Cu428  Cu    0.54689   0.83334   0.25000   0.00000  Uiso   1.00
O429   O     0.46039   0.77321   0.24999   0.00000  Uiso   1.00
O430   O     0.53958   0.77322   0.24999   0.00000  Uiso   1.00
O431   O     0.47973   0.83334   0.17451   0.00000  Uiso   1.00
O432   O     0.55892   0.83335   0.17451   0.00000  Uiso   1.00
C433   C     0.49987   0.75404   0.25023   0.00000  Uiso   1.00
C434   C     0.52653   0.83285   0.14978   0.00000  Uiso   1.00
C435   C     0.59484   0.79697   0.01293   0.00000  Uiso   1.00
H436   H     0.59851   0.77030   0.41849   0.00000  Uiso   1.00
H437   H     0.62923   0.78242   0.49163   0.00000  Uiso   1.00
C438   C     0.54229   0.82793   0.09257   0.00000  Uiso   1.00
C439   C     0.41172   0.84859   0.43397   0.00000  Uiso   1.00
C440   C     0.39841   0.85548   0.48738   0.00000  Uiso   1.00
C441   C     0.43126   0.84713   0.01497   0.00000  Uiso   1.00
C442   C     0.47795   0.82981   0.48968   0.00000  Uiso   1.00
C443   C     0.48913   0.81869   0.43616   0.00000  Uiso   1.00
C444   C     0.51396   0.82310   0.01555   0.00000  Uiso   1.00
C445   C     0.55830   0.80262   0.48886   0.00000  Uiso   1.00
C446   C     0.56575   0.78761   0.43841   0.00000  Uiso   1.00
C447   C     0.53134   0.79486   0.41275   0.00000  Uiso   1.00
C448   C     0.50754   0.83638   0.06698   0.00000  Uiso   1.00
C449   C     0.58767   0.80994   0.06436   0.00000  Uiso   1.00
C450   C     0.45754   0.83146   0.40753   0.00000  Uiso   1.00
H451   H     0.47521   0.85297   0.08872   0.00000  Uiso   1.00
H452   H     0.38662   0.85793   0.41306   0.00000  Uiso   1.00
H453   H     0.41852   0.85399   0.05612   0.00000  Uiso   1.00
H454   H     0.36295   0.86880   0.00726   0.00000  Uiso   1.00
H455   H     0.53806   0.78085   0.37462   0.00000  Uiso   1.00
C456   C     0.54447   0.97881   0.23925   0.00000  Uiso   1.00
H457   H     0.57927   0.96282   0.22978   0.00000  Uiso   1.00
C458   C     0.54439   0.68810   0.23913   0.00000  Uiso   1.00
H459   H     0.57917   0.70429   0.22952   0.00000  Uiso   1.00
C460   C     0.49981   0.70942   0.25075   0.00000  Uiso   1.00
C461   C     0.45532   0.68784   0.26308   0.00000  Uiso   1.00
H462   H     0.42050   0.70381   0.27337   0.00000  Uiso   1.00
C463   C     0.45541   0.97855   0.26280   0.00000  Uiso   1.00
H464   H     0.42064   0.96235   0.27244   0.00000  Uiso   1.00
C465   C     0.49999   0.95724   0.25076   0.00000  Uiso   1.00
C466   C     0.63280   0.85898   0.28260   0.00000  Uiso   1.00
H467   H     0.60686   0.87956   0.30874   0.00000  Uiso   1.00
C468   C     0.34903   0.85890   0.28270   0.00000  Uiso   1.00
H469   H     0.36038   0.87938   0.30889   0.00000  Uiso   1.00
N470   N     0.38265   0.83332   0.24998   0.00000  Uiso   1.00
C471   C     0.36679   0.80756   0.21726   0.00000  Uiso   1.00
C472   C     0.65054   0.80765   0.21767   0.00000  Uiso   1.00
H473   H     0.63869   0.78699   0.19200   0.00000  Uiso   1.00
N474   N     0.61735   0.83335   0.24999   0.00000  Uiso   1.00
N475   N     0.62663   0.80431   0.08693   0.00000  Uiso   1.00
O476   O     0.64582   0.83630   0.10293   0.00000  Uiso   1.00
O477   O     0.65002   0.76943   0.08051   0.00000  Uiso   1.00
N478   N     0.39980   0.78009   0.18198   0.00000  Uiso   1.00
O479   O     0.40065   0.74178   0.19527   0.00000  Uiso   1.00
O480   O     0.41389   0.78889   0.13259   0.00000  Uiso   1.00
O481   O     0.79375   0.89345   0.25000   0.00000  Uiso   1.00
O482   O     0.87294   0.89346   0.25000   0.00000  Uiso   1.00
C483   C     0.83336   0.91262   0.25026   0.00000  Uiso   1.00
O484   O     0.77441   0.83332   0.32549   0.00000  Uiso   1.00
O485   O     0.85360   0.83333   0.32549   0.00000  Uiso   1.00
C486   C     0.80702   0.83168   0.35008   0.00000  Uiso   1.00
Cu487  Cu    0.78645   0.83333   0.25000   0.00000  Uiso   1.00
Cu488  Cu    0.88022   0.83334   0.25000   0.00000  Uiso   1.00
O489   O     0.79373   0.77321   0.24999   0.00000  Uiso   1.00
O490   O     0.87292   0.77322   0.24999   0.00000  Uiso   1.00
O491   O     0.81306   0.83334   0.17451   0.00000  Uiso   1.00
O492   O     0.89225   0.83335   0.17451   0.00000  Uiso   1.00
C493   C     0.83320   0.75404   0.25023   0.00000  Uiso   1.00
C494   C     0.85986   0.83285   0.14978   0.00000  Uiso   1.00
C495   C     0.92817   0.79697   0.01293   0.00000  Uiso   1.00
H496   H     0.93184   0.77030   0.41849   0.00000  Uiso   1.00
H497   H     0.96257   0.78242   0.49163   0.00000  Uiso   1.00
C498   C     0.87562   0.82793   0.09257   0.00000  Uiso   1.00
C499   C     0.74505   0.84859   0.43397   0.00000  Uiso   1.00
C500   C     0.73174   0.85548   0.48738   0.00000  Uiso   1.00
C501   C     0.76459   0.84713   0.01497   0.00000  Uiso   1.00
C502   C     0.81129   0.82981   0.48968   0.00000  Uiso   1.00
C503   C     0.82246   0.81869   0.43616   0.00000  Uiso   1.00
C504   C     0.84730   0.82310   0.01555   0.00000  Uiso   1.00
C505   C     0.89163   0.80262   0.48886   0.00000  Uiso   1.00
C506   C     0.89908   0.78761   0.43841   0.00000  Uiso   1.00
C507   C     0.86468   0.79486   0.41275   0.00000  Uiso   1.00
C508   C     0.84088   0.83638   0.06698   0.00000  Uiso   1.00
C509   C     0.92101   0.80994   0.06436   0.00000  Uiso   1.00
C510   C     0.79087   0.83146   0.40753   0.00000  Uiso   1.00
H511   H     0.80854   0.85297   0.08872   0.00000  Uiso   1.00
H512   H     0.71995   0.85793   0.41306   0.00000  Uiso   1.00
H513   H     0.75185   0.85399   0.05612   0.00000  Uiso   1.00
H514   H     0.69629   0.86880   0.00726   0.00000  Uiso   1.00
H515   H     0.87139   0.78085   0.37462   0.00000  Uiso   1.00
C516   C     0.87780   0.97881   0.23925   0.00000  Uiso   1.00
H517   H     0.91261   0.96282   0.22978   0.00000  Uiso   1.00
C518   C     0.87772   0.68810   0.23913   0.00000  Uiso   1.00
H519   H     0.91250   0.70429   0.22952   0.00000  Uiso   1.00
C520   C     0.83315   0.70942   0.25075   0.00000  Uiso   1.00
C521   C     0.78865   0.68784   0.26308   0.00000  Uiso   1.00
H522   H     0.75383   0.70381   0.27337   0.00000  Uiso   1.00
C523   C     0.78874   0.97855   0.26280   0.00000  Uiso   1.00
H524   H     0.75397   0.96235   0.27244   0.00000  Uiso   1.00
C525   C     0.83333   0.95724   0.25076   0.00000  Uiso   1.00
C526   C     0.96613   0.85898   0.28260   0.00000  Uiso   1.00
H527   H     0.94019   0.87956   0.30874   0.00000  Uiso   1.00
C528   C     0.68236   0.85890   0.28270   0.00000  Uiso   1.00
H529   H     0.69372   0.87938   0.30889   0.00000  Uiso   1.00
N530   N     0.71598   0.83332   0.24998   0.00000  Uiso   1.00
C531   C     0.70012   0.80756   0.21726   0.00000  Uiso   1.00
C532   C     0.98388   0.80765   0.21767   0.00000  Uiso   1.00
H533   H     0.97203   0.78699   0.19200   0.00000  Uiso   1.00
N534   N     0.95069   0.83335   0.24999   0.00000  Uiso   1.00
N535   N     0.95996   0.80431   0.08693   0.00000  Uiso   1.00
O536   O     0.97915   0.83630   0.10293   0.00000  Uiso   1.00
O537   O     0.98335   0.76943   0.08051   0.00000  Uiso   1.00
N538   N     0.73313   0.78009   0.18198   0.00000  Uiso   1.00
O539   O     0.73398   0.74178   0.19527   0.00000  Uiso   1.00
O540   O     0.74723   0.78889   0.13259   0.00000  Uiso   1.00
O541   O     0.12708   0.22678   0.75000   0.00000  Uiso   1.00
O542   O     0.20627   0.22679   0.75000   0.00000  Uiso   1.00
C543   C     0.16669   0.24596   0.75026   0.00000  Uiso   1.00
O544   O     0.10775   0.16665   0.82549   0.00000  Uiso   1.00
O545   O     0.18694   0.16666   0.82549   0.00000  Uiso   1.00
C546   C     0.14035   0.16501   0.85008   0.00000  Uiso   1.00
Cu547  Cu    0.11978   0.16666   0.75000   0.00000  Uiso   1.00
Cu548  Cu    0.21355   0.16667   0.75000   0.00000  Uiso   1.00
O549   O     0.12706   0.10654   0.74999   0.00000  Uiso   1.00
O550   O     0.20625   0.10655   0.74999   0.00000  Uiso   1.00
O551   O     0.14640   0.16667   0.67451   0.00000  Uiso   1.00
O552   O     0.22559   0.16668   0.67451   0.00000  Uiso   1.00
C553   C     0.16654   0.08737   0.75023   0.00000  Uiso   1.00
C554   C     0.19319   0.16618   0.64978   0.00000  Uiso   1.00
C555   C     0.26150   0.13031   0.51293   0.00000  Uiso   1.00
H556   H     0.26518   0.10363   0.91849   0.00000  Uiso   1.00
H557   H     0.29590   0.11576   0.99163   0.00000  Uiso   1.00
C558   C     0.20896   0.16127   0.59257   0.00000  Uiso   1.00
C559   C     0.07839   0.18193   0.93397   0.00000  Uiso   1.00
C560   C     0.06507   0.18881   0.98738   0.00000  Uiso   1.00
C561   C     0.09793   0.18046   0.51497   0.00000  Uiso   1.00
C562   C     0.14462   0.16315   0.98968   0.00000  Uiso   1.00
C563   C     0.15580   0.15203   0.93616   0.00000  Uiso   1.00
C564   C     0.18063   0.15643   0.51555   0.00000  Uiso   1.00
C565   C     0.22496   0.13595   0.98886   0.00000  Uiso   1.00
C566   C     0.23241   0.12094   0.93841   0.00000  Uiso   1.00
C567   C     0.19801   0.12819   0.91275   0.00000  Uiso   1.00
C568   C     0.17421   0.16971   0.56698   0.00000  Uiso   1.00
C569   C     0.25434   0.14328   0.56436   0.00000  Uiso   1.00
C570   C     0.12420   0.16480   0.90753   0.00000  Uiso   1.00
H571   H     0.14188   0.18630   0.58872   0.00000  Uiso   1.00
H572   H     0.05328   0.19127   0.91306   0.00000  Uiso   1.00
H573   H     0.08519   0.18732   0.55612   0.00000  Uiso   1.00
H574   H     0.02962   0.20213   0.50726   0.00000  Uiso   1.00
H575   H     0.20473   0.11418   0.87462   0.00000  Uiso   1.00
C576   C     0.21114   0.31215   0.73925   0.00000  Uiso   1.00
H577   H     0.24594   0.29615   0.72978   0.00000  Uiso   1.00
C578   C     0.21106   0.02144   0.73913   0.00000  Uiso   1.00
H579   H     0.24584   0.03763   0.72952   0.00000  Uiso   1.00
C580   C     0.16648   0.04275   0.75075   0.00000  Uiso   1.00
C581   C     0.12199   0.02117   0.76308   0.00000  Uiso   1.00
H582   H     0.08716   0.03714   0.77337   0.00000  Uiso   1.00
C583   C     0.12208   0.31188   0.76280   0.00000  Uiso   1.00
H584   H     0.08730   0.29568   0.77244   0.00000  Uiso   1.00
C585   C     0.16666   0.29057   0.75076   0.00000  Uiso   1.00
C586   C     0.29947   0.19231   0.78260   0.00000  Uiso   1.00
H587   H     0.27352   0.21289   0.80874   0.00000  Uiso   1.00
C588   C     0.01569   0.19223   0.78270   0.00000  Uiso   1.00
H589   H     0.02705   0.21271   0.80889   0.00000  Uiso   1.00
N590   N     0.04931   0.16666   0.74998   0.00000  Uiso   1.00
C591   C     0.03346   0.14089   0.71726   0.00000  Uiso   1.00
C592   C     0.31721   0.14098   0.71767   0.00000  Uiso   1.00
H593   H     0.30536   0.12032   0.69200   0.00000  Uiso   1.00
N594   N     0.28402   0.16669   0.74999   0.00000  Uiso   1.00
N595   N     0.29329   0.13764   0.58693   0.00000  Uiso   1.00
O596   O     0.31248   0.16963   0.60293   0.00000  Uiso   1.00
O597   O     0.31669   0.10277   0.58051   0.00000  Uiso   1.00
N598   N     0.06646   0.11343   0.68198   0.00000  Uiso   1.00
O599   O     0.06731   0.07511   0.69527   0.00000  Uiso   1.00
O600   O     0.08056   0.12222   0.63259   0.00000  Uiso   1.00
O601   O     0.46042   0.22678   0.75000   0.00000  Uiso   1.00
O602   O     0.53961   0.22679   0.75000   0.00000  Uiso   1.00
C603   C     0.50002   0.24596   0.75026   0.00000  Uiso   1.00
O604   O     0.44108   0.16665   0.82549   0.00000  Uiso   1.00
O605   O     0.52027   0.16666   0.82549   0.00000  Uiso   1.00
C606   C     0.47369   0.16501   0.85008   0.00000  Uiso   1.00
Cu607  Cu    0.45311   0.16666   0.75000   0.00000  Uiso   1.00
Cu608  Cu    0.54689   0.16667   0.75000   0.00000  Uiso   1.00
O609   O     0.46039   0.10654   0.74999   0.00000  Uiso   1.00
O610   O     0.53958   0.10655   0.74999   0.00000  Uiso   1.00
O611   O     0.47973   0.16667   0.67451   0.00000  Uiso   1.00
O612   O     0.55892   0.16668   0.67451   0.00000  Uiso   1.00
C613   C     0.49987   0.08737   0.75023   0.00000  Uiso   1.00
C614   C     0.52653   0.16618   0.64978   0.00000  Uiso   1.00
C615   C     0.59484   0.13031   0.51293   0.00000  Uiso   1.00
H616   H     0.59851   0.10363   0.91849   0.00000  Uiso   1.00
H617   H     0.62923   0.11576   0.99163   0.00000  Uiso   1.00
C618   C     0.54229   0.16127   0.59257   0.00000  Uiso   1.00
C619   C     0.41172   0.18193   0.93397   0.00000  Uiso   1.00
C620   C     0.39841   0.18881   0.98738   0.00000  Uiso   1.00
C621   C     0.43126   0.18046   0.51497   0.00000  Uiso   1.00
C622   C     0.47795   0.16315   0.98968   0.00000  Uiso   1.00
C623   C     0.48913   0.15203   0.93616   0.00000  Uiso   1.00
C624   C     0.51396   0.15643   0.51555   0.00000  Uiso   1.00
C625   C     0.55830   0.13595   0.98886   0.00000  Uiso   1.00
C626   C     0.56575   0.12094   0.93841   0.00000  Uiso   1.00
C627   C     0.53134   0.12819   0.91275   0.00000  Uiso   1.00
C628   C     0.50754   0.16971   0.56698   0.00000  Uiso   1.00
C629   C     0.58767   0.14328   0.56436   0.00000  Uiso   1.00
C630   C     0.45754   0.16480   0.90753   0.00000  Uiso   1.00
H631   H     0.47521   0.18630   0.58872   0.00000  Uiso   1.00
H632   H     0.38662   0.19127   0.91306   0.00000  Uiso   1.00
H633   H     0.41852   0.18732   0.55612   0.00000  Uiso   1.00
H634   H     0.36295   0.20213   0.50726   0.00000  Uiso   1.00
H635   H     0.53806   0.11418   0.87462   0.00000  Uiso   1.00
C636   C     0.54447   0.31215   0.73925   0.00000  Uiso   1.00
H637   H     0.57927   0.29615   0.72978   0.00000  Uiso   1.00
C638   C     0.54439   0.02144   0.73913   0.00000  Uiso   1.00
H639   H     0.57917   0.03763   0.72952   0.00000  Uiso   1.00
C640   C     0.49981   0.04275   0.75075   0.00000  Uiso   1.00
C641   C     0.45532   0.02117   0.76308   0.00000  Uiso   1.00
H642   H     0.42050   0.03714   0.77337   0.00000  Uiso   1.00
C643   C     0.45541   0.31188   0.76280   0.00000  Uiso   1.00
H644   H     0.42064   0.29568   0.77244   0.00000  Uiso   1.00
C645   C     0.49999   0.29057   0.75076   0.00000  Uiso   1.00
C646   C     0.63280   0.19231   0.78260   0.00000  Uiso   1.00
H647   H     0.60686   0.21289   0.80874   0.00000  Uiso   1.00
C648   C     0.34903   0.19223   0.78270   0.00000  Uiso   1.00
H649   H     0.36038   0.21271   0.80889   0.00000  Uiso   1.00
N650   N     0.38265   0.16666   0.74998   0.00000  Uiso   1.00
C651   C     0.36679   0.14089   0.71726   0.00000  Uiso   1.00
C652   C     0.65054   0.14098   0.71767   0.00000  Uiso   1.00
H653   H     0.63869   0.12032   0.69200   0.00000  Uiso   1.00
N654   N     0.61735   0.16669   0.74999   0.00000  Uiso   1.00
N655   N     0.62663   0.13764   0.58693   0.00000  Uiso   1.00
O656   O     0.64582   0.16963   0.60293   0.00000  Uiso   1.00
O657   O     0.65002   0.10277   0.58051   0.00000  Uiso   1.00
N658   N     0.39980   0.11343   0.68198   0.00000  Uiso   1.00
O659   O     0.40065   0.07511   0.69527   0.00000  Uiso   1.00
O660   O     0.41389   0.12222   0.63259   0.00000  Uiso   1.00
O661   O     0.79375   0.22678   0.75000   0.00000  Uiso   1.00
O662   O     0.87294   0.22679   0.75000   0.00000  Uiso   1.00
C663   C     0.83336   0.24596   0.75026   0.00000  Uiso   1.00
O664   O     0.77441   0.16665   0.82549   0.00000  Uiso   1.00
O665   O     0.85360   0.16666   0.82549   0.00000  Uiso   1.00
C666   C     0.80702   0.16501   0.85008   0.00000  Uiso   1.00
Cu667  Cu    0.78645   0.16666   0.75000   0.00000  Uiso   1.00
Cu668  Cu    0.88022   0.16667   0.75000   0.00000  Uiso   1.00
O669   O     0.79373   0.10654   0.74999   0.00000  Uiso   1.00
O670   O     0.87292   0.10655   0.74999   0.00000  Uiso   1.00
O671   O     0.81306   0.16667   0.67451   0.00000  Uiso   1.00
O672   O     0.89225   0.16668   0.67451   0.00000  Uiso   1.00
C673   C     0.83320   0.08737   0.75023   0.00000  Uiso   1.00
C674   C     0.85986   0.16618   0.64978   0.00000  Uiso   1.00
C675   C     0.92817   0.13031   0.51293   0.00000  Uiso   1.00
H676   H     0.93184   0.10363   0.91849   0.00000  Uiso   1.00
H677   H     0.96257   0.11576   0.99163   0.00000  Uiso   1.00
C678   C     0.87562   0.16127   0.59257   0.00000  Uiso   1.00
C679   C     0.74505   0.18193   0.93397   0.00000  Uiso   1.00
C680   C     0.73174   0.18881   0.98738   0.00000  Uiso   1.00
C681   C     0.76459   0.18046   0.51497   0.00000  Uiso   1.00
C682   C     0.81129   0.16315   0.98968   0.00000  Uiso   1.00
C683   C     0.82246   0.15203   0.93616   0.00000  Uiso   1.00
C684   C     0.84730   0.15643   0.51555   0.00000  Uiso   1.00
C685   C     0.89163   0.13595   0.98886   0.00000  Uiso   1.00
C686   C     0.89908   0.12094   0.93841   0.00000  Uiso   1.00
C687   C     0.86468   0.12819   0.91275   0.00000  Uiso   1.00
C688   C     0.84088   0.16971   0.56698   0.00000  Uiso   1.00
C689   C     0.92101   0.14328   0.56436   0.00000  Uiso   1.00
C690   C     0.79087   0.16480   0.90753   0.00000  Uiso   1.00
H691   H     0.80854   0.18630   0.58872   0.00000  Uiso   1.00
H692   H     0.71995   0.19127   0.91306   0.00000  Uiso   1.00
H693   H     0.75185   0.18732   0.55612   0.00000  Uiso   1.00
H694   H     0.69629   0.20213   0.50726   0.00000  Uiso   1.00
H695   H     0.87139   0.11418   0.87462   0.00000  Uiso   1.00
C696   C     0.87780   0.31215   0.73925   0.00000  Uiso   1.00
H697   H     0.91261   0.29615   0.72978   0.00000  Uiso   1.00
C698   C     0.87772   0.02144   0.73913   0.00000  Uiso   1.00
H699   H     0.91250   0.03763   0.72952   0.00000  Uiso   1.00
C700   C     0.83315   0.04275   0.75075   0.00000  Uiso   1.00
C701   C     0.78865   0.02117   0.76308   0.00000  Uiso   1.00
H702   H     0.75383   0.03714   0.77337   0.00000  Uiso   1.00
C703   C     0.78874   0.31188   0.76280   0.00000  Uiso   1.00
H704   H     0.75397   0.29568   0.77244   0.00000  Uiso   1.00
C705   C     0.83333   0.29057   0.75076   0.00000  Uiso   1.00
C706   C     0.96613   0.19231   0.78260   0.00000  Uiso   1.00
H707   H     0.94019   0.21289   0.80874   0.00000  Uiso   1.00
C708   C     0.68236   0.19223   0.78270   0.00000  Uiso   1.00
H709   H     0.69372   0.21271   0.80889   0.00000  Uiso   1.00
N710   N     0.71598   0.16666   0.74998   0.00000  Uiso   1.00
C711   C     0.70012   0.14089   0.71726   0.00000  Uiso   1.00
C712   C     0.98388   0.14098   0.71767   0.00000  Uiso   1.00
H713   H     0.97203   0.12032   0.69200   0.00000  Uiso   1.00
N714   N     0.95069   0.16669   0.74999   0.00000  Uiso   1.00
N715   N     0.95996   0.13764   0.58693   0.00000  Uiso   1.00
O716   O     0.97915   0.16963   0.60293   0.00000  Uiso   1.00
O717   O     0.98335   0.10277   0.58051   0.00000  Uiso   1.00
N718   N     0.73313   0.11343   0.68198   0.00000  Uiso   1.00
O719   O     0.73398   0.07511   0.69527   0.00000  Uiso   1.00
O720   O     0.74723   0.12222   0.63259   0.00000  Uiso   1.00
O721   O     0.12708   0.56011   0.75000   0.00000  Uiso   1.00
O722   O     0.20627   0.56012   0.75000   0.00000  Uiso   1.00
C723   C     0.16669   0.57929   0.75026   0.00000  Uiso   1.00
O724   O     0.10775   0.49998   0.82549   0.00000  Uiso   1.00
O725   O     0.18694   0.49999   0.82549   0.00000  Uiso   1.00
C726   C     0.14035   0.49834   0.85008   0.00000  Uiso   1.00
Cu727  Cu    0.11978   0.49999   0.75000   0.00000  Uiso   1.00
Cu728  Cu    0.21355   0.50001   0.75000   0.00000  Uiso   1.00
O729   O     0.12706   0.43988   0.74999   0.00000  Uiso   1.00
O730   O     0.20625   0.43989   0.74999   0.00000  Uiso   1.00
O731   O     0.14640   0.50001   0.67451   0.00000  Uiso   1.00
O732   O     0.22559   0.50002   0.67451   0.00000  Uiso   1.00
C733   C     0.16654   0.42071   0.75023   0.00000  Uiso   1.00
C734   C     0.19319   0.49952   0.64978   0.00000  Uiso   1.00
C735   C     0.26150   0.46364   0.51293   0.00000  Uiso   1.00
H736   H     0.26518   0.43696   0.91849   0.00000  Uiso   1.00
H737   H     0.29590   0.44909   0.99163   0.00000  Uiso   1.00
C738   C     0.20896   0.49460   0.59257   0.00000  Uiso   1.00
C739   C     0.07839   0.51526   0.93397   0.00000  Uiso   1.00
C740   C     0.06507   0.52214   0.98738   0.00000  Uiso   1.00
C741   C     0.09793   0.51379   0.51497   0.00000  Uiso   1.00
C742   C     0.14462   0.49648   0.98968   0.00000  Uiso   1.00
C743   C     0.15580   0.48536   0.93616   0.00000  Uiso   1.00
C744   C     0.18063   0.48976   0.51555   0.00000  Uiso   1.00
C745   C     0.22496   0.46928   0.98886   0.00000  Uiso   1.00
C746   C     0.23241   0.45428   0.93841   0.00000  Uiso   1.00
C747   C     0.19801   0.46152   0.91275   0.00000  Uiso   1.00
C748   C     0.17421   0.50304   0.56698   0.00000  Uiso   1.00
C749   C     0.25434   0.47661   0.56436   0.00000  Uiso   1.00
C750   C     0.12420   0.49813   0.90753   0.00000  Uiso   1.00
H751   H     0.14188   0.51964   0.58872   0.00000  Uiso   1.00
H752   H     0.05328   0.52460   0.91306   0.00000  Uiso   1.00
H753   H     0.08519   0.52066   0.55612   0.00000  Uiso   1.00
H754   H     0.02962   0.53547   0.50726   0.00000  Uiso   1.00
H755   H     0.20473   0.44751   0.87462   0.00000  Uiso   1.00
C756   C     0.21114   0.64548   0.73925   0.00000  Uiso   1.00
H757   H     0.24594   0.62948   0.72978   0.00000  Uiso   1.00
C758   C     0.21106   0.35477   0.73913   0.00000  Uiso   1.00
H759   H     0.24584   0.37096   0.72952   0.00000  Uiso   1.00
C760   C     0.16648   0.37609   0.75075   0.00000  Uiso   1.00
C761   C     0.12199   0.35450   0.76308   0.00000  Uiso   1.00
H762   H     0.08716   0.37047   0.77337   0.00000  Uiso   1.00
C763   C     0.12208   0.64522   0.76280   0.00000  Uiso   1.00
H764   H     0.08730   0.62902   0.77244   0.00000  Uiso   1.00
C765   C     0.16666   0.62390   0.75076   0.00000  Uiso   1.00
C766   C     0.29947   0.52565   0.78260   0.00000  Uiso   1.00
H767   H     0.27352   0.54623   0.80874   0.00000  Uiso   1.00
C768   C     0.01569   0.52556   0.78270   0.00000  Uiso   1.00
H769   H     0.02705   0.54604   0.80889   0.00000  Uiso   1.00
N770   N     0.04931   0.49999   0.74998   0.00000  Uiso   1.00
C771   C     0.03346   0.47422   0.71726   0.00000  Uiso   1.00
C772   C     0.31721   0.47431   0.71767   0.00000  Uiso   1.00
H773   H     0.30536   0.45366   0.69200   0.00000  Uiso   1.00
N774   N     0.28402   0.50002   0.74999   0.00000  Uiso   1.00
N775   N     0.29329   0.47098   0.58693   0.00000  Uiso   1.00
O776   O     0.31248   0.50296   0.60293   0.00000  Uiso   1.00
O777   O     0.31669   0.43610   0.58051   0.00000  Uiso   1.00
N778   N     0.06646   0.44676   0.68198   0.00000  Uiso   1.00
O779   O     0.06731   0.40845   0.69527   0.00000  Uiso   1.00
O780   O     0.08056   0.45556   0.63259   0.00000  Uiso   1.00
O781   O     0.46042   0.56011   0.75000   0.00000  Uiso   1.00
O782   O     0.53961   0.56012   0.75000   0.00000  Uiso   1.00
C783   C     0.50002   0.57929   0.75026   0.00000  Uiso   1.00
O784   O     0.44108   0.49998   0.82549   0.00000  Uiso   1.00
O785   O     0.52027   0.49999   0.82549   0.00000  Uiso   1.00
C786   C     0.47369   0.49834   0.85008   0.00000  Uiso   1.00
Cu787  Cu    0.45311   0.49999   0.75000   0.00000  Uiso   1.00
Cu788  Cu    0.54689   0.50001   0.75000   0.00000  Uiso   1.00
O789   O     0.46039   0.43988   0.74999   0.00000  Uiso   1.00
O790   O     0.53958   0.43989   0.74999   0.00000  Uiso   1.00
O791   O     0.47973   0.50001   0.67451   0.00000  Uiso   1.00
O792   O     0.55892   0.50002   0.67451   0.00000  Uiso   1.00
C793   C     0.49987   0.42071   0.75023   0.00000  Uiso   1.00
C794   C     0.52653   0.49952   0.64978   0.00000  Uiso   1.00
C795   C     0.59484   0.46364   0.51293   0.00000  Uiso   1.00
H796   H     0.59851   0.43696   0.91849   0.00000  Uiso   1.00
H797   H     0.62923   0.44909   0.99163   0.00000  Uiso   1.00
C798   C     0.54229   0.49460   0.59257   0.00000  Uiso   1.00
C799   C     0.41172   0.51526   0.93397   0.00000  Uiso   1.00
C800   C     0.39841   0.52214   0.98738   0.00000  Uiso   1.00
C801   C     0.43126   0.51379   0.51497   0.00000  Uiso   1.00
C802   C     0.47795   0.49648   0.98968   0.00000  Uiso   1.00
C803   C     0.48913   0.48536   0.93616   0.00000  Uiso   1.00
C804   C     0.51396   0.48976   0.51555   0.00000  Uiso   1.00
C805   C     0.55830   0.46928   0.98886   0.00000  Uiso   1.00
C806   C     0.56575   0.45428   0.93841   0.00000  Uiso   1.00
C807   C     0.53134   0.46152   0.91275   0.00000  Uiso   1.00
C808   C     0.50754   0.50304   0.56698   0.00000  Uiso   1.00
C809   C     0.58767   0.47661   0.56436   0.00000  Uiso   1.00
C810   C     0.45754   0.49813   0.90753   0.00000  Uiso   1.00
H811   H     0.47521   0.51964   0.58872   0.00000  Uiso   1.00
H812   H     0.38662   0.52460   0.91306   0.00000  Uiso   1.00
H813   H     0.41852   0.52066   0.55612   0.00000  Uiso   1.00
H814   H     0.36295   0.53547   0.50726   0.00000  Uiso   1.00
H815   H     0.53806   0.44751   0.87462   0.00000  Uiso   1.00
C816   C     0.54447   0.64548   0.73925   0.00000  Uiso   1.00
H817   H     0.57927   0.62948   0.72978   0.00000  Uiso   1.00
C818   C     0.54439   0.35477   0.73913   0.00000  Uiso   1.00
H819   H     0.57917   0.37096   0.72952   0.00000  Uiso   1.00
C820   C     0.49981   0.37609   0.75075   0.00000  Uiso   1.00
C821   C     0.45532   0.35450   0.76308   0.00000  Uiso   1.00
H822   H     0.42050   0.37047   0.77337   0.00000  Uiso   1.00
C823   C     0.45541   0.64522   0.76280   0.00000  Uiso   1.00
H824   H     0.42064   0.62902   0.77244   0.00000  Uiso   1.00
C825   C     0.49999   0.62390   0.75076   0.00000  Uiso   1.00
C826   C     0.63280   0.52565   0.78260   0.00000  Uiso   1.00
H827   H     0.60686   0.54623   0.80874   0.00000  Uiso   1.00
C828   C     0.34903   0.52556   0.78270   0.00000  Uiso   1.00
H829   H     0.36038   0.54604   0.80889   0.00000  Uiso   1.00
N830   N     0.38265   0.49999   0.74998   0.00000  Uiso   1.00
C831   C     0.36679   0.47422   0.71726   0.00000  Uiso   1.00
C832   C     0.65054   0.47431   0.71767   0.00000  Uiso   1.00
H833   H     0.63869   0.45366   0.69200   0.00000  Uiso   1.00
N834   N     0.61735   0.50002   0.74999   0.00000  Uiso   1.00
N835   N     0.62663   0.47098   0.58693   0.00000  Uiso   1.00
O836   O     0.64582   0.50296   0.60293   0.00000  Uiso   1.00
O837   O     0.65002   0.43610   0.58051   0.00000  Uiso   1.00
N838   N     0.39980   0.44676   0.68198   0.00000  Uiso   1.00
O839   O     0.40065   0.40845   0.69527   0.00000  Uiso   1.00
O840   O     0.41389   0.45556   0.63259   0.00000  Uiso   1.00
O841   O     0.79375   0.56011   0.75000   0.00000  Uiso   1.00
O842   O     0.87294   0.56012   0.75000   0.00000  Uiso   1.00
C843   C     0.83336   0.57929   0.75026   0.00000  Uiso   1.00
O844   O     0.77441   0.49998   0.82549   0.00000  Uiso   1.00
O845   O     0.85360   0.49999   0.82549   0.00000  Uiso   1.00
C846   C     0.80702   0.49834   0.85008   0.00000  Uiso   1.00
Cu847  Cu    0.78645   0.49999   0.75000   0.00000  Uiso   1.00
Cu848  Cu    0.88022   0.50001   0.75000   0.00000  Uiso   1.00
O849   O     0.79373   0.43988   0.74999   0.00000  Uiso   1.00
O850   O     0.87292   0.43989   0.74999   0.00000  Uiso   1.00
O851   O     0.81306   0.50001   0.67451   0.00000  Uiso   1.00
O852   O     0.89225   0.50002   0.67451   0.00000  Uiso   1.00
C853   C     0.83320   0.42071   0.75023   0.00000  Uiso   1.00
C854   C     0.85986   0.49952   0.64978   0.00000  Uiso   1.00
C855   C     0.92817   0.46364   0.51293   0.00000  Uiso   1.00
H856   H     0.93184   0.43696   0.91849   0.00000  Uiso   1.00
H857   H     0.96257   0.44909   0.99163   0.00000  Uiso   1.00
C858   C     0.87562   0.49460   0.59257   0.00000  Uiso   1.00
C859   C     0.74505   0.51526   0.93397   0.00000  Uiso   1.00
C860   C     0.73174   0.52214   0.98738   0.00000  Uiso   1.00
C861   C     0.76459   0.51379   0.51497   0.00000  Uiso   1.00
C862   C     0.81129   0.49648   0.98968   0.00000  Uiso   1.00
C863   C     0.82246   0.48536   0.93616   0.00000  Uiso   1.00
C864   C     0.84730   0.48976   0.51555   0.00000  Uiso   1.00
C865   C     0.89163   0.46928   0.98886   0.00000  Uiso   1.00
C866   C     0.89908   0.45428   0.93841   0.00000  Uiso   1.00
C867   C     0.86468   0.46152   0.91275   0.00000  Uiso   1.00
C868   C     0.84088   0.50304   0.56698   0.00000  Uiso   1.00
C869   C     0.92101   0.47661   0.56436   0.00000  Uiso   1.00
C870   C     0.79087   0.49813   0.90753   0.00000  Uiso   1.00
H871   H     0.80854   0.51964   0.58872   0.00000  Uiso   1.00
H872   H     0.71995   0.52460   0.91306   0.00000  Uiso   1.00
H873   H     0.75185   0.52066   0.55612   0.00000  Uiso   1.00
H874   H     0.69629   0.53547   0.50726   0.00000  Uiso   1.00
H875   H     0.87139   0.44751   0.87462   0.00000  Uiso   1.00
C876   C     0.87780   0.64548   0.73925   0.00000  Uiso   1.00
H877   H     0.91261   0.62948   0.72978   0.00000  Uiso   1.00
C878   C     0.87772   0.35477   0.73913   0.00000  Uiso   1.00
H879   H     0.91250   0.37096   0.72952   0.00000  Uiso   1.00
C880   C     0.83315   0.37609   0.75075   0.00000  Uiso   1.00
C881   C     0.78865   0.35450   0.76308   0.00000  Uiso   1.00
H882   H     0.75383   0.37047   0.77337   0.00000  Uiso   1.00
C883   C     0.78874   0.64522   0.76280   0.00000  Uiso   1.00
H884   H     0.75397   0.62902   0.77244   0.00000  Uiso   1.00
C885   C     0.83333   0.62390   0.75076   0.00000  Uiso   1.00
C886   C     0.96613   0.52565   0.78260   0.00000  Uiso   1.00
H887   H     0.94019   0.54623   0.80874   0.00000  Uiso   1.00
C888   C     0.68236   0.52556   0.78270   0.00000  Uiso   1.00
H889   H     0.69372   0.54604   0.80889   0.00000  Uiso   1.00
N890   N     0.71598   0.49999   0.74998   0.00000  Uiso   1.00
C891   C     0.70012   0.47422   0.71726   0.00000  Uiso   1.00
C892   C     0.98388   0.47431   0.71767   0.00000  Uiso   1.00
H893   H     0.97203   0.45366   0.69200   0.00000  Uiso   1.00
N894   N     0.95069   0.50002   0.74999   0.00000  Uiso   1.00
N895   N     0.95996   0.47098   0.58693   0.00000  Uiso   1.00
O896   O     0.97915   0.50296   0.60293   0.00000  Uiso   1.00
O897   O     0.98335   0.43610   0.58051   0.00000  Uiso   1.00
N898   N     0.73313   0.44676   0.68198   0.00000  Uiso   1.00
O899   O     0.73398   0.40845   0.69527   0.00000  Uiso   1.00
O900   O     0.74723   0.45556   0.63259   0.00000  Uiso   1.00
O901   O     0.12708   0.89345   0.75000   0.00000  Uiso   1.00
O902   O     0.20627   0.89346   0.75000   0.00000  Uiso   1.00
C903   C     0.16669   0.91262   0.75026   0.00000  Uiso   1.00
O904   O     0.10775   0.83332   0.82549   0.00000  Uiso   1.00
O905   O     0.18694   0.83333   0.82549   0.00000  Uiso   1.00
C906   C     0.14035   0.83168   0.85008   0.00000  Uiso   1.00
Cu907  Cu    0.11978   0.83333   0.75000   0.00000  Uiso   1.00
Cu908  Cu    0.21355   0.83334   0.75000   0.00000  Uiso   1.00
O909   O     0.12706   0.77321   0.74999   0.00000  Uiso   1.00
O910   O     0.20625   0.77322   0.74999   0.00000  Uiso   1.00
O911   O     0.14640   0.83334   0.67451   0.00000  Uiso   1.00
O912   O     0.22559   0.83335   0.67451   0.00000  Uiso   1.00
C913   C     0.16654   0.75404   0.75023   0.00000  Uiso   1.00
C914   C     0.19319   0.83285   0.64978   0.00000  Uiso   1.00
C915   C     0.26150   0.79697   0.51293   0.00000  Uiso   1.00
H916   H     0.26518   0.77030   0.91849   0.00000  Uiso   1.00
H917   H     0.29590   0.78242   0.99163   0.00000  Uiso   1.00
C918   C     0.20896   0.82793   0.59257   0.00000  Uiso   1.00
C919   C     0.07839   0.84859   0.93397   0.00000  Uiso   1.00
C920   C     0.06507   0.85548   0.98738   0.00000  Uiso   1.00
C921   C     0.09793   0.84713   0.51497   0.00000  Uiso   1.00
C922   C     0.14462   0.82981   0.98968   0.00000  Uiso   1.00
C923   C     0.15580   0.81869   0.93616   0.00000  Uiso   1.00
C924   C     0.18063   0.82310   0.51555   0.00000  Uiso   1.00
C925   C     0.22496   0.80262   0.98886   0.00000  Uiso   1.00
C926   C     0.23241   0.78761   0.93841   0.00000  Uiso   1.00
C927   C     0.19801   0.79486   0.91275   0.00000  Uiso   1.00
C928   C     0.17421   0.83638   0.56698   0.00000  Uiso   1.00
C929   C     0.25434   0.80994   0.56436   0.00000  Uiso   1.00
C930   C     0.12420   0.83146   0.90753   0.00000  Uiso   1.00
H931   H     0.14188   0.85297   0.58872   0.00000  Uiso   1.00
H932   H     0.05328   0.85793   0.91306   0.00000  Uiso   1.00
H933   H     0.08519   0.85399   0.55612   0.00000  Uiso   1.00
H934   H     0.02962   0.86880   0.50726   0.00000  Uiso   1.00
H935   H     0.20473   0.78085   0.87462   0.00000  Uiso   1.00
C936   C     0.21114   0.97881   0.73925   0.00000  Uiso   1.00
H937   H     0.24594   0.96282   0.72978   0.00000  Uiso   1.00
C938   C     0.21106   0.68810   0.73913   0.00000  Uiso   1.00
H939   H     0.24584   0.70429   0.72952   0.00000  Uiso   1.00
C940   C     0.16648   0.70942   0.75075   0.00000  Uiso   1.00
C941   C     0.12199   0.68784   0.76308   0.00000  Uiso   1.00
H942   H     0.08716   0.70381   0.77337   0.00000  Uiso   1.00
C943   C     0.12208   0.97855   0.76280   0.00000  Uiso   1.00
H944   H     0.08730   0.96235   0.77244   0.00000  Uiso   1.00
C945   C     0.16666   0.95724   0.75076   0.00000  Uiso   1.00
C946   C     0.29947   0.85898   0.78260   0.00000  Uiso   1.00
H947   H     0.27352   0.87956   0.80874   0.00000  Uiso   1.00
C948   C     0.01569   0.85890   0.78270   0.00000  Uiso   1.00
H949   H     0.02705   0.87938   0.80889   0.00000  Uiso   1.00
N950   N     0.04931   0.83332   0.74998   0.00000  Uiso   1.00
C951   C     0.03346   0.80756   0.71726   0.00000  Uiso   1.00
C952   C     0.31721   0.80765   0.71767   0.00000  Uiso   1.00
H953   H     0.30536   0.78699   0.69200   0.00000  Uiso   1.00
N954   N     0.28402   0.83335   0.74999   0.00000  Uiso   1.00
N955   N     0.29329   0.80431   0.58693   0.00000  Uiso   1.00
O956   O     0.31248   0.83630   0.60293   0.00000  Uiso   1.00
O957   O     0.31669   0.76943   0.58051   0.00000  Uiso   1.00
N958   N     0.06646   0.78009   0.68198   0.00000  Uiso   1.00
O959   O     0.06731   0.74178   0.69527   0.00000  Uiso   1.00
O960   O     0.08056   0.78889   0.63259   0.00000  Uiso   1.00
O961   O     0.46042   0.89345   0.75000   0.00000  Uiso   1.00
O962   O     0.53961   0.89346   0.75000   0.00000  Uiso   1.00
C963   C     0.50002   0.91262   0.75026   0.00000  Uiso   1.00
O964   O     0.44108   0.83332   0.82549   0.00000  Uiso   1.00
O965   O     0.52027   0.83333   0.82549   0.00000  Uiso   1.00
C966   C     0.47369   0.83168   0.85008   0.00000  Uiso   1.00
Cu967  Cu    0.45311   0.83333   0.75000   0.00000  Uiso   1.00
Cu968  Cu    0.54689   0.83334   0.75000   0.00000  Uiso   1.00
O969   O     0.46039   0.77321   0.74999   0.00000  Uiso   1.00
O970   O     0.53958   0.77322   0.74999   0.00000  Uiso   1.00
O971   O     0.47973   0.83334   0.67451   0.00000  Uiso   1.00
O972   O     0.55892   0.83335   0.67451   0.00000  Uiso   1.00
C973   C     0.49987   0.75404   0.75023   0.00000  Uiso   1.00
C974   C     0.52653   0.83285   0.64978   0.00000  Uiso   1.00
C975   C     0.59484   0.79697   0.51293   0.00000  Uiso   1.00
H976   H     0.59851   0.77030   0.91849   0.00000  Uiso   1.00
H977   H     0.62923   0.78242   0.99163   0.00000  Uiso   1.00
C978   C     0.54229   0.82793   0.59257   0.00000  Uiso   1.00
C979   C     0.41172   0.84859   0.93397   0.00000  Uiso   1.00
C980   C     0.39841   0.85548   0.98738   0.00000  Uiso   1.00
C981   C     0.43126   0.84713   0.51497   0.00000  Uiso   1.00
C982   C     0.47795   0.82981   0.98968   0.00000  Uiso   1.00
C983   C     0.48913   0.81869   0.93616   0.00000  Uiso   1.00
C984   C     0.51396   0.82310   0.51555   0.00000  Uiso   1.00
C985   C     0.55830   0.80262   0.98886   0.00000  Uiso   1.00
C986   C     0.56575   0.78761   0.93841   0.00000  Uiso   1.00
C987   C     0.53134   0.79486   0.91275   0.00000  Uiso   1.00
C988   C     0.50754   0.83638   0.56698   0.00000  Uiso   1.00
C989   C     0.58767   0.80994   0.56436   0.00000  Uiso   1.00
C990   C     0.45754   0.83146   0.90753   0.00000  Uiso   1.00
H991   H     0.47521   0.85297   0.58872   0.00000  Uiso   1.00
H992   H     0.38662   0.85793   0.91306   0.00000  Uiso   1.00
H993   H     0.41852   0.85399   0.55612   0.00000  Uiso   1.00
H994   H     0.36295   0.86880   0.50726   0.00000  Uiso   1.00
H995   H     0.53806   0.78085   0.87462   0.00000  Uiso   1.00
C996   C     0.54447   0.97881   0.73925   0.00000  Uiso   1.00
H997   H     0.57927   0.96282   0.72978   0.00000  Uiso   1.00
C998   C     0.54439   0.68810   0.73913   0.00000  Uiso   1.00
H999   H     0.57917   0.70429   0.72952   0.00000  Uiso   1.00
C1000  C     0.49981   0.70942   0.75075   0.00000  Uiso   1.00
C1001  C     0.45532   0.68784   0.76308   0.00000  Uiso   1.00
H1002  H     0.42050   0.70381   0.77337   0.00000  Uiso   1.00
C1003  C     0.45541   0.97855   0.76280   0.00000  Uiso   1.00
H1004  H     0.42064   0.96235   0.77244   0.00000  Uiso   1.00
C1005  C     0.49999   0.95724   0.75076   0.00000  Uiso   1.00
C1006  C     0.63280   0.85898   0.78260   0.00000  Uiso   1.00
H1007  H     0.60686   0.87956   0.80874   0.00000  Uiso   1.00
C1008  C     0.34903   0.85890   0.78270   0.00000  Uiso   1.00
H1009  H     0.36038   0.87938   0.80889   0.00000  Uiso   1.00
N1010  N     0.38265   0.83332   0.74998   0.00000  Uiso   1.00
C1011  C     0.36679   0.80756   0.71726   0.00000  Uiso   1.00
C1012  C     0.65054   0.80765   0.71767   0.00000  Uiso   1.00
H1013  H     0.63869   0.78699   0.69200   0.00000  Uiso   1.00
N1014  N     0.61735   0.83335   0.74999   0.00000  Uiso   1.00
N1015  N     0.62663   0.80431   0.58693   0.00000  Uiso   1.00
O1016  O     0.64582   0.83630   0.60293   0.00000  Uiso   1.00
O1017  O     0.65002   0.76943   0.58051   0.00000  Uiso   1.00
N1018  N     0.39980   0.78009   0.68198   0.00000  Uiso   1.00
O1019  O     0.40065   0.74178   0.69527   0.00000  Uiso   1.00
O1020  O     0.41389   0.78889   0.63259   0.00000  Uiso   1.00
O1021  O     0.79375   0.89345   0.75000   0.00000  Uiso   1.00
O1022  O     0.87294   0.89346   0.75000   0.00000  Uiso   1.00
C1023  C     0.83336   0.91262   0.75026   0.00000  Uiso   1.00
O1024  O     0.77441   0.83332   0.82549   0.00000  Uiso   1.00
O1025  O     0.85360   0.83333   0.82549   0.00000  Uiso   1.00
C1026  C     0.80702   0.83168   0.85008   0.00000  Uiso   1.00
Cu1027 Cu    0.78645   0.83333   0.75000   0.00000  Uiso   1.00
Cu1028 Cu    0.88022   0.83334   0.75000   0.00000  Uiso   1.00
O1029  O     0.79373   0.77321   0.74999   0.00000  Uiso   1.00
O1030  O     0.87292   0.77322   0.74999   0.00000  Uiso   1.00
O1031  O     0.81306   0.83334   0.67451   0.00000  Uiso   1.00
O1032  O     0.89225   0.83335   0.67451   0.00000  Uiso   1.00
C1033  C     0.83320   0.75404   0.75023   0.00000  Uiso   1.00
C1034  C     0.85986   0.83285   0.64978   0.00000  Uiso   1.00
C1035  C     0.92817   0.79697   0.51293   0.00000  Uiso   1.00
H1036  H     0.93184   0.77030   0.91849   0.00000  Uiso   1.00
H1037  H     0.96257   0.78242   0.99163   0.00000  Uiso   1.00
C1038  C     0.87562   0.82793   0.59257   0.00000  Uiso   1.00
C1039  C     0.74505   0.84859   0.93397   0.00000  Uiso   1.00
C1040  C     0.73174   0.85548   0.98738   0.00000  Uiso   1.00
C1041  C     0.76459   0.84713   0.51497   0.00000  Uiso   1.00
C1042  C     0.81129   0.82981   0.98968   0.00000  Uiso   1.00
C1043  C     0.82246   0.81869   0.93616   0.00000  Uiso   1.00
C1044  C     0.84730   0.82310   0.51555   0.00000  Uiso   1.00
C1045  C     0.89163   0.80262   0.98886   0.00000  Uiso   1.00
C1046  C     0.89908   0.78761   0.93841   0.00000  Uiso   1.00
C1047  C     0.86468   0.79486   0.91275   0.00000  Uiso   1.00
C1048  C     0.84088   0.83638   0.56698   0.00000  Uiso   1.00
C1049  C     0.92101   0.80994   0.56436   0.00000  Uiso   1.00
C1050  C     0.79087   0.83146   0.90753   0.00000  Uiso   1.00
H1051  H     0.80854   0.85297   0.58872   0.00000  Uiso   1.00
H1052  H     0.71995   0.85793   0.91306   0.00000  Uiso   1.00
H1053  H     0.75185   0.85399   0.55612   0.00000  Uiso   1.00
H1054  H     0.69629   0.86880   0.50726   0.00000  Uiso   1.00
H1055  H     0.87139   0.78085   0.87462   0.00000  Uiso   1.00
C1056  C     0.87780   0.97881   0.73925   0.00000  Uiso   1.00
H1057  H     0.91261   0.96282   0.72978   0.00000  Uiso   1.00
C1058  C     0.87772   0.68810   0.73913   0.00000  Uiso   1.00
H1059  H     0.91250   0.70429   0.72952   0.00000  Uiso   1.00
C1060  C     0.83315   0.70942   0.75075   0.00000  Uiso   1.00
C1061  C     0.78865   0.68784   0.76308   0.00000  Uiso   1.00
H1062  H     0.75383   0.70381   0.77337   0.00000  Uiso   1.00
C1063  C     0.78874   0.97855   0.76280   0.00000  Uiso   1.00
H1064  H     0.75397   0.96235   0.77244   0.00000  Uiso   1.00
C1065  C     0.83333   0.95724   0.75076   0.00000  Uiso   1.00
C1066  C     0.96613   0.85898   0.78260   0.00000  Uiso   1.00
H1067  H     0.94019   0.87956   0.80874   0.00000  Uiso   1.00
C1068  C     0.68236   0.85890   0.78270   0.00000  Uiso   1.00
H1069  H     0.69372   0.87938   0.80889   0.00000  Uiso   1.00
N1070  N     0.71598   0.83332   0.74998   0.00000  Uiso   1.00
C1071  C     0.70012   0.80756   0.71726   0.00000  Uiso   1.00
C1072  C     0.98388   0.80765   0.71767   0.00000  Uiso   1.00
H1073  H     0.97203   0.78699   0.69200   0.00000  Uiso   1.00
N1074  N     0.95069   0.83335   0.74999   0.00000  Uiso   1.00
N1075  N     0.95996   0.80431   0.58693   0.00000  Uiso   1.00
O1076  O     0.97915   0.83630   0.60293   0.00000  Uiso   1.00
O1077  O     0.98335   0.76943   0.58051   0.00000  Uiso   1.00
N1078  N     0.73313   0.78009   0.68198   0.00000  Uiso   1.00
O1079  O     0.73398   0.74178   0.69527   0.00000  Uiso   1.00
O1080  O     0.74723   0.78889   0.63259   0.00000  Uiso   1.00
loop_
_geom_bond_atom_site_label_1
_geom_bond_atom_site_label_2
_geom_bond_distance
_geom_bond_site_symmetry_2
_ccdc_geom_bond_type
O1     Cu7     1.962   .     S
O1     C3      1.291   .     A
O2     C3      1.292   .     A
O2     Cu8     1.964   .     S
C3     C45     1.448   .     S
O4     Cu7     1.954   .     S
O4     C6      1.298   .     A
O5     Cu8     1.941   .     S
O5     C6      1.297   .     A
C6     C30     1.473   .     S
Cu7    O11     1.941   .     S
Cu7    O9      1.964   .     S
Cu7    Cu8     2.681   .     S
Cu7    N50     2.015   .     S
Cu8    O12     1.954   .     S
Cu8    O10     1.962   .     S
Cu8    N54     2.015   .     S
O9     C13     1.293   .     A
O10    C13     1.291   .     A
O11    C14     1.302   .     A
O12    C14     1.294   .     A
C13    C40     1.449   .     S
C14    C18     1.474   .     S
C15    C29     1.396   .     A
C15    H557    1.085   1_554 S
C15    C565    1.399   1_554 S
H16    C26     1.084   .     S
H17    C555    1.085   .     S
C18    C29     1.415   .     A
C18    C28     1.399   .     A
C19    C20     1.386   .     A
C19    H32     1.083   .     S
C19    C30     1.402   .     A
C20    C561    1.391   .     S
C20    H574    1.083   .     S
C21    H33     1.077   .     S
C21    C560    1.391   1_554 S
C21    C562    1.418   1_554 S
C22    C23     1.420   .     A
C22    C561    1.418   .     S
C22    C564    1.425   .     S
C23    C27     1.411   .     A
C23    C30     1.419   .     A
C24    C28     1.403   .     A
C24    C562    1.425   1_554 S
C24    C565    1.418   1_554 S
C25    C26     1.392   .     A
C25    C555    1.399   .     S
C25    C564    1.418   .     S
C26    C27     1.384   .     A
C27    H35     1.080   .     S
C28    H31     1.076   .     S
C29    N55     1.434   .     S
H34    C560    1.083   1_554 S
C36    C45     1.400   .     A
C36    H37     1.083   .     S
C36    C218    1.384   .     S
C38    C40     1.402   .     A
C38    H39     1.084   .     S
C38    C396    1.384   1_545 S
C40    C41     1.400   .     A
C41    H42     1.083   .     S
C41    C403    1.384   1_545 S
C43    C45     1.401   .     A
C43    H44     1.083   .     S
C43    C221    1.384   .     S
C46    N54     1.368   .     A
C46    H47     1.082   .     S
C46    C108    1.418   .     S
C48    H49     1.082   .     S
C48    N50     1.367   .     A
C48    C166    1.418   1_455 S
N50    C51     1.379   .     A
C51    N58     1.426   .     S
C51    C172    1.414   1_455 S
C52    N54     1.359   .     A
C52    H53     1.082   .     S
C52    C111    1.414   .     S
N55    O56     1.301   .     A
N55    O57     1.301   .     A
N58    O60     1.301   .     A
N58    O59     1.300   .     A
O61    Cu67    1.962   .     S
O61    C63     1.291   .     A
O62    C63     1.292   .     A
O62    Cu68    1.964   .     S
C63    C105    1.448   .     S
O64    Cu67    1.954   .     S
O64    C66     1.298   .     A
O65    Cu68    1.941   .     S
O65    C66     1.297   .     A
C66    C90     1.473   .     S
Cu67   O71     1.941   .     S
Cu67   O69     1.964   .     S
Cu67   Cu68    2.681   .     S
Cu67   N110    2.015   .     S
Cu68   O72     1.954   .     S
Cu68   O70     1.962   .     S
Cu68   N114    2.015   .     S
O69    C73     1.293   .     A
O70    C73     1.291   .     A
O71    C74     1.302   .     A
O72    C74     1.294   .     A
C73    C100    1.449   .     S
C74    C78     1.474   .     S
C75    C89     1.396   .     A
C75    H617    1.085   1_554 S
C75    C625    1.399   1_554 S
H76    C86     1.084   .     S
H77    C615    1.085   .     S
C78    C89     1.415   .     A
C78    C88     1.399   .     A
C79    C80     1.386   .     A
C79    H92     1.083   .     S
C79    C90     1.402   .     A
C80    C621    1.391   .     S
C80    H634    1.083   .     S
C81    H93     1.077   .     S
C81    C620    1.391   1_554 S
C81    C622    1.418   1_554 S
C82    C83     1.420   .     A
C82    C621    1.418   .     S
C82    C624    1.425   .     S
C83    C87     1.411   .     A
C83    C90     1.419   .     A
C84    C88     1.403   .     A
C84    C622    1.425   1_554 S
C84    C625    1.418   1_554 S
C85    C86     1.392   .     A
C85    C615    1.399   .     S
C85    C624    1.418   .     S
C86    C87     1.384   .     A
C87    H95     1.080   .     S
C88    H91     1.076   .     S
C89    N115    1.434   .     S
H94    C620    1.083   1_554 S
C96    C105    1.400   .     A
C96    H97     1.083   .     S
C96    C278    1.384   .     S
C98    C100    1.402   .     A
C98    H99     1.084   .     S
C98    C456    1.384   1_545 S
C100   C101    1.400   .     A
C101   H102    1.083   .     S
C101   C463    1.384   1_545 S
C103   C105    1.401   .     A
C103   H104    1.083   .     S
C103   C281    1.384   .     S
C106   N114    1.368   .     A
C106   H107    1.082   .     S
C106   C168    1.418   .     S
C108   H109    1.082   .     S
C108   N110    1.367   .     A
N110   C111    1.379   .     A
C111   N118    1.426   .     S
C112   N114    1.359   .     A
C112   H113    1.082   .     S
C112   C171    1.414   .     S
N115   O116    1.301   .     A
N115   O117    1.301   .     A
N118   O120    1.301   .     A
N118   O119    1.300   .     A
O121   Cu127   1.962   .     S
O121   C123    1.291   .     A
O122   C123    1.292   .     A
O122   Cu128   1.964   .     S
C123   C165    1.448   .     S
O124   Cu127   1.954   .     S
O124   C126    1.298   .     A
O125   Cu128   1.941   .     S
O125   C126    1.297   .     A
C126   C150    1.473   .     S
Cu127  O131    1.941   .     S
Cu127  O129    1.964   .     S
Cu127  Cu128   2.681   .     S
Cu127  N170    2.015   .     S
Cu128  O132    1.954   .     S
Cu128  O130    1.962   .     S
Cu128  N174    2.015   .     S
O129   C133    1.293   .     A
O130   C133    1.291   .     A
O131   C134    1.302   .     A
O132   C134    1.294   .     A
C133   C160    1.449   .     S
C134   C138    1.474   .     S
C135   C149    1.396   .     A
C135   H677    1.085   1_554 S
C135   C685    1.399   1_554 S
H136   C146    1.084   .     S
H137   C675    1.085   .     S
C138   C149    1.415   .     A
C138   C148    1.399   .     A
C139   C140    1.386   .     A
C139   H152    1.083   .     S
C139   C150    1.402   .     A
C140   C681    1.391   .     S
C140   H694    1.083   .     S
C141   H153    1.077   .     S
C141   C680    1.391   1_554 S
C141   C682    1.418   1_554 S
C142   C143    1.420   .     A
C142   C681    1.418   .     S
C142   C684    1.425   .     S
C143   C147    1.411   .     A
C143   C150    1.419   .     A
C144   C148    1.403   .     A
C144   C682    1.425   1_554 S
C144   C685    1.418   1_554 S
C145   C146    1.392   .     A
C145   C675    1.399   .     S
C145   C684    1.418   .     S
C146   C147    1.384   .     A
C147   H155    1.080   .     S
C148   H151    1.076   .     S
C149   N175    1.434   .     S
H154   C680    1.083   1_554 S
C156   C165    1.400   .     A
C156   H157    1.083   .     S
C156   C338    1.384   .     S
C158   C160    1.402   .     A
C158   H159    1.084   .     S
C158   C516    1.384   1_545 S
C160   C161    1.400   .     A
C161   H162    1.083   .     S
C161   C523    1.384   1_545 S
C163   C165    1.401   .     A
C163   H164    1.083   .     S
C163   C341    1.384   .     S
C166   N174    1.368   .     A
C166   H167    1.082   .     S
C166   C48     1.418   1_655 S
C168   H169    1.082   .     S
C168   N170    1.367   .     A
N170   C171    1.379   .     A
C171   N178    1.426   .     S
C172   N174    1.359   .     A
C172   H173    1.082   .     S
C172   C51     1.414   1_655 S
N175   O176    1.301   .     A
N175   O177    1.301   .     A
N178   O180    1.301   .     A
N178   O179    1.300   .     A
O181   Cu187   1.962   .     S
O181   C183    1.291   .     A
O182   C183    1.292   .     A
O182   Cu188   1.964   .     S
C183   C225    1.448   .     S
O184   Cu187   1.954   .     S
O184   C186    1.298   .     A
O185   Cu188   1.941   .     S
O185   C186    1.297   .     A
C186   C210    1.473   .     S
Cu187  O191    1.941   .     S
Cu187  O189    1.964   .     S
Cu187  Cu188   2.681   .     S
Cu187  N230    2.015   .     S
Cu188  O192    1.954   .     S
Cu188  O190    1.962   .     S
Cu188  N234    2.015   .     S
O189   C193    1.293   .     A
O190   C193    1.291   .     A
O191   C194    1.302   .     A
O192   C194    1.294   .     A
C193   C220    1.449   .     S
C194   C198    1.474   .     S
C195   C209    1.396   .     A
C195   H737    1.085   1_554 S
C195   C745    1.399   1_554 S
H196   C206    1.084   .     S
H197   C735    1.085   .     S
C198   C209    1.415   .     A
C198   C208    1.399   .     A
C199   C200    1.386   .     A
C199   H212    1.083   .     S
C199   C210    1.402   .     A
C200   C741    1.391   .     S
C200   H754    1.083   .     S
C201   H213    1.077   .     S
C201   C740    1.391   1_554 S
C201   C742    1.418   1_554 S
C202   C203    1.420   .     A
C202   C741    1.418   .     S
C202   C744    1.425   .     S
C203   C207    1.411   .     A
C203   C210    1.419   .     A
C204   C208    1.403   .     A
C204   C742    1.425   1_554 S
C204   C745    1.418   1_554 S
C205   C206    1.392   .     A
C205   C735    1.399   .     S
C205   C744    1.418   .     S
C206   C207    1.384   .     A
C207   H215    1.080   .     S
C208   H211    1.076   .     S
C209   N235    1.434   .     S
H214   C740    1.083   1_554 S
C216   C225    1.400   .     A
C216   H217    1.083   .     S
C216   C398    1.384   .     S
C218   C220    1.402   .     A
C218   H219    1.084   .     S
C220   C221    1.400   .     A
C221   H222    1.083   .     S
C223   C225    1.401   .     A
C223   H224    1.083   .     S
C223   C401    1.384   .     S
C226   N234    1.368   .     A
C226   H227    1.082   .     S
C226   C288    1.418   .     S
C228   H229    1.082   .     S
C228   N230    1.367   .     A
C228   C346    1.418   1_455 S
N230   C231    1.379   .     A
C231   N238    1.426   .     S
C231   C352    1.414   1_455 S
C232   N234    1.359   .     A
C232   H233    1.082   .     S
C232   C291    1.414   .     S
N235   O236    1.301   .     A
N235   O237    1.301   .     A
N238   O240    1.301   .     A
N238   O239    1.300   .     A
O241   Cu247   1.962   .     S
O241   C243    1.291   .     A
O242   C243    1.292   .     A
O242   Cu248   1.964   .     S
C243   C285    1.448   .     S
O244   Cu247   1.954   .     S
O244   C246    1.298   .     A
O245   Cu248   1.941   .     S
O245   C246    1.297   .     A
C246   C270    1.473   .     S
Cu247  O251    1.941   .     S
Cu247  O249    1.964   .     S
Cu247  Cu248   2.681   .     S
Cu247  N290    2.015   .     S
Cu248  O252    1.954   .     S
Cu248  O250    1.962   .     S
Cu248  N294    2.015   .     S
O249   C253    1.293   .     A
O250   C253    1.291   .     A
O251   C254    1.302   .     A
O252   C254    1.294   .     A
C253   C280    1.449   .     S
C254   C258    1.474   .     S
C255   C269    1.396   .     A
C255   H797    1.085   1_554 S
C255   C805    1.399   1_554 S
H256   C266    1.084   .     S
H257   C795    1.085   .     S
C258   C269    1.415   .     A
C258   C268    1.399   .     A
C259   C260    1.386   .     A
C259   H272    1.083   .     S
C259   C270    1.402   .     A
C260   C801    1.391   .     S
C260   H814    1.083   .     S
C261   H273    1.077   .     S
C261   C800    1.391   1_554 S
C261   C802    1.418   1_554 S
C262   C263    1.420   .     A
C262   C801    1.418   .     S
C262   C804    1.425   .     S
C263   C267    1.411   .     A
C263   C270    1.419   .     A
C264   C268    1.403   .     A
C264   C802    1.425   1_554 S
C264   C805    1.418   1_554 S
C265   C266    1.392   .     A
C265   C795    1.399   .     S
C265   C804    1.418   .     S
C266   C267    1.384   .     A
C267   H275    1.080   .     S
C268   H271    1.076   .     S
C269   N295    1.434   .     S
H274   C800    1.083   1_554 S
C276   C285    1.400   .     A
C276   H277    1.083   .     S
C276   C458    1.384   .     S
C278   C280    1.402   .     A
C278   H279    1.084   .     S
C280   C281    1.400   .     A
C281   H282    1.083   .     S
C283   C285    1.401   .     A
C283   H284    1.083   .     S
C283   C461    1.384   .     S
C286   N294    1.368   .     A
C286   H287    1.082   .     S
C286   C348    1.418   .     S
C288   H289    1.082   .     S
C288   N290    1.367   .     A
N290   C291    1.379   .     A
C291   N298    1.426   .     S
C292   N294    1.359   .     A
C292   H293    1.082   .     S
C292   C351    1.414   .     S
N295   O296    1.301   .     A
N295   O297    1.301   .     A
N298   O300    1.301   .     A
N298   O299    1.300   .     A
O301   Cu307   1.962   .     S
O301   C303    1.291   .     A
O302   C303    1.292   .     A
O302   Cu308   1.964   .     S
C303   C345    1.448   .     S
O304   Cu307   1.954   .     S
O304   C306    1.298   .     A
O305   Cu308   1.941   .     S
O305   C306    1.297   .     A
C306   C330    1.473   .     S
Cu307  O311    1.941   .     S
Cu307  O309    1.964   .     S
Cu307  Cu308   2.681   .     S
Cu307  N350    2.015   .     S
Cu308  O312    1.954   .     S
Cu308  O310    1.962   .     S
Cu308  N354    2.015   .     S
O309   C313    1.293   .     A
O310   C313    1.291   .     A
O311   C314    1.302   .     A
O312   C314    1.294   .     A
C313   C340    1.449   .     S
C314   C318    1.474   .     S
C315   C329    1.396   .     A
C315   H857    1.085   1_554 S
C315   C865    1.399   1_554 S
H316   C326    1.084   .     S
H317   C855    1.085   .     S
C318   C329    1.415   .     A
C318   C328    1.399   .     A
C319   C320    1.386   .     A
C319   H332    1.083   .     S
C319   C330    1.402   .     A
C320   C861    1.391   .     S
C320   H874    1.083   .     S
C321   H333    1.077   .     S
C321   C860    1.391   1_554 S
C321   C862    1.418   1_554 S
C322   C323    1.420   .     A
C322   C861    1.418   .     S
C322   C864    1.425   .     S
C323   C327    1.411   .     A
C323   C330    1.419   .     A
C324   C328    1.403   .     A
C324   C862    1.425   1_554 S
C324   C865    1.418   1_554 S
C325   C326    1.392   .     A
C325   C855    1.399   .     S
C325   C864    1.418   .     S
C326   C327    1.384   .     A
C327   H335    1.080   .     S
C328   H331    1.076   .     S
C329   N355    1.434   .     S
H334   C860    1.083   1_554 S
C336   C345    1.400   .     A
C336   H337    1.083   .     S
C336   C518    1.384   .     S
C338   C340    1.402   .     A
C338   H339    1.084   .     S
C340   C341    1.400   .     A
C341   H342    1.083   .     S
C343   C345    1.401   .     A
C343   H344    1.083   .     S
C343   C521    1.384   .     S
C346   N354    1.368   .     A
C346   H347    1.082   .     S
C346   C228    1.418   1_655 S
C348   H349    1.082   .     S
C348   N350    1.367   .     A
N350   C351    1.379   .     A
C351   N358    1.426   .     S
C352   N354    1.359   .     A
C352   H353    1.082   .     S
C352   C231    1.414   1_655 S
N355   O356    1.301   .     A
N355   O357    1.301   .     A
N358   O360    1.301   .     A
N358   O359    1.300   .     A
O361   Cu367   1.962   .     S
O361   C363    1.291   .     A
O362   C363    1.292   .     A
O362   Cu368   1.964   .     S
C363   C405    1.448   .     S
O364   Cu367   1.954   .     S
O364   C366    1.298   .     A
O365   Cu368   1.941   .     S
O365   C366    1.297   .     A
C366   C390    1.473   .     S
Cu367  O371    1.941   .     S
Cu367  O369    1.964   .     S
Cu367  Cu368   2.681   .     S
Cu367  N410    2.015   .     S
Cu368  O372    1.954   .     S
Cu368  O370    1.962   .     S
Cu368  N414    2.015   .     S
O369   C373    1.293   .     A
O370   C373    1.291   .     A
O371   C374    1.302   .     A
O372   C374    1.294   .     A
C373   C400    1.449   .     S
C374   C378    1.474   .     S
C375   C389    1.396   .     A
C375   H917    1.085   1_554 S
C375   C925    1.399   1_554 S
H376   C386    1.084   .     S
H377   C915    1.085   .     S
C378   C389    1.415   .     A
C378   C388    1.399   .     A
C379   C380    1.386   .     A
C379   H392    1.083   .     S
C379   C390    1.402   .     A
C380   C921    1.391   .     S
C380   H934    1.083   .     S
C381   H393    1.077   .     S
C381   C920    1.391   1_554 S
C381   C922    1.418   1_554 S
C382   C383    1.420   .     A
C382   C921    1.418   .     S
C382   C924    1.425   .     S
C383   C387    1.411   .     A
C383   C390    1.419   .     A
C384   C388    1.403   .     A
C384   C922    1.425   1_554 S
C384   C925    1.418   1_554 S
C385   C386    1.392   .     A
C385   C915    1.399   .     S
C385   C924    1.418   .     S
C386   C387    1.384   .     A
C387   H395    1.080   .     S
C388   H391    1.076   .     S
C389   N415    1.434   .     S
H394   C920    1.083   1_554 S
C396   C405    1.400   .     A
C396   H397    1.083   .     S
C396   C38     1.384   1_565 S
C398   C400    1.402   .     A
C398   H399    1.084   .     S
C400   C401    1.400   .     A
C401   H402    1.083   .     S
C403   C405    1.401   .     A
C403   H404    1.083   .     S
C403   C41     1.384   1_565 S
C406   N414    1.368   .     A
C406   H407    1.082   .     S
C406   C468    1.418   .     S
C408   H409    1.082   .     S
C408   N410    1.367   .     A
C408   C526    1.418   1_455 S
N410   C411    1.379   .     A
C411   N418    1.426   .     S
C411   C532    1.414   1_455 S
C412   N414    1.359   .     A
C412   H413    1.082   .     S
C412   C471    1.414   .     S
N415   O416    1.301   .     A
N415   O417    1.301   .     A
N418   O420    1.301   .     A
N418   O419    1.300   .     A
O421   Cu427   1.962   .     S
O421   C423    1.291   .     A
O422   C423    1.292   .     A
O422   Cu428   1.964   .     S
C423   C465    1.448   .     S
O424   Cu427   1.954   .     S
O424   C426    1.298   .     A
O425   Cu428   1.941   .     S
O425   C426    1.297   .     A
C426   C450    1.473   .     S
Cu427  O431    1.941   .     S
Cu427  O429    1.964   .     S
Cu427  Cu428   2.681   .     S
Cu427  N470    2.015   .     S
Cu428  O432    1.954   .     S
Cu428  O430    1.962   .     S
Cu428  N474    2.015   .     S
O429   C433    1.293   .     A
O430   C433    1.291   .     A
O431   C434    1.302   .     A
O432   C434    1.294   .     A
C433   C460    1.449   .     S
C434   C438    1.474   .     S
C435   C449    1.396   .     A
C435   H977    1.085   1_554 S
C435   C985    1.399   1_554 S
H436   C446    1.084   .     S
H437   C975    1.085   .     S
C438   C449    1.415   .     A
C438   C448    1.399   .     A
C439   C440    1.386   .     A
C439   H452    1.083   .     S
C439   C450    1.402   .     A
C440   C981    1.391   .     S
C440   H994    1.083   .     S
C441   H453    1.077   .     S
C441   C980    1.391   1_554 S
C441   C982    1.418   1_554 S
C442   C443    1.420   .     A
C442   C981    1.418   .     S
C442   C984    1.425   .     S
C443   C447    1.411   .     A
C443   C450    1.419   .     A
C444   C448    1.403   .     A
C444   C982    1.425   1_554 S
C444   C985    1.418   1_554 S
C445   C446    1.392   .     A
C445   C975    1.399   .     S
C445   C984    1.418   .     S
C446   C447    1.384   .     A
C447   H455    1.080   .     S
C448   H451    1.076   .     S
C449   N475    1.434   .     S
H454   C980    1.083   1_554 S
C456   C465    1.400   .     A
C456   H457    1.083   .     S
C456   C98     1.384   1_565 S
C458   C460    1.402   .     A
C458   H459    1.084   .     S
C460   C461    1.400   .     A
C461   H462    1.083   .     S
C463   C465    1.401   .     A
C463   H464    1.083   .     S
C463   C101    1.384   1_565 S
C466   N474    1.368   .     A
C466   H467    1.082   .     S
C466   C528    1.418   .     S
C468   H469    1.082   .     S
C468   N470    1.367   .     A
N470   C471    1.379   .     A
C471   N478    1.426   .     S
C472   N474    1.359   .     A
C472   H473    1.082   .     S
C472   C531    1.414   .     S
N475   O476    1.301   .     A
N475   O477    1.301   .     A
N478   O480    1.301   .     A
N478   O479    1.300   .     A
O481   Cu487   1.962   .     S
O481   C483    1.291   .     A
O482   C483    1.292   .     A
O482   Cu488   1.964   .     S
C483   C525    1.448   .     S
O484   Cu487   1.954   .     S
O484   C486    1.298   .     A
O485   Cu488   1.941   .     S
O485   C486    1.297   .     A
C486   C510    1.473   .     S
Cu487  O491    1.941   .     S
Cu487  O489    1.964   .     S
Cu487  Cu488   2.681   .     S
Cu487  N530    2.015   .     S
Cu488  O492    1.954   .     S
Cu488  O490    1.962   .     S
Cu488  N534    2.015   .     S
O489   C493    1.293   .     A
O490   C493    1.291   .     A
O491   C494    1.302   .     A
O492   C494    1.294   .     A
C493   C520    1.449   .     S
C494   C498    1.474   .     S
C495   C509    1.396   .     A
C495   H1037   1.085   1_554 S
C495   C1045   1.399   1_554 S
H496   C506    1.084   .     S
H497   C1035   1.085   .     S
C498   C509    1.415   .     A
C498   C508    1.399   .     A
C499   C500    1.386   .     A
C499   H512    1.083   .     S
C499   C510    1.402   .     A
C500   C1041   1.391   .     S
C500   H1054   1.083   .     S
C501   H513    1.077   .     S
C501   C1040   1.391   1_554 S
C501   C1042   1.418   1_554 S
C502   C503    1.420   .     A
C502   C1041   1.418   .     S
C502   C1044   1.425   .     S
C503   C507    1.411   .     A
C503   C510    1.419   .     A
C504   C508    1.403   .     A
C504   C1042   1.425   1_554 S
C504   C1045   1.418   1_554 S
C505   C506    1.392   .     A
C505   C1035   1.399   .     S
C505   C1044   1.418   .     S
C506   C507    1.384   .     A
C507   H515    1.080   .     S
C508   H511    1.076   .     S
C509   N535    1.434   .     S
H514   C1040   1.083   1_554 S
C516   C525    1.400   .     A
C516   H517    1.083   .     S
C516   C158    1.384   1_565 S
C518   C520    1.402   .     A
C518   H519    1.084   .     S
C520   C521    1.400   .     A
C521   H522    1.083   .     S
C523   C525    1.401   .     A
C523   H524    1.083   .     S
C523   C161    1.384   1_565 S
C526   N534    1.368   .     A
C526   H527    1.082   .     S
C526   C408    1.418   1_655 S
C528   H529    1.082   .     S
C528   N530    1.367   .     A
N530   C531    1.379   .     A
C531   N538    1.426   .     S
C532   N534    1.359   .     A
C532   H533    1.082   .     S
C532   C411    1.414   1_655 S
N535   O536    1.301   .     A
N535   O537    1.301   .     A
N538   O540    1.301   .     A
N538   O539    1.300   .     A
O541   Cu547   1.962   .     S
O541   C543    1.291   .     A
O542   C543    1.292   .     A
O542   Cu548   1.964   .     S
C543   C585    1.448   .     S
O544   Cu547   1.954   .     S
O544   C546    1.298   .     A
O545   Cu548   1.941   .     S
O545   C546    1.297   .     A
C546   C570    1.473   .     S
Cu547  O551    1.941   .     S
Cu547  O549    1.964   .     S
Cu547  Cu548   2.681   .     S
Cu547  N590    2.015   .     S
Cu548  O552    1.954   .     S
Cu548  O550    1.962   .     S
Cu548  N594    2.015   .     S
O549   C553    1.293   .     A
O550   C553    1.291   .     A
O551   C554    1.302   .     A
O552   C554    1.294   .     A
C553   C580    1.449   .     S
C554   C558    1.474   .     S
C555   C569    1.396   .     A
H556   C566    1.084   .     S
H557   C15     1.085   1_556 S
C558   C569    1.415   .     A
C558   C568    1.399   .     A
C559   C560    1.386   .     A
C559   H572    1.083   .     S
C559   C570    1.402   .     A
C560   C21     1.391   1_556 S
C560   H34     1.083   1_556 S
C561   H573    1.077   .     S
C562   C563    1.420   .     A
C562   C21     1.418   1_556 S
C562   C24     1.425   1_556 S
C563   C567    1.411   .     A
C563   C570    1.419   .     A
C564   C568    1.403   .     A
C565   C566    1.392   .     A
C565   C15     1.399   1_556 S
C565   C24     1.418   1_556 S
C566   C567    1.384   .     A
C567   H575    1.080   .     S
C568   H571    1.076   .     S
C569   N595    1.434   .     S
C576   C585    1.400   .     A
C576   H577    1.083   .     S
C576   C758    1.384   .     S
C578   C580    1.402   .     A
C578   H579    1.084   .     S
C578   C936    1.384   1_545 S
C580   C581    1.400   .     A
C581   H582    1.083   .     S
C581   C943    1.384   1_545 S
C583   C585    1.401   .     A
C583   H584    1.083   .     S
C583   C761    1.384   .     S
C586   N594    1.368   .     A
C586   H587    1.082   .     S
C586   C648    1.418   .     S
C588   H589    1.082   .     S
C588   N590    1.367   .     A
C588   C706    1.418   1_455 S
N590   C591    1.379   .     A
C591   N598    1.426   .     S
C591   C712    1.414   1_455 S
C592   N594    1.359   .     A
C592   H593    1.082   .     S
C592   C651    1.414   .     S
N595   O596    1.301   .     A
N595   O597    1.301   .     A
N598   O600    1.301   .     A
N598   O599    1.300   .     A
O601   Cu607   1.962   .     S
O601   C603    1.291   .     A
O602   C603    1.292   .     A
O602   Cu608   1.964   .     S
C603   C645    1.448   .     S
O604   Cu607   1.954   .     S
O604   C606    1.298   .     A
O605   Cu608   1.941   .     S
O605   C606    1.297   .     A
C606   C630    1.473   .     S
Cu607  O611    1.941   .     S
Cu607  O609    1.964   .     S
Cu607  Cu608   2.681   .     S
Cu607  N650    2.015   .     S
Cu608  O612    1.954   .     S
Cu608  O610    1.962   .     S
Cu608  N654    2.015   .     S
O609   C613    1.293   .     A
O610   C613    1.291   .     A
O611   C614    1.302   .     A
O612   C614    1.294   .     A
C613   C640    1.449   .     S
C614   C618    1.474   .     S
C615   C629    1.396   .     A
H616   C626    1.084   .     S
H617   C75     1.085   1_556 S
C618   C629    1.415   .     A
C618   C628    1.399   .     A
C619   C620    1.386   .     A
C619   H632    1.083   .     S
C619   C630    1.402   .     A
C620   C81     1.391   1_556 S
C620   H94     1.083   1_556 S
C621   H633    1.077   .     S
C622   C623    1.420   .     A
C622   C81     1.418   1_556 S
C622   C84     1.425   1_556 S
C623   C627    1.411   .     A
C623   C630    1.419   .     A
C624   C628    1.403   .     A
C625   C626    1.392   .     A
C625   C75     1.399   1_556 S
C625   C84     1.418   1_556 S
C626   C627    1.384   .     A
C627   H635    1.080   .     S
C628   H631    1.076   .     S
C629   N655    1.434   .     S
C636   C645    1.400   .     A
C636   H637    1.083   .     S
C636   C818    1.384   .     S
C638   C640    1.402   .     A
C638   H639    1.084   .     S
C638   C996    1.384   1_545 S
C640   C641    1.400   .     A
C641   H642    1.083   .     S
C641   C1003   1.384   1_545 S
C643   C645    1.401   .     A
C643   H644    1.083   .     S
C643   C821    1.384   .     S
C646   N654    1.368   .     A
C646   H647    1.082   .     S
C646   C708    1.418   .     S
C648   H649    1.082   .     S
C648   N650    1.367   .     A
N650   C651    1.379   .     A
C651   N658    1.426   .     S
C652   N654    1.359   .     A
C652   H653    1.082   .     S
C652   C711    1.414   .     S
N655   O656    1.301   .     A
N655   O657    1.301   .     A
N658   O660    1.301   .     A
N658   O659    1.300   .     A
O661   Cu667   1.962   .     S
O661   C663    1.291   .     A
O662   C663    1.292   .     A
O662   Cu668   1.964   .     S
C663   C705    1.448   .     S
O664   Cu667   1.954   .     S
O664   C666    1.298   .     A
O665   Cu668   1.941   .     S
O665   C666    1.297   .     A
C666   C690    1.473   .     S
Cu667  O671    1.941   .     S
Cu667  O669    1.964   .     S
Cu667  Cu668   2.681   .     S
Cu667  N710    2.015   .     S
Cu668  O672    1.954   .     S
Cu668  O670    1.962   .     S
Cu668  N714    2.015   .     S
O669   C673    1.293   .     A
O670   C673    1.291   .     A
O671   C674    1.302   .     A
O672   C674    1.294   .     A
C673   C700    1.449   .     S
C674   C678    1.474   .     S
C675   C689    1.396   .     A
H676   C686    1.084   .     S
H677   C135    1.085   1_556 S
C678   C689    1.415   .     A
C678   C688    1.399   .     A
C679   C680    1.386   .     A
C679   H692    1.083   .     S
C679   C690    1.402   .     A
C680   C141    1.391   1_556 S
C680   H154    1.083   1_556 S
C681   H693    1.077   .     S
C682   C683    1.420   .     A
C682   C141    1.418   1_556 S
C682   C144    1.425   1_556 S
C683   C687    1.411   .     A
C683   C690    1.419   .     A
C684   C688    1.403   .     A
C685   C686    1.392   .     A
C685   C135    1.399   1_556 S
C685   C144    1.418   1_556 S
C686   C687    1.384   .     A
C687   H695    1.080   .     S
C688   H691    1.076   .     S
C689   N715    1.434   .     S
C696   C705    1.400   .     A
C696   H697    1.083   .     S
C696   C878    1.384   .     S
C698   C700    1.402   .     A
C698   H699    1.084   .     S
C698   C1056   1.384   1_545 S
C700   C701    1.400   .     A
C701   H702    1.083   .     S
C701   C1063   1.384   1_545 S
C703   C705    1.401   .     A
C703   H704    1.083   .     S
C703   C881    1.384   .     S
C706   N714    1.368   .     A
C706   H707    1.082   .     S
C706   C588    1.418   1_655 S
C708   H709    1.082   .     S
C708   N710    1.367   .     A
N710   C711    1.379   .     A
C711   N718    1.426   .     S
C712   N714    1.359   .     A
C712   H713    1.082   .     S
C712   C591    1.414   1_655 S
N715   O716    1.301   .     A
N715   O717    1.301   .     A
N718   O720    1.301   .     A
N718   O719    1.300   .     A
O721   Cu727   1.962   .     S
O721   C723    1.291   .     A
O722   C723    1.292   .     A
O722   Cu728   1.964   .     S
C723   C765    1.448   .     S
O724   Cu727   1.954   .     S
O724   C726    1.298   .     A
O725   Cu728   1.941   .     S
O725   C726    1.297   .     A
C726   C750    1.473   .     S
Cu727  O731    1.941   .     S
Cu727  O729    1.964   .     S
Cu727  Cu728   2.681   .     S
Cu727  N770    2.015   .     S
Cu728  O732    1.954   .     S
Cu728  O730    1.962   .     S
Cu728  N774    2.015   .     S
O729   C733    1.293   .     A
O730   C733    1.291   .     A
O731   C734    1.302   .     A
O732   C734    1.294   .     A
C733   C760    1.449   .     S
C734   C738    1.474   .     S
C735   C749    1.396   .     A
H736   C746    1.084   .     S
H737   C195    1.085   1_556 S
C738   C749    1.415   .     A
C738   C748    1.399   .     A
C739   C740    1.386   .     A
C739   H752    1.083   .     S
C739   C750    1.402   .     A
C740   C201    1.391   1_556 S
C740   H214    1.083   1_556 S
C741   H753    1.077   .     S
C742   C743    1.420   .     A
C742   C201    1.418   1_556 S
C742   C204    1.425   1_556 S
C743   C747    1.411   .     A
C743   C750    1.419   .     A
C744   C748    1.403   .     A
C745   C746    1.392   .     A
C745   C195    1.399   1_556 S
C745   C204    1.418   1_556 S
C746   C747    1.384   .     A
C747   H755    1.080   .     S
C748   H751    1.076   .     S
C749   N775    1.434   .     S
C756   C765    1.400   .     A
C756   H757    1.083   .     S
C756   C938    1.384   .     S
C758   C760    1.402   .     A
C758   H759    1.084   .     S
C760   C761    1.400   .     A
C761   H762    1.083   .     S
C763   C765    1.401   .     A
C763   H764    1.083   .     S
C763   C941    1.384   .     S
C766   N774    1.368   .     A
C766   H767    1.082   .     S
C766   C828    1.418   .     S
C768   H769    1.082   .     S
C768   N770    1.367   .     A
C768   C886    1.418   1_455 S
N770   C771    1.379   .     A
C771   N778    1.426   .     S
C771   C892    1.414   1_455 S
C772   N774    1.359   .     A
C772   H773    1.082   .     S
C772   C831    1.414   .     S
N775   O776    1.301   .     A
N775   O777    1.301   .     A
N778   O780    1.301   .     A
N778   O779    1.300   .     A
O781   Cu787   1.962   .     S
O781   C783    1.291   .     A
O782   C783    1.292   .     A
O782   Cu788   1.964   .     S
C783   C825    1.448   .     S
O784   Cu787   1.954   .     S
O784   C786    1.298   .     A
O785   Cu788   1.941   .     S
O785   C786    1.297   .     A
C786   C810    1.473   .     S
Cu787  O791    1.941   .     S
Cu787  O789    1.964   .     S
Cu787  Cu788   2.681   .     S
Cu787  N830    2.015   .     S
Cu788  O792    1.954   .     S
Cu788  O790    1.962   .     S
Cu788  N834    2.015   .     S
O789   C793    1.293   .     A
O790   C793    1.291   .     A
O791   C794    1.302   .     A
O792   C794    1.294   .     A
C793   C820    1.449   .     S
C794   C798    1.474   .     S
C795   C809    1.396   .     A
H796   C806    1.084   .     S
H797   C255    1.085   1_556 S
C798   C809    1.415   .     A
C798   C808    1.399   .     A
C799   C800    1.386   .     A
C799   H812    1.083   .     S
C799   C810    1.402   .     A
C800   C261    1.391   1_556 S
C800   H274    1.083   1_556 S
C801   H813    1.077   .     S
C802   C803    1.420   .     A
C802   C261    1.418   1_556 S
C802   C264    1.425   1_556 S
C803   C807    1.411   .     A
C803   C810    1.419   .     A
C804   C808    1.403   .     A
C805   C806    1.392   .     A
C805   C255    1.399   1_556 S
C805   C264    1.418   1_556 S
C806   C807    1.384   .     A
C807   H815    1.080   .     S
C808   H811    1.076   .     S
C809   N835    1.434   .     S
C816   C825    1.400   .     A
C816   H817    1.083   .     S
C816   C998    1.384   .     S
C818   C820    1.402   .     A
C818   H819    1.084   .     S
C820   C821    1.400   .     A
C821   H822    1.083   .     S
C823   C825    1.401   .     A
C823   H824    1.083   .     S
C823   C1001   1.384   .     S
C826   N834    1.368   .     A
C826   H827    1.082   .     S
C826   C888    1.418   .     S
C828   H829    1.082   .     S
C828   N830    1.367   .     A
N830   C831    1.379   .     A
C831   N838    1.426   .     S
C832   N834    1.359   .     A
C832   H833    1.082   .     S
C832   C891    1.414   .     S
N835   O836    1.301   .     A
N835   O837    1.301   .     A
N838   O840    1.301   .     A
N838   O839    1.300   .     A
O841   Cu847   1.962   .     S
O841   C843    1.291   .     A
O842   C843    1.292   .     A
O842   Cu848   1.964   .     S
C843   C885    1.448   .     S
O844   Cu847   1.954   .     S
O844   C846    1.298   .     A
O845   Cu848   1.941   .     S
O845   C846    1.297   .     A
C846   C870    1.473   .     S
Cu847  O851    1.941   .     S
Cu847  O849    1.964   .     S
Cu847  Cu848   2.681   .     S
Cu847  N890    2.015   .     S
Cu848  O852    1.954   .     S
Cu848  O850    1.962   .     S
Cu848  N894    2.015   .     S
O849   C853    1.293   .     A
O850   C853    1.291   .     A
O851   C854    1.302   .     A
O852   C854    1.294   .     A
C853   C880    1.449   .     S
C854   C858    1.474   .     S
C855   C869    1.396   .     A
H856   C866    1.084   .     S
H857   C315    1.085   1_556 S
C858   C869    1.415   .     A
C858   C868    1.399   .     A
C859   C860    1.386   .     A
C859   H872    1.083   .     S
C859   C870    1.402   .     A
C860   C321    1.391   1_556 S
C860   H334    1.083   1_556 S
C861   H873    1.077   .     S
C862   C863    1.420   .     A
C862   C321    1.418   1_556 S
C862   C324    1.425   1_556 S
C863   C867    1.411   .     A
C863   C870    1.419   .     A
C864   C868    1.403   .     A
C865   C866    1.392   .     A
C865   C315    1.399   1_556 S
C865   C324    1.418   1_556 S
C866   C867    1.384   .     A
C867   H875    1.080   .     S
C868   H871    1.076   .     S
C869   N895    1.434   .     S
C876   C885    1.400   .     A
C876   H877    1.083   .     S
C876   C1058   1.384   .     S
C878   C880    1.402   .     A
C878   H879    1.084   .     S
C880   C881    1.400   .     A
C881   H882    1.083   .     S
C883   C885    1.401   .     A
C883   H884    1.083   .     S
C883   C1061   1.384   .     S
C886   N894    1.368   .     A
C886   H887    1.082   .     S
C886   C768    1.418   1_655 S
C888   H889    1.082   .     S
C888   N890    1.367   .     A
N890   C891    1.379   .     A
C891   N898    1.426   .     S
C892   N894    1.359   .     A
C892   H893    1.082   .     S
C892   C771    1.414   1_655 S
N895   O896    1.301   .     A
N895   O897    1.301   .     A
N898   O900    1.301   .     A
N898   O899    1.300   .     A
O901   Cu907   1.962   .     S
O901   C903    1.291   .     A
O902   C903    1.292   .     A
O902   Cu908   1.964   .     S
C903   C945    1.448   .     S
O904   Cu907   1.954   .     S
O904   C906    1.298   .     A
O905   Cu908   1.941   .     S
O905   C906    1.297   .     A
C906   C930    1.473   .     S
Cu907  O911    1.941   .     S
Cu907  O909    1.964   .     S
Cu907  Cu908   2.681   .     S
Cu907  N950    2.015   .     S
Cu908  O912    1.954   .     S
Cu908  O910    1.962   .     S
Cu908  N954    2.015   .     S
O909   C913    1.293   .     A
O910   C913    1.291   .     A
O911   C914    1.302   .     A
O912   C914    1.294   .     A
C913   C940    1.449   .     S
C914   C918    1.474   .     S
C915   C929    1.396   .     A
H916   C926    1.084   .     S
H917   C375    1.085   1_556 S
C918   C929    1.415   .     A
C918   C928    1.399   .     A
C919   C920    1.386   .     A
C919   H932    1.083   .     S
C919   C930    1.402   .     A
C920   C381    1.391   1_556 S
C920   H394    1.083   1_556 S
C921   H933    1.077   .     S
C922   C923    1.420   .     A
C922   C381    1.418   1_556 S
C922   C384    1.425   1_556 S
C923   C927    1.411   .     A
C923   C930    1.419   .     A
C924   C928    1.403   .     A
C925   C926    1.392   .     A
C925   C375    1.399   1_556 S
C925   C384    1.418   1_556 S
C926   C927    1.384   .     A
C927   H935    1.080   .     S
C928   H931    1.076   .     S
C929   N955    1.434   .     S
C936   C945    1.400   .     A
C936   H937    1.083   .     S
C936   C578    1.384   1_565 S
C938   C940    1.402   .     A
C938   H939    1.084   .     S
C940   C941    1.400   .     A
C941   H942    1.083   .     S
C943   C945    1.401   .     A
C943   H944    1.083   .     S
C943   C581    1.384   1_565 S
C946   N954    1.368   .     A
C946   H947    1.082   .     S
C946   C1008   1.418   .     S
C948   H949    1.082   .     S
C948   N950    1.367   .     A
C948   C1066   1.418   1_455 S
N950   C951    1.379   .     A
C951   N958    1.426   .     S
C951   C1072   1.414   1_455 S
C952   N954    1.359   .     A
C952   H953    1.082   .     S
C952   C1011   1.414   .     S
N955   O956    1.301   .     A
N955   O957    1.301   .     A
N958   O960    1.301   .     A
N958   O959    1.300   .     A
O961   Cu967   1.962   .     S
O961   C963    1.291   .     A
O962   C963    1.292   .     A
O962   Cu968   1.964   .     S
C963   C1005   1.448   .     S
O964   Cu967   1.954   .     S
O964   C966    1.298   .     A
O965   Cu968   1.941   .     S
O965   C966    1.297   .     A
C966   C990    1.473   .     S
Cu967  O971    1.941   .     S
Cu967  O969    1.964   .     S
Cu967  Cu968   2.681   .     S
Cu967  N1010   2.015   .     S
Cu968  O972    1.954   .     S
Cu968  O970    1.962   .     S
Cu968  N1014   2.015   .     S
O969   C973    1.293   .     A
O970   C973    1.291   .     A
O971   C974    1.302   .     A
O972   C974    1.294   .     A
C973   C1000   1.449   .     S
C974   C978    1.474   .     S
C975   C989    1.396   .     A
H976   C986    1.084   .     S
H977   C435    1.085   1_556 S
C978   C989    1.415   .     A
C978   C988    1.399   .     A
C979   C980    1.386   .     A
C979   H992    1.083   .     S
C979   C990    1.402   .     A
C980   C441    1.391   1_556 S
C980   H454    1.083   1_556 S
C981   H993    1.077   .     S
C982   C983    1.420   .     A
C982   C441    1.418   1_556 S
C982   C444    1.425   1_556 S
C983   C987    1.411   .     A
C983   C990    1.419   .     A
C984   C988    1.403   .     A
C985   C986    1.392   .     A
C985   C435    1.399   1_556 S
C985   C444    1.418   1_556 S
C986   C987    1.384   .     A
C987   H995    1.080   .     S
C988   H991    1.076   .     S
C989   N1015   1.434   .     S
C996   C1005   1.400   .     A
C996   H997    1.083   .     S
C996   C638    1.384   1_565 S
C998   C1000   1.402   .     A
C998   H999    1.084   .     S
C1000  C1001   1.400   .     A
C1001  H1002   1.083   .     S
C1003  C1005   1.401   .     A
C1003  H1004   1.083   .     S
C1003  C641    1.384   1_565 S
C1006  N1014   1.368   .     A
C1006  H1007   1.082   .     S
C1006  C1068   1.418   .     S
C1008  H1009   1.082   .     S
C1008  N1010   1.367   .     A
N1010  C1011   1.379   .     A
C1011  N1018   1.426   .     S
C1012  N1014   1.359   .     A
C1012  H1013   1.082   .     S
C1012  C1071   1.414   .     S
N1015  O1016   1.301   .     A
N1015  O1017   1.301   .     A
N1018  O1020   1.301   .     A
N1018  O1019   1.300   .     A
O1021  Cu1027  1.962   .     S
O1021  C1023   1.291   .     A
O1022  C1023   1.292   .     A
O1022  Cu1028  1.964   .     S
C1023  C1065   1.448   .     S
O1024  Cu1027  1.954   .     S
O1024  C1026   1.298   .     A
O1025  Cu1028  1.941   .     S
O1025  C1026   1.297   .     A
C1026  C1050   1.473   .     S
Cu1027 O1031   1.941   .     S
Cu1027 O1029   1.964   .     S
Cu1027 Cu1028  2.681   .     S
Cu1027 N1070   2.015   .     S
Cu1028 O1032   1.954   .     S
Cu1028 O1030   1.962   .     S
Cu1028 N1074   2.015   .     S
O1029  C1033   1.293   .     A
O1030  C1033   1.291   .     A
O1031  C1034   1.302   .     A
O1032  C1034   1.294   .     A
C1033  C1060   1.449   .     S
C1034  C1038   1.474   .     S
C1035  C1049   1.396   .     A
H1036  C1046   1.084   .     S
H1037  C495    1.085   1_556 S
C1038  C1049   1.415   .     A
C1038  C1048   1.399   .     A
C1039  C1040   1.386   .     A
C1039  H1052   1.083   .     S
C1039  C1050   1.402   .     A
C1040  C501    1.391   1_556 S
C1040  H514    1.083   1_556 S
C1041  H1053   1.077   .     S
C1042  C1043   1.420   .     A
C1042  C501    1.418   1_556 S
C1042  C504    1.425   1_556 S
C1043  C1047   1.411   .     A
C1043  C1050   1.419   .     A
C1044  C1048   1.403   .     A
C1045  C1046   1.392   .     A
C1045  C495    1.399   1_556 S
C1045  C504    1.418   1_556 S
C1046  C1047   1.384   .     A
C1047  H1055   1.080   .     S
C1048  H1051   1.076   .     S
C1049  N1075   1.434   .     S
C1056  C1065   1.400   .     A
C1056  H1057   1.083   .     S
C1056  C698    1.384   1_565 S
C1058  C1060   1.402   .     A
C1058  H1059   1.084   .     S
C1060  C1061   1.400   .     A
C1061  H1062   1.083   .     S
C1063  C1065   1.401   .     A
C1063  H1064   1.083   .     S
C1063  C701    1.384   1_565 S
C1066  N1074   1.368   .     A
C1066  H1067   1.082   .     S
C1066  C948    1.418   1_655 S
C1068  H1069   1.082   .     S
C1068  N1070   1.367   .     A
N1070  C1071   1.379   .     A
C1071  N1078   1.426   .     S
C1072  N1074   1.359   .     A
C1072  H1073   1.082   .     S
C1072  C951    1.414   1_655 S
N1075  O1076   1.301   .     A
N1075  O1077   1.301   .     A
N1078  O1080   1.301   .     A
N1078  O1079   1.300   .     A
