data_str_m2_o1_o16_pcu_sym.94
_audit_creation_date              2020-01-03
_audit_creation_method            'Materials Studio'
_symmetry_space_group_name_H-M    'P1'
_symmetry_Int_Tables_number       1
_symmetry_cell_setting            triclinic
loop_
_symmetry_equiv_pos_as_xyz
  x,y,z
_cell_length_a                    28.7363
_cell_length_b                    32.5088
_cell_length_c                    26.8223
_cell_angle_alpha                 91.5066
_cell_angle_beta                  71.9077
_cell_angle_gamma                 89.7952
loop_
_atom_site_label
_atom_site_type_symbol
_atom_site_fract_x
_atom_site_fract_y
_atom_site_fract_z
_atom_site_U_iso_or_equiv
_atom_site_adp_type
_atom_site_occupancy
C1     C     0.16651   0.24587   0.25036   0.00000  Uiso   1.00
C2     C     0.12349   0.16545   0.40802   0.00000  Uiso   1.00
C3     C     0.20235   0.31162   0.26621   0.00000  Uiso   1.00
C4     C     0.14019   0.16541   0.35018   0.00000  Uiso   1.00
C5     C     0.20279   0.02122   0.26721   0.00000  Uiso   1.00
C6     C     0.16667   0.04268   0.25223   0.00000  Uiso   1.00
C7     C     0.13023   0.02113   0.23817   0.00000  Uiso   1.00
C8     C     0.12993   0.31194   0.23788   0.00000  Uiso   1.00
C9     C     0.16623   0.29043   0.25139   0.00000  Uiso   1.00
C10    C     0.30101   0.19710   0.27583   0.00000  Uiso   1.00
C11    C     0.01716   0.19711   0.27578   0.00000  Uiso   1.00
C12    C     0.14310   0.16273   0.49039   0.00000  Uiso   1.00
C13    C     0.03184   0.13571   0.22482   0.00000  Uiso   1.00
C14    C     0.31626   0.13581   0.22471   0.00000  Uiso   1.00
C15    C     0.16658   0.08741   0.25084   0.00000  Uiso   1.00
C16    C     0.19330   0.16618   0.14965   0.00000  Uiso   1.00
C17    C     0.25611   0.12248   0.01408   0.00000  Uiso   1.00
C18    C     0.20925   0.16148   0.09181   0.00000  Uiso   1.00
C19    C     0.07783   0.18331   0.43511   0.00000  Uiso   1.00
C20    C     0.06305   0.18869   0.48942   0.00000  Uiso   1.00
C21    C     0.09565   0.17852   0.01695   0.00000  Uiso   1.00
C22    C     0.15418   0.15142   0.43650   0.00000  Uiso   1.00
C23    C     0.17916   0.15595   0.01593   0.00000  Uiso   1.00
C24    C     0.22064   0.13087   0.49000   0.00000  Uiso   1.00
C25    C     0.22708   0.11486   0.43957   0.00000  Uiso   1.00
C26    C     0.19477   0.12538   0.41288   0.00000  Uiso   1.00
C27    C     0.17678   0.17466   0.06500   0.00000  Uiso   1.00
C28    C     0.25109   0.13753   0.06442   0.00000  Uiso   1.00
Cu29   Cu    0.11978   0.16666   0.25000   0.00000  Uiso   1.00
Cu30   Cu    0.21355   0.16667   0.25000   0.00000  Uiso   1.00
H31    H     0.10173   0.29592   0.22634   0.00000  Uiso   1.00
H32    H     0.09337   0.11407   0.18019   0.00000  Uiso   1.00
H33    H     0.27831   0.11479   0.18256   0.00000  Uiso   1.00
H34    H     0.15694   0.22407   0.10981   0.00000  Uiso   1.00
H35    H     0.05353   0.19361   0.41399   0.00000  Uiso   1.00
H36    H     0.08233   0.18126   0.05920   0.00000  Uiso   1.00
H37    H     0.01271   0.20851   0.05232   0.00000  Uiso   1.00
H38    H     0.20118   0.11163   0.37416   0.00000  Uiso   1.00
H39    H     0.27644   0.22153   0.29671   0.00000  Uiso   1.00
H40    H     0.25806   0.09492   0.42002   0.00000  Uiso   1.00
H41    H     0.28809   0.10383   0.49374   0.00000  Uiso   1.00
H42    H     0.22990   0.29481   0.27760   0.00000  Uiso   1.00
H43    H     0.29513   0.15275   0.10250   0.00000  Uiso   1.00
H44    H     0.25960   0.02263   0.29246   0.00000  Uiso   1.00
H45    H     0.10220   0.03708   0.22673   0.00000  Uiso   1.00
H46    H     0.02950   0.22154   0.29659   0.00000  Uiso   1.00
N47    N     0.04931   0.16666   0.24998   0.00000  Uiso   1.00
N48    N     0.28402   0.16669   0.24999   0.00000  Uiso   1.00
O49    O     0.12708   0.22678   0.25000   0.00000  Uiso   1.00
O50    O     0.23737   0.04247   0.28345   0.00000  Uiso   1.00
O51    O     0.06082   0.10337   0.19843   0.00000  Uiso   1.00
O52    O     0.30289   0.10404   0.19744   0.00000  Uiso   1.00
O53    O     0.14532   0.20772   0.08438   0.00000  Uiso   1.00
O54    O     0.01704   0.20502   0.01430   0.00000  Uiso   1.00
O55    O     0.20627   0.22679   0.25000   0.00000  Uiso   1.00
O56    O     0.10775   0.16665   0.32549   0.00000  Uiso   1.00
O57    O     0.18694   0.16666   0.32549   0.00000  Uiso   1.00
O58    O     0.12706   0.10654   0.24999   0.00000  Uiso   1.00
O59    O     0.20625   0.10655   0.24999   0.00000  Uiso   1.00
O60    O     0.14640   0.16667   0.17451   0.00000  Uiso   1.00
O61    O     0.22559   0.16668   0.17451   0.00000  Uiso   1.00
O62    O     0.28732   0.12741   0.08560   0.00000  Uiso   1.00
C63    C     0.49984   0.24587   0.25036   0.00000  Uiso   1.00
C64    C     0.45683   0.16545   0.40802   0.00000  Uiso   1.00
C65    C     0.53568   0.31162   0.26621   0.00000  Uiso   1.00
C66    C     0.47352   0.16541   0.35018   0.00000  Uiso   1.00
C67    C     0.53613   0.02122   0.26721   0.00000  Uiso   1.00
C68    C     0.50000   0.04268   0.25223   0.00000  Uiso   1.00
C69    C     0.46357   0.02113   0.23817   0.00000  Uiso   1.00
C70    C     0.46326   0.31194   0.23788   0.00000  Uiso   1.00
C71    C     0.49956   0.29043   0.25139   0.00000  Uiso   1.00
C72    C     0.63435   0.19710   0.27583   0.00000  Uiso   1.00
C73    C     0.35049   0.19711   0.27578   0.00000  Uiso   1.00
C74    C     0.47643   0.16273   0.49039   0.00000  Uiso   1.00
C75    C     0.36517   0.13571   0.22482   0.00000  Uiso   1.00
C76    C     0.64959   0.13581   0.22471   0.00000  Uiso   1.00
C77    C     0.49992   0.08741   0.25084   0.00000  Uiso   1.00
C78    C     0.52664   0.16618   0.14965   0.00000  Uiso   1.00
C79    C     0.58945   0.12248   0.01408   0.00000  Uiso   1.00
C80    C     0.54259   0.16148   0.09181   0.00000  Uiso   1.00
C81    C     0.41117   0.18331   0.43511   0.00000  Uiso   1.00
C82    C     0.39639   0.18869   0.48942   0.00000  Uiso   1.00
C83    C     0.42898   0.17852   0.01695   0.00000  Uiso   1.00
C84    C     0.48752   0.15142   0.43650   0.00000  Uiso   1.00
C85    C     0.51249   0.15595   0.01593   0.00000  Uiso   1.00
C86    C     0.55397   0.13087   0.49000   0.00000  Uiso   1.00
C87    C     0.56041   0.11486   0.43957   0.00000  Uiso   1.00
C88    C     0.52811   0.12538   0.41288   0.00000  Uiso   1.00
C89    C     0.51011   0.17466   0.06500   0.00000  Uiso   1.00
C90    C     0.58443   0.13753   0.06442   0.00000  Uiso   1.00
Cu91   Cu    0.45311   0.16666   0.25000   0.00000  Uiso   1.00
Cu92   Cu    0.54689   0.16667   0.25000   0.00000  Uiso   1.00
H93    H     0.43506   0.29592   0.22634   0.00000  Uiso   1.00
H94    H     0.42671   0.11407   0.18019   0.00000  Uiso   1.00
H95    H     0.61164   0.11479   0.18256   0.00000  Uiso   1.00
H96    H     0.49027   0.22407   0.10981   0.00000  Uiso   1.00
H97    H     0.38686   0.19361   0.41399   0.00000  Uiso   1.00
H98    H     0.41566   0.18126   0.05920   0.00000  Uiso   1.00
H99    H     0.34604   0.20851   0.05232   0.00000  Uiso   1.00
H100   H     0.53451   0.11163   0.37416   0.00000  Uiso   1.00
H101   H     0.60977   0.22153   0.29671   0.00000  Uiso   1.00
H102   H     0.59139   0.09492   0.42002   0.00000  Uiso   1.00
H103   H     0.62143   0.10383   0.49374   0.00000  Uiso   1.00
H104   H     0.56323   0.29481   0.27760   0.00000  Uiso   1.00
H105   H     0.62846   0.15275   0.10250   0.00000  Uiso   1.00
H106   H     0.59293   0.02263   0.29246   0.00000  Uiso   1.00
H107   H     0.43553   0.03708   0.22673   0.00000  Uiso   1.00
H108   H     0.36283   0.22154   0.29659   0.00000  Uiso   1.00
N109   N     0.38265   0.16666   0.24998   0.00000  Uiso   1.00
N110   N     0.61735   0.16669   0.24999   0.00000  Uiso   1.00
O111   O     0.46042   0.22678   0.25000   0.00000  Uiso   1.00
O112   O     0.57071   0.04247   0.28345   0.00000  Uiso   1.00
O113   O     0.39416   0.10337   0.19843   0.00000  Uiso   1.00
O114   O     0.63622   0.10404   0.19744   0.00000  Uiso   1.00
O115   O     0.47866   0.20772   0.08438   0.00000  Uiso   1.00
O116   O     0.35038   0.20502   0.01430   0.00000  Uiso   1.00
O117   O     0.53961   0.22679   0.25000   0.00000  Uiso   1.00
O118   O     0.44108   0.16665   0.32549   0.00000  Uiso   1.00
O119   O     0.52027   0.16666   0.32549   0.00000  Uiso   1.00
O120   O     0.46039   0.10654   0.24999   0.00000  Uiso   1.00
O121   O     0.53958   0.10655   0.24999   0.00000  Uiso   1.00
O122   O     0.47973   0.16667   0.17451   0.00000  Uiso   1.00
O123   O     0.55892   0.16668   0.17451   0.00000  Uiso   1.00
O124   O     0.62066   0.12741   0.08560   0.00000  Uiso   1.00
C125   C     0.83318   0.24587   0.25036   0.00000  Uiso   1.00
C126   C     0.79016   0.16545   0.40802   0.00000  Uiso   1.00
C127   C     0.86902   0.31162   0.26621   0.00000  Uiso   1.00
C128   C     0.80685   0.16541   0.35018   0.00000  Uiso   1.00
C129   C     0.86946   0.02122   0.26721   0.00000  Uiso   1.00
C130   C     0.83334   0.04268   0.25223   0.00000  Uiso   1.00
C131   C     0.79690   0.02113   0.23817   0.00000  Uiso   1.00
C132   C     0.79660   0.31194   0.23788   0.00000  Uiso   1.00
C133   C     0.83290   0.29043   0.25139   0.00000  Uiso   1.00
C134   C     0.96768   0.19710   0.27583   0.00000  Uiso   1.00
C135   C     0.68382   0.19711   0.27578   0.00000  Uiso   1.00
C136   C     0.80977   0.16273   0.49039   0.00000  Uiso   1.00
C137   C     0.69850   0.13571   0.22482   0.00000  Uiso   1.00
C138   C     0.98292   0.13581   0.22471   0.00000  Uiso   1.00
C139   C     0.83325   0.08741   0.25084   0.00000  Uiso   1.00
C140   C     0.85997   0.16618   0.14965   0.00000  Uiso   1.00
C141   C     0.92278   0.12248   0.01408   0.00000  Uiso   1.00
C142   C     0.87592   0.16148   0.09181   0.00000  Uiso   1.00
C143   C     0.74450   0.18331   0.43511   0.00000  Uiso   1.00
C144   C     0.72972   0.18869   0.48942   0.00000  Uiso   1.00
C145   C     0.76231   0.17852   0.01695   0.00000  Uiso   1.00
C146   C     0.82085   0.15142   0.43650   0.00000  Uiso   1.00
C147   C     0.84583   0.15595   0.01593   0.00000  Uiso   1.00
C148   C     0.88731   0.13087   0.49000   0.00000  Uiso   1.00
C149   C     0.89374   0.11486   0.43957   0.00000  Uiso   1.00
C150   C     0.86144   0.12538   0.41288   0.00000  Uiso   1.00
C151   C     0.84344   0.17466   0.06500   0.00000  Uiso   1.00
C152   C     0.91776   0.13753   0.06442   0.00000  Uiso   1.00
Cu153  Cu    0.78645   0.16666   0.25000   0.00000  Uiso   1.00
Cu154  Cu    0.88022   0.16667   0.25000   0.00000  Uiso   1.00
H155   H     0.76839   0.29592   0.22634   0.00000  Uiso   1.00
H156   H     0.76004   0.11407   0.18019   0.00000  Uiso   1.00
H157   H     0.94497   0.11479   0.18256   0.00000  Uiso   1.00
H158   H     0.82360   0.22407   0.10981   0.00000  Uiso   1.00
H159   H     0.72019   0.19361   0.41399   0.00000  Uiso   1.00
H160   H     0.74900   0.18126   0.05920   0.00000  Uiso   1.00
H161   H     0.67937   0.20851   0.05232   0.00000  Uiso   1.00
H162   H     0.86785   0.11163   0.37416   0.00000  Uiso   1.00
H163   H     0.94310   0.22153   0.29671   0.00000  Uiso   1.00
H164   H     0.92472   0.09492   0.42002   0.00000  Uiso   1.00
H165   H     0.95476   0.10383   0.49374   0.00000  Uiso   1.00
H166   H     0.89657   0.29481   0.27760   0.00000  Uiso   1.00
H167   H     0.96179   0.15275   0.10250   0.00000  Uiso   1.00
H168   H     0.92626   0.02263   0.29246   0.00000  Uiso   1.00
H169   H     0.76887   0.03708   0.22673   0.00000  Uiso   1.00
H170   H     0.69616   0.22154   0.29659   0.00000  Uiso   1.00
N171   N     0.71598   0.16666   0.24998   0.00000  Uiso   1.00
N172   N     0.95069   0.16669   0.24999   0.00000  Uiso   1.00
O173   O     0.79375   0.22678   0.25000   0.00000  Uiso   1.00
O174   O     0.90404   0.04247   0.28345   0.00000  Uiso   1.00
O175   O     0.72749   0.10337   0.19843   0.00000  Uiso   1.00
O176   O     0.96955   0.10404   0.19744   0.00000  Uiso   1.00
O177   O     0.81199   0.20772   0.08438   0.00000  Uiso   1.00
O178   O     0.68371   0.20502   0.01430   0.00000  Uiso   1.00
O179   O     0.87294   0.22679   0.25000   0.00000  Uiso   1.00
O180   O     0.77441   0.16665   0.32549   0.00000  Uiso   1.00
O181   O     0.85360   0.16666   0.32549   0.00000  Uiso   1.00
O182   O     0.79373   0.10654   0.24999   0.00000  Uiso   1.00
O183   O     0.87292   0.10655   0.24999   0.00000  Uiso   1.00
O184   O     0.81306   0.16667   0.17451   0.00000  Uiso   1.00
O185   O     0.89225   0.16668   0.17451   0.00000  Uiso   1.00
O186   O     0.95399   0.12741   0.08560   0.00000  Uiso   1.00
C187   C     0.16651   0.57920   0.25036   0.00000  Uiso   1.00
C188   C     0.12349   0.49878   0.40802   0.00000  Uiso   1.00
C189   C     0.20235   0.64495   0.26621   0.00000  Uiso   1.00
C190   C     0.14019   0.49875   0.35018   0.00000  Uiso   1.00
C191   C     0.20279   0.35455   0.26721   0.00000  Uiso   1.00
C192   C     0.16667   0.37601   0.25223   0.00000  Uiso   1.00
C193   C     0.13023   0.35446   0.23817   0.00000  Uiso   1.00
C194   C     0.12993   0.64527   0.23788   0.00000  Uiso   1.00
C195   C     0.16623   0.62377   0.25139   0.00000  Uiso   1.00
C196   C     0.30101   0.53044   0.27583   0.00000  Uiso   1.00
C197   C     0.01716   0.53045   0.27578   0.00000  Uiso   1.00
C198   C     0.14310   0.49607   0.49039   0.00000  Uiso   1.00
C199   C     0.03184   0.46904   0.22482   0.00000  Uiso   1.00
C200   C     0.31626   0.46914   0.22471   0.00000  Uiso   1.00
C201   C     0.16658   0.42074   0.25084   0.00000  Uiso   1.00
C202   C     0.19330   0.49951   0.14965   0.00000  Uiso   1.00
C203   C     0.25611   0.45581   0.01408   0.00000  Uiso   1.00
C204   C     0.20925   0.49482   0.09181   0.00000  Uiso   1.00
C205   C     0.07783   0.51664   0.43511   0.00000  Uiso   1.00
C206   C     0.06305   0.52203   0.48942   0.00000  Uiso   1.00
C207   C     0.09565   0.51186   0.01695   0.00000  Uiso   1.00
C208   C     0.15418   0.48475   0.43650   0.00000  Uiso   1.00
C209   C     0.17916   0.48928   0.01593   0.00000  Uiso   1.00
C210   C     0.22064   0.46421   0.49000   0.00000  Uiso   1.00
C211   C     0.22708   0.44820   0.43957   0.00000  Uiso   1.00
C212   C     0.19477   0.45872   0.41288   0.00000  Uiso   1.00
C213   C     0.17678   0.50800   0.06500   0.00000  Uiso   1.00
C214   C     0.25109   0.47086   0.06442   0.00000  Uiso   1.00
Cu215  Cu    0.11978   0.49999   0.25000   0.00000  Uiso   1.00
Cu216  Cu    0.21355   0.50001   0.25000   0.00000  Uiso   1.00
H217   H     0.10173   0.62925   0.22634   0.00000  Uiso   1.00
H218   H     0.09337   0.44741   0.18019   0.00000  Uiso   1.00
H219   H     0.27831   0.44813   0.18256   0.00000  Uiso   1.00
H220   H     0.15694   0.55741   0.10981   0.00000  Uiso   1.00
H221   H     0.05353   0.52694   0.41399   0.00000  Uiso   1.00
H222   H     0.08233   0.51459   0.05920   0.00000  Uiso   1.00
H223   H     0.01271   0.54185   0.05232   0.00000  Uiso   1.00
H224   H     0.20118   0.44496   0.37416   0.00000  Uiso   1.00
H225   H     0.27644   0.55486   0.29671   0.00000  Uiso   1.00
H226   H     0.25806   0.42826   0.42002   0.00000  Uiso   1.00
H227   H     0.28809   0.43716   0.49374   0.00000  Uiso   1.00
H228   H     0.22990   0.62814   0.27760   0.00000  Uiso   1.00
H229   H     0.29513   0.48608   0.10250   0.00000  Uiso   1.00
H230   H     0.25960   0.35596   0.29246   0.00000  Uiso   1.00
H231   H     0.10220   0.37042   0.22673   0.00000  Uiso   1.00
H232   H     0.02950   0.55488   0.29659   0.00000  Uiso   1.00
N233   N     0.04931   0.49999   0.24998   0.00000  Uiso   1.00
N234   N     0.28402   0.50002   0.24999   0.00000  Uiso   1.00
O235   O     0.12708   0.56011   0.25000   0.00000  Uiso   1.00
O236   O     0.23737   0.37580   0.28345   0.00000  Uiso   1.00
O237   O     0.06082   0.43670   0.19843   0.00000  Uiso   1.00
O238   O     0.30289   0.43738   0.19744   0.00000  Uiso   1.00
O239   O     0.14532   0.54105   0.08438   0.00000  Uiso   1.00
O240   O     0.01704   0.53835   0.01430   0.00000  Uiso   1.00
O241   O     0.20627   0.56012   0.25000   0.00000  Uiso   1.00
O242   O     0.10775   0.49998   0.32549   0.00000  Uiso   1.00
O243   O     0.18694   0.49999   0.32549   0.00000  Uiso   1.00
O244   O     0.12706   0.43988   0.24999   0.00000  Uiso   1.00
O245   O     0.20625   0.43989   0.24999   0.00000  Uiso   1.00
O246   O     0.14640   0.50001   0.17451   0.00000  Uiso   1.00
O247   O     0.22559   0.50002   0.17451   0.00000  Uiso   1.00
O248   O     0.28732   0.46074   0.08560   0.00000  Uiso   1.00
C249   C     0.49984   0.57920   0.25036   0.00000  Uiso   1.00
C250   C     0.45683   0.49878   0.40802   0.00000  Uiso   1.00
C251   C     0.53568   0.64495   0.26621   0.00000  Uiso   1.00
C252   C     0.47352   0.49875   0.35018   0.00000  Uiso   1.00
C253   C     0.53613   0.35455   0.26721   0.00000  Uiso   1.00
C254   C     0.50000   0.37601   0.25223   0.00000  Uiso   1.00
C255   C     0.46357   0.35446   0.23817   0.00000  Uiso   1.00
C256   C     0.46326   0.64527   0.23788   0.00000  Uiso   1.00
C257   C     0.49956   0.62377   0.25139   0.00000  Uiso   1.00
C258   C     0.63435   0.53044   0.27583   0.00000  Uiso   1.00
C259   C     0.35049   0.53045   0.27578   0.00000  Uiso   1.00
C260   C     0.47643   0.49607   0.49039   0.00000  Uiso   1.00
C261   C     0.36517   0.46904   0.22482   0.00000  Uiso   1.00
C262   C     0.64959   0.46914   0.22471   0.00000  Uiso   1.00
C263   C     0.49992   0.42074   0.25084   0.00000  Uiso   1.00
C264   C     0.52664   0.49951   0.14965   0.00000  Uiso   1.00
C265   C     0.58945   0.45581   0.01408   0.00000  Uiso   1.00
C266   C     0.54259   0.49482   0.09181   0.00000  Uiso   1.00
C267   C     0.41117   0.51664   0.43511   0.00000  Uiso   1.00
C268   C     0.39639   0.52203   0.48942   0.00000  Uiso   1.00
C269   C     0.42898   0.51186   0.01695   0.00000  Uiso   1.00
C270   C     0.48752   0.48475   0.43650   0.00000  Uiso   1.00
C271   C     0.51249   0.48928   0.01593   0.00000  Uiso   1.00
C272   C     0.55397   0.46421   0.49000   0.00000  Uiso   1.00
C273   C     0.56041   0.44820   0.43957   0.00000  Uiso   1.00
C274   C     0.52811   0.45872   0.41288   0.00000  Uiso   1.00
C275   C     0.51011   0.50800   0.06500   0.00000  Uiso   1.00
C276   C     0.58443   0.47086   0.06442   0.00000  Uiso   1.00
Cu277  Cu    0.45311   0.49999   0.25000   0.00000  Uiso   1.00
Cu278  Cu    0.54689   0.50001   0.25000   0.00000  Uiso   1.00
H279   H     0.43506   0.62925   0.22634   0.00000  Uiso   1.00
H280   H     0.42671   0.44741   0.18019   0.00000  Uiso   1.00
H281   H     0.61164   0.44813   0.18256   0.00000  Uiso   1.00
H282   H     0.49027   0.55741   0.10981   0.00000  Uiso   1.00
H283   H     0.38686   0.52694   0.41399   0.00000  Uiso   1.00
H284   H     0.41566   0.51459   0.05920   0.00000  Uiso   1.00
H285   H     0.34604   0.54185   0.05232   0.00000  Uiso   1.00
H286   H     0.53451   0.44496   0.37416   0.00000  Uiso   1.00
H287   H     0.60977   0.55486   0.29671   0.00000  Uiso   1.00
H288   H     0.59139   0.42826   0.42002   0.00000  Uiso   1.00
H289   H     0.62143   0.43716   0.49374   0.00000  Uiso   1.00
H290   H     0.56323   0.62814   0.27760   0.00000  Uiso   1.00
H291   H     0.62846   0.48608   0.10250   0.00000  Uiso   1.00
H292   H     0.59293   0.35596   0.29246   0.00000  Uiso   1.00
H293   H     0.43553   0.37042   0.22673   0.00000  Uiso   1.00
H294   H     0.36283   0.55488   0.29659   0.00000  Uiso   1.00
N295   N     0.38265   0.49999   0.24998   0.00000  Uiso   1.00
N296   N     0.61735   0.50002   0.24999   0.00000  Uiso   1.00
O297   O     0.46042   0.56011   0.25000   0.00000  Uiso   1.00
O298   O     0.57071   0.37580   0.28345   0.00000  Uiso   1.00
O299   O     0.39416   0.43670   0.19843   0.00000  Uiso   1.00
O300   O     0.63622   0.43738   0.19744   0.00000  Uiso   1.00
O301   O     0.47866   0.54105   0.08438   0.00000  Uiso   1.00
O302   O     0.35038   0.53835   0.01430   0.00000  Uiso   1.00
O303   O     0.53961   0.56012   0.25000   0.00000  Uiso   1.00
O304   O     0.44108   0.49998   0.32549   0.00000  Uiso   1.00
O305   O     0.52027   0.49999   0.32549   0.00000  Uiso   1.00
O306   O     0.46039   0.43988   0.24999   0.00000  Uiso   1.00
O307   O     0.53958   0.43989   0.24999   0.00000  Uiso   1.00
O308   O     0.47973   0.50001   0.17451   0.00000  Uiso   1.00
O309   O     0.55892   0.50002   0.17451   0.00000  Uiso   1.00
O310   O     0.62066   0.46074   0.08560   0.00000  Uiso   1.00
C311   C     0.83318   0.57920   0.25036   0.00000  Uiso   1.00
C312   C     0.79016   0.49878   0.40802   0.00000  Uiso   1.00
C313   C     0.86902   0.64495   0.26621   0.00000  Uiso   1.00
C314   C     0.80685   0.49875   0.35018   0.00000  Uiso   1.00
C315   C     0.86946   0.35455   0.26721   0.00000  Uiso   1.00
C316   C     0.83334   0.37601   0.25223   0.00000  Uiso   1.00
C317   C     0.79690   0.35446   0.23817   0.00000  Uiso   1.00
C318   C     0.79660   0.64527   0.23788   0.00000  Uiso   1.00
C319   C     0.83290   0.62377   0.25139   0.00000  Uiso   1.00
C320   C     0.96768   0.53044   0.27583   0.00000  Uiso   1.00
C321   C     0.68382   0.53045   0.27578   0.00000  Uiso   1.00
C322   C     0.80977   0.49607   0.49039   0.00000  Uiso   1.00
C323   C     0.69850   0.46904   0.22482   0.00000  Uiso   1.00
C324   C     0.98292   0.46914   0.22471   0.00000  Uiso   1.00
C325   C     0.83325   0.42074   0.25084   0.00000  Uiso   1.00
C326   C     0.85997   0.49951   0.14965   0.00000  Uiso   1.00
C327   C     0.92278   0.45581   0.01408   0.00000  Uiso   1.00
C328   C     0.87592   0.49482   0.09181   0.00000  Uiso   1.00
C329   C     0.74450   0.51664   0.43511   0.00000  Uiso   1.00
C330   C     0.72972   0.52203   0.48942   0.00000  Uiso   1.00
C331   C     0.76231   0.51186   0.01695   0.00000  Uiso   1.00
C332   C     0.82085   0.48475   0.43650   0.00000  Uiso   1.00
C333   C     0.84583   0.48928   0.01593   0.00000  Uiso   1.00
C334   C     0.88731   0.46421   0.49000   0.00000  Uiso   1.00
C335   C     0.89374   0.44820   0.43957   0.00000  Uiso   1.00
C336   C     0.86144   0.45872   0.41288   0.00000  Uiso   1.00
C337   C     0.84344   0.50800   0.06500   0.00000  Uiso   1.00
C338   C     0.91776   0.47086   0.06442   0.00000  Uiso   1.00
Cu339  Cu    0.78645   0.49999   0.25000   0.00000  Uiso   1.00
Cu340  Cu    0.88022   0.50001   0.25000   0.00000  Uiso   1.00
H341   H     0.76839   0.62925   0.22634   0.00000  Uiso   1.00
H342   H     0.76004   0.44741   0.18019   0.00000  Uiso   1.00
H343   H     0.94497   0.44813   0.18256   0.00000  Uiso   1.00
H344   H     0.82360   0.55741   0.10981   0.00000  Uiso   1.00
H345   H     0.72019   0.52694   0.41399   0.00000  Uiso   1.00
H346   H     0.74900   0.51459   0.05920   0.00000  Uiso   1.00
H347   H     0.67937   0.54185   0.05232   0.00000  Uiso   1.00
H348   H     0.86785   0.44496   0.37416   0.00000  Uiso   1.00
H349   H     0.94310   0.55486   0.29671   0.00000  Uiso   1.00
H350   H     0.92472   0.42826   0.42002   0.00000  Uiso   1.00
H351   H     0.95476   0.43716   0.49374   0.00000  Uiso   1.00
H352   H     0.89657   0.62814   0.27760   0.00000  Uiso   1.00
H353   H     0.96179   0.48608   0.10250   0.00000  Uiso   1.00
H354   H     0.92626   0.35596   0.29246   0.00000  Uiso   1.00
H355   H     0.76887   0.37042   0.22673   0.00000  Uiso   1.00
H356   H     0.69616   0.55488   0.29659   0.00000  Uiso   1.00
N357   N     0.71598   0.49999   0.24998   0.00000  Uiso   1.00
N358   N     0.95069   0.50002   0.24999   0.00000  Uiso   1.00
O359   O     0.79375   0.56011   0.25000   0.00000  Uiso   1.00
O360   O     0.90404   0.37580   0.28345   0.00000  Uiso   1.00
O361   O     0.72749   0.43670   0.19843   0.00000  Uiso   1.00
O362   O     0.96955   0.43738   0.19744   0.00000  Uiso   1.00
O363   O     0.81199   0.54105   0.08438   0.00000  Uiso   1.00
O364   O     0.68371   0.53835   0.01430   0.00000  Uiso   1.00
O365   O     0.87294   0.56012   0.25000   0.00000  Uiso   1.00
O366   O     0.77441   0.49998   0.32549   0.00000  Uiso   1.00
O367   O     0.85360   0.49999   0.32549   0.00000  Uiso   1.00
O368   O     0.79373   0.43988   0.24999   0.00000  Uiso   1.00
O369   O     0.87292   0.43989   0.24999   0.00000  Uiso   1.00
O370   O     0.81306   0.50001   0.17451   0.00000  Uiso   1.00
O371   O     0.89225   0.50002   0.17451   0.00000  Uiso   1.00
O372   O     0.95399   0.46074   0.08560   0.00000  Uiso   1.00
C373   C     0.16651   0.91253   0.25036   0.00000  Uiso   1.00
C374   C     0.12349   0.83211   0.40802   0.00000  Uiso   1.00
C375   C     0.20235   0.97828   0.26621   0.00000  Uiso   1.00
C376   C     0.14019   0.83208   0.35018   0.00000  Uiso   1.00
C377   C     0.20279   0.68788   0.26721   0.00000  Uiso   1.00
C378   C     0.16667   0.70935   0.25223   0.00000  Uiso   1.00
C379   C     0.13023   0.68780   0.23817   0.00000  Uiso   1.00
C380   C     0.12993   0.97861   0.23788   0.00000  Uiso   1.00
C381   C     0.16623   0.95710   0.25139   0.00000  Uiso   1.00
C382   C     0.30101   0.86377   0.27583   0.00000  Uiso   1.00
C383   C     0.01716   0.86378   0.27578   0.00000  Uiso   1.00
C384   C     0.14310   0.82940   0.49039   0.00000  Uiso   1.00
C385   C     0.03184   0.80237   0.22482   0.00000  Uiso   1.00
C386   C     0.31626   0.80248   0.22471   0.00000  Uiso   1.00
C387   C     0.16658   0.75407   0.25084   0.00000  Uiso   1.00
C388   C     0.19330   0.83284   0.14965   0.00000  Uiso   1.00
C389   C     0.25611   0.78914   0.01408   0.00000  Uiso   1.00
C390   C     0.20925   0.82815   0.09181   0.00000  Uiso   1.00
C391   C     0.07783   0.84998   0.43511   0.00000  Uiso   1.00
C392   C     0.06305   0.85536   0.48942   0.00000  Uiso   1.00
C393   C     0.09565   0.84519   0.01695   0.00000  Uiso   1.00
C394   C     0.15418   0.81809   0.43650   0.00000  Uiso   1.00
C395   C     0.17916   0.82262   0.01593   0.00000  Uiso   1.00
C396   C     0.22064   0.79754   0.49000   0.00000  Uiso   1.00
C397   C     0.22708   0.78153   0.43957   0.00000  Uiso   1.00
C398   C     0.19477   0.79205   0.41288   0.00000  Uiso   1.00
C399   C     0.17678   0.84133   0.06500   0.00000  Uiso   1.00
C400   C     0.25109   0.80419   0.06442   0.00000  Uiso   1.00
Cu401  Cu    0.11978   0.83333   0.25000   0.00000  Uiso   1.00
Cu402  Cu    0.21355   0.83334   0.25000   0.00000  Uiso   1.00
H403   H     0.10173   0.96259   0.22634   0.00000  Uiso   1.00
H404   H     0.09337   0.78074   0.18019   0.00000  Uiso   1.00
H405   H     0.27831   0.78146   0.18256   0.00000  Uiso   1.00
H406   H     0.15694   0.89074   0.10981   0.00000  Uiso   1.00
H407   H     0.05353   0.86027   0.41399   0.00000  Uiso   1.00
H408   H     0.08233   0.84793   0.05920   0.00000  Uiso   1.00
H409   H     0.01271   0.87518   0.05232   0.00000  Uiso   1.00
H410   H     0.20118   0.77830   0.37416   0.00000  Uiso   1.00
H411   H     0.27644   0.88819   0.29671   0.00000  Uiso   1.00
H412   H     0.25806   0.76159   0.42002   0.00000  Uiso   1.00
H413   H     0.28809   0.77050   0.49374   0.00000  Uiso   1.00
H414   H     0.22990   0.96147   0.27760   0.00000  Uiso   1.00
H415   H     0.29513   0.81942   0.10250   0.00000  Uiso   1.00
H416   H     0.25960   0.68929   0.29246   0.00000  Uiso   1.00
H417   H     0.10220   0.70375   0.22673   0.00000  Uiso   1.00
H418   H     0.02950   0.88821   0.29659   0.00000  Uiso   1.00
N419   N     0.04931   0.83332   0.24998   0.00000  Uiso   1.00
N420   N     0.28402   0.83335   0.24999   0.00000  Uiso   1.00
O421   O     0.12708   0.89345   0.25000   0.00000  Uiso   1.00
O422   O     0.23737   0.70914   0.28345   0.00000  Uiso   1.00
O423   O     0.06082   0.77004   0.19843   0.00000  Uiso   1.00
O424   O     0.30289   0.77071   0.19744   0.00000  Uiso   1.00
O425   O     0.14532   0.87439   0.08438   0.00000  Uiso   1.00
O426   O     0.01704   0.87168   0.01430   0.00000  Uiso   1.00
O427   O     0.20627   0.89346   0.25000   0.00000  Uiso   1.00
O428   O     0.10775   0.83332   0.32549   0.00000  Uiso   1.00
O429   O     0.18694   0.83333   0.32549   0.00000  Uiso   1.00
O430   O     0.12706   0.77321   0.24999   0.00000  Uiso   1.00
O431   O     0.20625   0.77322   0.24999   0.00000  Uiso   1.00
O432   O     0.14640   0.83334   0.17451   0.00000  Uiso   1.00
O433   O     0.22559   0.83335   0.17451   0.00000  Uiso   1.00
O434   O     0.28732   0.79407   0.08560   0.00000  Uiso   1.00
C435   C     0.49984   0.91253   0.25036   0.00000  Uiso   1.00
C436   C     0.45683   0.83211   0.40802   0.00000  Uiso   1.00
C437   C     0.53568   0.97828   0.26621   0.00000  Uiso   1.00
C438   C     0.47352   0.83208   0.35018   0.00000  Uiso   1.00
C439   C     0.53613   0.68788   0.26721   0.00000  Uiso   1.00
C440   C     0.50000   0.70935   0.25223   0.00000  Uiso   1.00
C441   C     0.46357   0.68780   0.23817   0.00000  Uiso   1.00
C442   C     0.46326   0.97861   0.23788   0.00000  Uiso   1.00
C443   C     0.49956   0.95710   0.25139   0.00000  Uiso   1.00
C444   C     0.63435   0.86377   0.27583   0.00000  Uiso   1.00
C445   C     0.35049   0.86378   0.27578   0.00000  Uiso   1.00
C446   C     0.47643   0.82940   0.49039   0.00000  Uiso   1.00
C447   C     0.36517   0.80237   0.22482   0.00000  Uiso   1.00
C448   C     0.64959   0.80248   0.22471   0.00000  Uiso   1.00
C449   C     0.49992   0.75407   0.25084   0.00000  Uiso   1.00
C450   C     0.52664   0.83284   0.14965   0.00000  Uiso   1.00
C451   C     0.58945   0.78914   0.01408   0.00000  Uiso   1.00
C452   C     0.54259   0.82815   0.09181   0.00000  Uiso   1.00
C453   C     0.41117   0.84998   0.43511   0.00000  Uiso   1.00
C454   C     0.39639   0.85536   0.48942   0.00000  Uiso   1.00
C455   C     0.42898   0.84519   0.01695   0.00000  Uiso   1.00
C456   C     0.48752   0.81809   0.43650   0.00000  Uiso   1.00
C457   C     0.51249   0.82262   0.01593   0.00000  Uiso   1.00
C458   C     0.55397   0.79754   0.49000   0.00000  Uiso   1.00
C459   C     0.56041   0.78153   0.43957   0.00000  Uiso   1.00
C460   C     0.52811   0.79205   0.41288   0.00000  Uiso   1.00
C461   C     0.51011   0.84133   0.06500   0.00000  Uiso   1.00
C462   C     0.58443   0.80419   0.06442   0.00000  Uiso   1.00
Cu463  Cu    0.45311   0.83333   0.25000   0.00000  Uiso   1.00
Cu464  Cu    0.54689   0.83334   0.25000   0.00000  Uiso   1.00
H465   H     0.43506   0.96259   0.22634   0.00000  Uiso   1.00
H466   H     0.42671   0.78074   0.18019   0.00000  Uiso   1.00
H467   H     0.61164   0.78146   0.18256   0.00000  Uiso   1.00
H468   H     0.49027   0.89074   0.10981   0.00000  Uiso   1.00
H469   H     0.38686   0.86027   0.41399   0.00000  Uiso   1.00
H470   H     0.41566   0.84793   0.05920   0.00000  Uiso   1.00
H471   H     0.34604   0.87518   0.05232   0.00000  Uiso   1.00
H472   H     0.53451   0.77830   0.37416   0.00000  Uiso   1.00
H473   H     0.60977   0.88819   0.29671   0.00000  Uiso   1.00
H474   H     0.59139   0.76159   0.42002   0.00000  Uiso   1.00
H475   H     0.62143   0.77050   0.49374   0.00000  Uiso   1.00
H476   H     0.56323   0.96147   0.27760   0.00000  Uiso   1.00
H477   H     0.62846   0.81942   0.10250   0.00000  Uiso   1.00
H478   H     0.59293   0.68929   0.29246   0.00000  Uiso   1.00
H479   H     0.43553   0.70375   0.22673   0.00000  Uiso   1.00
H480   H     0.36283   0.88821   0.29659   0.00000  Uiso   1.00
N481   N     0.38265   0.83332   0.24998   0.00000  Uiso   1.00
N482   N     0.61735   0.83335   0.24999   0.00000  Uiso   1.00
O483   O     0.46042   0.89345   0.25000   0.00000  Uiso   1.00
O484   O     0.57071   0.70914   0.28345   0.00000  Uiso   1.00
O485   O     0.39416   0.77004   0.19843   0.00000  Uiso   1.00
O486   O     0.63622   0.77071   0.19744   0.00000  Uiso   1.00
O487   O     0.47866   0.87439   0.08438   0.00000  Uiso   1.00
O488   O     0.35038   0.87168   0.01430   0.00000  Uiso   1.00
O489   O     0.53961   0.89346   0.25000   0.00000  Uiso   1.00
O490   O     0.44108   0.83332   0.32549   0.00000  Uiso   1.00
O491   O     0.52027   0.83333   0.32549   0.00000  Uiso   1.00
O492   O     0.46039   0.77321   0.24999   0.00000  Uiso   1.00
O493   O     0.53958   0.77322   0.24999   0.00000  Uiso   1.00
O494   O     0.47973   0.83334   0.17451   0.00000  Uiso   1.00
O495   O     0.55892   0.83335   0.17451   0.00000  Uiso   1.00
O496   O     0.62066   0.79407   0.08560   0.00000  Uiso   1.00
C497   C     0.83318   0.91253   0.25036   0.00000  Uiso   1.00
C498   C     0.79016   0.83211   0.40802   0.00000  Uiso   1.00
C499   C     0.86902   0.97828   0.26621   0.00000  Uiso   1.00
C500   C     0.80685   0.83208   0.35018   0.00000  Uiso   1.00
C501   C     0.86946   0.68788   0.26721   0.00000  Uiso   1.00
C502   C     0.83334   0.70935   0.25223   0.00000  Uiso   1.00
C503   C     0.79690   0.68780   0.23817   0.00000  Uiso   1.00
C504   C     0.79660   0.97861   0.23788   0.00000  Uiso   1.00
C505   C     0.83290   0.95710   0.25139   0.00000  Uiso   1.00
C506   C     0.96768   0.86377   0.27583   0.00000  Uiso   1.00
C507   C     0.68382   0.86378   0.27578   0.00000  Uiso   1.00
C508   C     0.80977   0.82940   0.49039   0.00000  Uiso   1.00
C509   C     0.69850   0.80237   0.22482   0.00000  Uiso   1.00
C510   C     0.98292   0.80248   0.22471   0.00000  Uiso   1.00
C511   C     0.83325   0.75407   0.25084   0.00000  Uiso   1.00
C512   C     0.85997   0.83284   0.14965   0.00000  Uiso   1.00
C513   C     0.92278   0.78914   0.01408   0.00000  Uiso   1.00
C514   C     0.87592   0.82815   0.09181   0.00000  Uiso   1.00
C515   C     0.74450   0.84998   0.43511   0.00000  Uiso   1.00
C516   C     0.72972   0.85536   0.48942   0.00000  Uiso   1.00
C517   C     0.76231   0.84519   0.01695   0.00000  Uiso   1.00
C518   C     0.82085   0.81809   0.43650   0.00000  Uiso   1.00
C519   C     0.84583   0.82262   0.01593   0.00000  Uiso   1.00
C520   C     0.88731   0.79754   0.49000   0.00000  Uiso   1.00
C521   C     0.89374   0.78153   0.43957   0.00000  Uiso   1.00
C522   C     0.86144   0.79205   0.41288   0.00000  Uiso   1.00
C523   C     0.84344   0.84133   0.06500   0.00000  Uiso   1.00
C524   C     0.91776   0.80419   0.06442   0.00000  Uiso   1.00
Cu525  Cu    0.78645   0.83333   0.25000   0.00000  Uiso   1.00
Cu526  Cu    0.88022   0.83334   0.25000   0.00000  Uiso   1.00
H527   H     0.76839   0.96259   0.22634   0.00000  Uiso   1.00
H528   H     0.76004   0.78074   0.18019   0.00000  Uiso   1.00
H529   H     0.94497   0.78146   0.18256   0.00000  Uiso   1.00
H530   H     0.82360   0.89074   0.10981   0.00000  Uiso   1.00
H531   H     0.72019   0.86027   0.41399   0.00000  Uiso   1.00
H532   H     0.74900   0.84793   0.05920   0.00000  Uiso   1.00
H533   H     0.67937   0.87518   0.05232   0.00000  Uiso   1.00
H534   H     0.86785   0.77830   0.37416   0.00000  Uiso   1.00
H535   H     0.94310   0.88819   0.29671   0.00000  Uiso   1.00
H536   H     0.92472   0.76159   0.42002   0.00000  Uiso   1.00
H537   H     0.95476   0.77050   0.49374   0.00000  Uiso   1.00
H538   H     0.89657   0.96147   0.27760   0.00000  Uiso   1.00
H539   H     0.96179   0.81942   0.10250   0.00000  Uiso   1.00
H540   H     0.92626   0.68929   0.29246   0.00000  Uiso   1.00
H541   H     0.76887   0.70375   0.22673   0.00000  Uiso   1.00
H542   H     0.69616   0.88821   0.29659   0.00000  Uiso   1.00
N543   N     0.71598   0.83332   0.24998   0.00000  Uiso   1.00
N544   N     0.95069   0.83335   0.24999   0.00000  Uiso   1.00
O545   O     0.79375   0.89345   0.25000   0.00000  Uiso   1.00
O546   O     0.90404   0.70914   0.28345   0.00000  Uiso   1.00
O547   O     0.72749   0.77004   0.19843   0.00000  Uiso   1.00
O548   O     0.96955   0.77071   0.19744   0.00000  Uiso   1.00
O549   O     0.81199   0.87439   0.08438   0.00000  Uiso   1.00
O550   O     0.68371   0.87168   0.01430   0.00000  Uiso   1.00
O551   O     0.87294   0.89346   0.25000   0.00000  Uiso   1.00
O552   O     0.77441   0.83332   0.32549   0.00000  Uiso   1.00
O553   O     0.85360   0.83333   0.32549   0.00000  Uiso   1.00
O554   O     0.79373   0.77321   0.24999   0.00000  Uiso   1.00
O555   O     0.87292   0.77322   0.24999   0.00000  Uiso   1.00
O556   O     0.81306   0.83334   0.17451   0.00000  Uiso   1.00
O557   O     0.89225   0.83335   0.17451   0.00000  Uiso   1.00
O558   O     0.95399   0.79407   0.08560   0.00000  Uiso   1.00
C559   C     0.16651   0.24587   0.75036   0.00000  Uiso   1.00
C560   C     0.12349   0.16545   0.90802   0.00000  Uiso   1.00
C561   C     0.20235   0.31162   0.76621   0.00000  Uiso   1.00
C562   C     0.14019   0.16541   0.85018   0.00000  Uiso   1.00
C563   C     0.20279   0.02122   0.76721   0.00000  Uiso   1.00
C564   C     0.16667   0.04268   0.75223   0.00000  Uiso   1.00
C565   C     0.13023   0.02113   0.73817   0.00000  Uiso   1.00
C566   C     0.12993   0.31194   0.73788   0.00000  Uiso   1.00
C567   C     0.16623   0.29043   0.75139   0.00000  Uiso   1.00
C568   C     0.30101   0.19710   0.77583   0.00000  Uiso   1.00
C569   C     0.01716   0.19711   0.77578   0.00000  Uiso   1.00
C570   C     0.14310   0.16273   0.99039   0.00000  Uiso   1.00
C571   C     0.03184   0.13571   0.72482   0.00000  Uiso   1.00
C572   C     0.31626   0.13581   0.72471   0.00000  Uiso   1.00
C573   C     0.16658   0.08741   0.75084   0.00000  Uiso   1.00
C574   C     0.19330   0.16618   0.64965   0.00000  Uiso   1.00
C575   C     0.25611   0.12248   0.51408   0.00000  Uiso   1.00
C576   C     0.20925   0.16148   0.59181   0.00000  Uiso   1.00
C577   C     0.07783   0.18331   0.93511   0.00000  Uiso   1.00
C578   C     0.06305   0.18869   0.98942   0.00000  Uiso   1.00
C579   C     0.09565   0.17852   0.51695   0.00000  Uiso   1.00
C580   C     0.15418   0.15142   0.93650   0.00000  Uiso   1.00
C581   C     0.17916   0.15595   0.51593   0.00000  Uiso   1.00
C582   C     0.22064   0.13087   0.99000   0.00000  Uiso   1.00
C583   C     0.22708   0.11486   0.93957   0.00000  Uiso   1.00
C584   C     0.19477   0.12538   0.91288   0.00000  Uiso   1.00
C585   C     0.17678   0.17466   0.56500   0.00000  Uiso   1.00
C586   C     0.25109   0.13753   0.56442   0.00000  Uiso   1.00
Cu587  Cu    0.11978   0.16666   0.75000   0.00000  Uiso   1.00
Cu588  Cu    0.21355   0.16667   0.75000   0.00000  Uiso   1.00
H589   H     0.10173   0.29592   0.72634   0.00000  Uiso   1.00
H590   H     0.09337   0.11407   0.68019   0.00000  Uiso   1.00
H591   H     0.27831   0.11479   0.68256   0.00000  Uiso   1.00
H592   H     0.15694   0.22407   0.60981   0.00000  Uiso   1.00
H593   H     0.05353   0.19361   0.91399   0.00000  Uiso   1.00
H594   H     0.08233   0.18126   0.55920   0.00000  Uiso   1.00
H595   H     0.01271   0.20851   0.55232   0.00000  Uiso   1.00
H596   H     0.20118   0.11163   0.87416   0.00000  Uiso   1.00
H597   H     0.27644   0.22153   0.79671   0.00000  Uiso   1.00
H598   H     0.25806   0.09492   0.92002   0.00000  Uiso   1.00
H599   H     0.28809   0.10383   0.99374   0.00000  Uiso   1.00
H600   H     0.22990   0.29481   0.77760   0.00000  Uiso   1.00
H601   H     0.29513   0.15275   0.60250   0.00000  Uiso   1.00
H602   H     0.25960   0.02263   0.79246   0.00000  Uiso   1.00
H603   H     0.10220   0.03708   0.72673   0.00000  Uiso   1.00
H604   H     0.02950   0.22154   0.79659   0.00000  Uiso   1.00
N605   N     0.04931   0.16666   0.74998   0.00000  Uiso   1.00
N606   N     0.28402   0.16669   0.74999   0.00000  Uiso   1.00
O607   O     0.12708   0.22678   0.75000   0.00000  Uiso   1.00
O608   O     0.23737   0.04247   0.78345   0.00000  Uiso   1.00
O609   O     0.06082   0.10337   0.69843   0.00000  Uiso   1.00
O610   O     0.30289   0.10404   0.69744   0.00000  Uiso   1.00
O611   O     0.14532   0.20772   0.58438   0.00000  Uiso   1.00
O612   O     0.01704   0.20502   0.51430   0.00000  Uiso   1.00
O613   O     0.20627   0.22679   0.75000   0.00000  Uiso   1.00
O614   O     0.10775   0.16665   0.82549   0.00000  Uiso   1.00
O615   O     0.18694   0.16666   0.82549   0.00000  Uiso   1.00
O616   O     0.12706   0.10654   0.74999   0.00000  Uiso   1.00
O617   O     0.20625   0.10655   0.74999   0.00000  Uiso   1.00
O618   O     0.14640   0.16667   0.67451   0.00000  Uiso   1.00
O619   O     0.22559   0.16668   0.67451   0.00000  Uiso   1.00
O620   O     0.28732   0.12741   0.58560   0.00000  Uiso   1.00
C621   C     0.49984   0.24587   0.75036   0.00000  Uiso   1.00
C622   C     0.45683   0.16545   0.90802   0.00000  Uiso   1.00
C623   C     0.53568   0.31162   0.76621   0.00000  Uiso   1.00
C624   C     0.47352   0.16541   0.85018   0.00000  Uiso   1.00
C625   C     0.53613   0.02122   0.76721   0.00000  Uiso   1.00
C626   C     0.50000   0.04268   0.75223   0.00000  Uiso   1.00
C627   C     0.46357   0.02113   0.73817   0.00000  Uiso   1.00
C628   C     0.46326   0.31194   0.73788   0.00000  Uiso   1.00
C629   C     0.49956   0.29043   0.75139   0.00000  Uiso   1.00
C630   C     0.63435   0.19710   0.77583   0.00000  Uiso   1.00
C631   C     0.35049   0.19711   0.77578   0.00000  Uiso   1.00
C632   C     0.47643   0.16273   0.99039   0.00000  Uiso   1.00
C633   C     0.36517   0.13571   0.72482   0.00000  Uiso   1.00
C634   C     0.64959   0.13581   0.72471   0.00000  Uiso   1.00
C635   C     0.49992   0.08741   0.75084   0.00000  Uiso   1.00
C636   C     0.52664   0.16618   0.64965   0.00000  Uiso   1.00
C637   C     0.58945   0.12248   0.51408   0.00000  Uiso   1.00
C638   C     0.54259   0.16148   0.59181   0.00000  Uiso   1.00
C639   C     0.41117   0.18331   0.93511   0.00000  Uiso   1.00
C640   C     0.39639   0.18869   0.98942   0.00000  Uiso   1.00
C641   C     0.42898   0.17852   0.51695   0.00000  Uiso   1.00
C642   C     0.48752   0.15142   0.93650   0.00000  Uiso   1.00
C643   C     0.51249   0.15595   0.51593   0.00000  Uiso   1.00
C644   C     0.55397   0.13087   0.99000   0.00000  Uiso   1.00
C645   C     0.56041   0.11486   0.93957   0.00000  Uiso   1.00
C646   C     0.52811   0.12538   0.91288   0.00000  Uiso   1.00
C647   C     0.51011   0.17466   0.56500   0.00000  Uiso   1.00
C648   C     0.58443   0.13753   0.56442   0.00000  Uiso   1.00
Cu649  Cu    0.45311   0.16666   0.75000   0.00000  Uiso   1.00
Cu650  Cu    0.54689   0.16667   0.75000   0.00000  Uiso   1.00
H651   H     0.43506   0.29592   0.72634   0.00000  Uiso   1.00
H652   H     0.42671   0.11407   0.68019   0.00000  Uiso   1.00
H653   H     0.61164   0.11479   0.68256   0.00000  Uiso   1.00
H654   H     0.49027   0.22407   0.60981   0.00000  Uiso   1.00
H655   H     0.38686   0.19361   0.91399   0.00000  Uiso   1.00
H656   H     0.41566   0.18126   0.55920   0.00000  Uiso   1.00
H657   H     0.34604   0.20851   0.55232   0.00000  Uiso   1.00
H658   H     0.53451   0.11163   0.87416   0.00000  Uiso   1.00
H659   H     0.60977   0.22153   0.79671   0.00000  Uiso   1.00
H660   H     0.59139   0.09492   0.92002   0.00000  Uiso   1.00
H661   H     0.62143   0.10383   0.99374   0.00000  Uiso   1.00
H662   H     0.56323   0.29481   0.77760   0.00000  Uiso   1.00
H663   H     0.62846   0.15275   0.60250   0.00000  Uiso   1.00
H664   H     0.59293   0.02263   0.79246   0.00000  Uiso   1.00
H665   H     0.43553   0.03708   0.72673   0.00000  Uiso   1.00
H666   H     0.36283   0.22154   0.79659   0.00000  Uiso   1.00
N667   N     0.38265   0.16666   0.74998   0.00000  Uiso   1.00
N668   N     0.61735   0.16669   0.74999   0.00000  Uiso   1.00
O669   O     0.46042   0.22678   0.75000   0.00000  Uiso   1.00
O670   O     0.57071   0.04247   0.78345   0.00000  Uiso   1.00
O671   O     0.39416   0.10337   0.69843   0.00000  Uiso   1.00
O672   O     0.63622   0.10404   0.69744   0.00000  Uiso   1.00
O673   O     0.47866   0.20772   0.58438   0.00000  Uiso   1.00
O674   O     0.35038   0.20502   0.51430   0.00000  Uiso   1.00
O675   O     0.53961   0.22679   0.75000   0.00000  Uiso   1.00
O676   O     0.44108   0.16665   0.82549   0.00000  Uiso   1.00
O677   O     0.52027   0.16666   0.82549   0.00000  Uiso   1.00
O678   O     0.46039   0.10654   0.74999   0.00000  Uiso   1.00
O679   O     0.53958   0.10655   0.74999   0.00000  Uiso   1.00
O680   O     0.47973   0.16667   0.67451   0.00000  Uiso   1.00
O681   O     0.55892   0.16668   0.67451   0.00000  Uiso   1.00
O682   O     0.62066   0.12741   0.58560   0.00000  Uiso   1.00
C683   C     0.83318   0.24587   0.75036   0.00000  Uiso   1.00
C684   C     0.79016   0.16545   0.90802   0.00000  Uiso   1.00
C685   C     0.86902   0.31162   0.76621   0.00000  Uiso   1.00
C686   C     0.80685   0.16541   0.85018   0.00000  Uiso   1.00
C687   C     0.86946   0.02122   0.76721   0.00000  Uiso   1.00
C688   C     0.83334   0.04268   0.75223   0.00000  Uiso   1.00
C689   C     0.79690   0.02113   0.73817   0.00000  Uiso   1.00
C690   C     0.79660   0.31194   0.73788   0.00000  Uiso   1.00
C691   C     0.83290   0.29043   0.75139   0.00000  Uiso   1.00
C692   C     0.96768   0.19710   0.77583   0.00000  Uiso   1.00
C693   C     0.68382   0.19711   0.77578   0.00000  Uiso   1.00
C694   C     0.80977   0.16273   0.99039   0.00000  Uiso   1.00
C695   C     0.69850   0.13571   0.72482   0.00000  Uiso   1.00
C696   C     0.98292   0.13581   0.72471   0.00000  Uiso   1.00
C697   C     0.83325   0.08741   0.75084   0.00000  Uiso   1.00
C698   C     0.85997   0.16618   0.64965   0.00000  Uiso   1.00
C699   C     0.92278   0.12248   0.51408   0.00000  Uiso   1.00
C700   C     0.87592   0.16148   0.59181   0.00000  Uiso   1.00
C701   C     0.74450   0.18331   0.93511   0.00000  Uiso   1.00
C702   C     0.72972   0.18869   0.98942   0.00000  Uiso   1.00
C703   C     0.76231   0.17852   0.51695   0.00000  Uiso   1.00
C704   C     0.82085   0.15142   0.93650   0.00000  Uiso   1.00
C705   C     0.84583   0.15595   0.51593   0.00000  Uiso   1.00
C706   C     0.88731   0.13087   0.99000   0.00000  Uiso   1.00
C707   C     0.89374   0.11486   0.93957   0.00000  Uiso   1.00
C708   C     0.86144   0.12538   0.91288   0.00000  Uiso   1.00
C709   C     0.84344   0.17466   0.56500   0.00000  Uiso   1.00
C710   C     0.91776   0.13753   0.56442   0.00000  Uiso   1.00
Cu711  Cu    0.78645   0.16666   0.75000   0.00000  Uiso   1.00
Cu712  Cu    0.88022   0.16667   0.75000   0.00000  Uiso   1.00
H713   H     0.76839   0.29592   0.72634   0.00000  Uiso   1.00
H714   H     0.76004   0.11407   0.68019   0.00000  Uiso   1.00
H715   H     0.94497   0.11479   0.68256   0.00000  Uiso   1.00
H716   H     0.82360   0.22407   0.60981   0.00000  Uiso   1.00
H717   H     0.72019   0.19361   0.91399   0.00000  Uiso   1.00
H718   H     0.74900   0.18126   0.55920   0.00000  Uiso   1.00
H719   H     0.67937   0.20851   0.55232   0.00000  Uiso   1.00
H720   H     0.86785   0.11163   0.87416   0.00000  Uiso   1.00
H721   H     0.94310   0.22153   0.79671   0.00000  Uiso   1.00
H722   H     0.92472   0.09492   0.92002   0.00000  Uiso   1.00
H723   H     0.95476   0.10383   0.99374   0.00000  Uiso   1.00
H724   H     0.89657   0.29481   0.77760   0.00000  Uiso   1.00
H725   H     0.96179   0.15275   0.60250   0.00000  Uiso   1.00
H726   H     0.92626   0.02263   0.79246   0.00000  Uiso   1.00
H727   H     0.76887   0.03708   0.72673   0.00000  Uiso   1.00
H728   H     0.69616   0.22154   0.79659   0.00000  Uiso   1.00
N729   N     0.71598   0.16666   0.74998   0.00000  Uiso   1.00
N730   N     0.95069   0.16669   0.74999   0.00000  Uiso   1.00
O731   O     0.79375   0.22678   0.75000   0.00000  Uiso   1.00
O732   O     0.90404   0.04247   0.78345   0.00000  Uiso   1.00
O733   O     0.72749   0.10337   0.69843   0.00000  Uiso   1.00
O734   O     0.96955   0.10404   0.69744   0.00000  Uiso   1.00
O735   O     0.81199   0.20772   0.58438   0.00000  Uiso   1.00
O736   O     0.68371   0.20502   0.51430   0.00000  Uiso   1.00
O737   O     0.87294   0.22679   0.75000   0.00000  Uiso   1.00
O738   O     0.77441   0.16665   0.82549   0.00000  Uiso   1.00
O739   O     0.85360   0.16666   0.82549   0.00000  Uiso   1.00
O740   O     0.79373   0.10654   0.74999   0.00000  Uiso   1.00
O741   O     0.87292   0.10655   0.74999   0.00000  Uiso   1.00
O742   O     0.81306   0.16667   0.67451   0.00000  Uiso   1.00
O743   O     0.89225   0.16668   0.67451   0.00000  Uiso   1.00
O744   O     0.95399   0.12741   0.58560   0.00000  Uiso   1.00
C745   C     0.16651   0.57920   0.75036   0.00000  Uiso   1.00
C746   C     0.12349   0.49878   0.90802   0.00000  Uiso   1.00
C747   C     0.20235   0.64495   0.76621   0.00000  Uiso   1.00
C748   C     0.14019   0.49875   0.85018   0.00000  Uiso   1.00
C749   C     0.20279   0.35455   0.76721   0.00000  Uiso   1.00
C750   C     0.16667   0.37601   0.75223   0.00000  Uiso   1.00
C751   C     0.13023   0.35446   0.73817   0.00000  Uiso   1.00
C752   C     0.12993   0.64527   0.73788   0.00000  Uiso   1.00
C753   C     0.16623   0.62377   0.75139   0.00000  Uiso   1.00
C754   C     0.30101   0.53044   0.77583   0.00000  Uiso   1.00
C755   C     0.01716   0.53045   0.77578   0.00000  Uiso   1.00
C756   C     0.14310   0.49607   0.99039   0.00000  Uiso   1.00
C757   C     0.03184   0.46904   0.72482   0.00000  Uiso   1.00
C758   C     0.31626   0.46914   0.72471   0.00000  Uiso   1.00
C759   C     0.16658   0.42074   0.75084   0.00000  Uiso   1.00
C760   C     0.19330   0.49951   0.64965   0.00000  Uiso   1.00
C761   C     0.25611   0.45581   0.51408   0.00000  Uiso   1.00
C762   C     0.20925   0.49482   0.59181   0.00000  Uiso   1.00
C763   C     0.07783   0.51664   0.93511   0.00000  Uiso   1.00
C764   C     0.06305   0.52203   0.98942   0.00000  Uiso   1.00
C765   C     0.09565   0.51186   0.51695   0.00000  Uiso   1.00
C766   C     0.15418   0.48475   0.93650   0.00000  Uiso   1.00
C767   C     0.17916   0.48928   0.51593   0.00000  Uiso   1.00
C768   C     0.22064   0.46421   0.99000   0.00000  Uiso   1.00
C769   C     0.22708   0.44820   0.93957   0.00000  Uiso   1.00
C770   C     0.19477   0.45872   0.91288   0.00000  Uiso   1.00
C771   C     0.17678   0.50800   0.56500   0.00000  Uiso   1.00
C772   C     0.25109   0.47086   0.56442   0.00000  Uiso   1.00
Cu773  Cu    0.11978   0.49999   0.75000   0.00000  Uiso   1.00
Cu774  Cu    0.21355   0.50001   0.75000   0.00000  Uiso   1.00
H775   H     0.10173   0.62925   0.72634   0.00000  Uiso   1.00
H776   H     0.09337   0.44741   0.68019   0.00000  Uiso   1.00
H777   H     0.27831   0.44813   0.68256   0.00000  Uiso   1.00
H778   H     0.15694   0.55741   0.60981   0.00000  Uiso   1.00
H779   H     0.05353   0.52694   0.91399   0.00000  Uiso   1.00
H780   H     0.08233   0.51459   0.55920   0.00000  Uiso   1.00
H781   H     0.01271   0.54185   0.55232   0.00000  Uiso   1.00
H782   H     0.20118   0.44496   0.87416   0.00000  Uiso   1.00
H783   H     0.27644   0.55486   0.79671   0.00000  Uiso   1.00
H784   H     0.25806   0.42826   0.92002   0.00000  Uiso   1.00
H785   H     0.28809   0.43716   0.99374   0.00000  Uiso   1.00
H786   H     0.22990   0.62814   0.77760   0.00000  Uiso   1.00
H787   H     0.29513   0.48608   0.60250   0.00000  Uiso   1.00
H788   H     0.25960   0.35596   0.79246   0.00000  Uiso   1.00
H789   H     0.10220   0.37042   0.72673   0.00000  Uiso   1.00
H790   H     0.02950   0.55488   0.79659   0.00000  Uiso   1.00
N791   N     0.04931   0.49999   0.74998   0.00000  Uiso   1.00
N792   N     0.28402   0.50002   0.74999   0.00000  Uiso   1.00
O793   O     0.12708   0.56011   0.75000   0.00000  Uiso   1.00
O794   O     0.23737   0.37580   0.78345   0.00000  Uiso   1.00
O795   O     0.06082   0.43670   0.69843   0.00000  Uiso   1.00
O796   O     0.30289   0.43738   0.69744   0.00000  Uiso   1.00
O797   O     0.14532   0.54105   0.58438   0.00000  Uiso   1.00
O798   O     0.01704   0.53835   0.51430   0.00000  Uiso   1.00
O799   O     0.20627   0.56012   0.75000   0.00000  Uiso   1.00
O800   O     0.10775   0.49998   0.82549   0.00000  Uiso   1.00
O801   O     0.18694   0.49999   0.82549   0.00000  Uiso   1.00
O802   O     0.12706   0.43988   0.74999   0.00000  Uiso   1.00
O803   O     0.20625   0.43989   0.74999   0.00000  Uiso   1.00
O804   O     0.14640   0.50001   0.67451   0.00000  Uiso   1.00
O805   O     0.22559   0.50002   0.67451   0.00000  Uiso   1.00
O806   O     0.28732   0.46074   0.58560   0.00000  Uiso   1.00
C807   C     0.49984   0.57920   0.75036   0.00000  Uiso   1.00
C808   C     0.45683   0.49878   0.90802   0.00000  Uiso   1.00
C809   C     0.53568   0.64495   0.76621   0.00000  Uiso   1.00
C810   C     0.47352   0.49875   0.85018   0.00000  Uiso   1.00
C811   C     0.53613   0.35455   0.76721   0.00000  Uiso   1.00
C812   C     0.50000   0.37601   0.75223   0.00000  Uiso   1.00
C813   C     0.46357   0.35446   0.73817   0.00000  Uiso   1.00
C814   C     0.46326   0.64527   0.73788   0.00000  Uiso   1.00
C815   C     0.49956   0.62377   0.75139   0.00000  Uiso   1.00
C816   C     0.63435   0.53044   0.77583   0.00000  Uiso   1.00
C817   C     0.35049   0.53045   0.77578   0.00000  Uiso   1.00
C818   C     0.47643   0.49607   0.99039   0.00000  Uiso   1.00
C819   C     0.36517   0.46904   0.72482   0.00000  Uiso   1.00
C820   C     0.64959   0.46914   0.72471   0.00000  Uiso   1.00
C821   C     0.49992   0.42074   0.75084   0.00000  Uiso   1.00
C822   C     0.52664   0.49951   0.64965   0.00000  Uiso   1.00
C823   C     0.58945   0.45581   0.51408   0.00000  Uiso   1.00
C824   C     0.54259   0.49482   0.59181   0.00000  Uiso   1.00
C825   C     0.41117   0.51664   0.93511   0.00000  Uiso   1.00
C826   C     0.39639   0.52203   0.98942   0.00000  Uiso   1.00
C827   C     0.42898   0.51186   0.51695   0.00000  Uiso   1.00
C828   C     0.48752   0.48475   0.93650   0.00000  Uiso   1.00
C829   C     0.51249   0.48928   0.51593   0.00000  Uiso   1.00
C830   C     0.55397   0.46421   0.99000   0.00000  Uiso   1.00
C831   C     0.56041   0.44820   0.93957   0.00000  Uiso   1.00
C832   C     0.52811   0.45872   0.91288   0.00000  Uiso   1.00
C833   C     0.51011   0.50800   0.56500   0.00000  Uiso   1.00
C834   C     0.58443   0.47086   0.56442   0.00000  Uiso   1.00
Cu835  Cu    0.45311   0.49999   0.75000   0.00000  Uiso   1.00
Cu836  Cu    0.54689   0.50001   0.75000   0.00000  Uiso   1.00
H837   H     0.43506   0.62925   0.72634   0.00000  Uiso   1.00
H838   H     0.42671   0.44741   0.68019   0.00000  Uiso   1.00
H839   H     0.61164   0.44813   0.68256   0.00000  Uiso   1.00
H840   H     0.49027   0.55741   0.60981   0.00000  Uiso   1.00
H841   H     0.38686   0.52694   0.91399   0.00000  Uiso   1.00
H842   H     0.41566   0.51459   0.55920   0.00000  Uiso   1.00
H843   H     0.34604   0.54185   0.55232   0.00000  Uiso   1.00
H844   H     0.53451   0.44496   0.87416   0.00000  Uiso   1.00
H845   H     0.60977   0.55486   0.79671   0.00000  Uiso   1.00
H846   H     0.59139   0.42826   0.92002   0.00000  Uiso   1.00
H847   H     0.62143   0.43716   0.99374   0.00000  Uiso   1.00
H848   H     0.56323   0.62814   0.77760   0.00000  Uiso   1.00
H849   H     0.62846   0.48608   0.60250   0.00000  Uiso   1.00
H850   H     0.59293   0.35596   0.79246   0.00000  Uiso   1.00
H851   H     0.43553   0.37042   0.72673   0.00000  Uiso   1.00
H852   H     0.36283   0.55488   0.79659   0.00000  Uiso   1.00
N853   N     0.38265   0.49999   0.74998   0.00000  Uiso   1.00
N854   N     0.61735   0.50002   0.74999   0.00000  Uiso   1.00
O855   O     0.46042   0.56011   0.75000   0.00000  Uiso   1.00
O856   O     0.57071   0.37580   0.78345   0.00000  Uiso   1.00
O857   O     0.39416   0.43670   0.69843   0.00000  Uiso   1.00
O858   O     0.63622   0.43738   0.69744   0.00000  Uiso   1.00
O859   O     0.47866   0.54105   0.58438   0.00000  Uiso   1.00
O860   O     0.35038   0.53835   0.51430   0.00000  Uiso   1.00
O861   O     0.53961   0.56012   0.75000   0.00000  Uiso   1.00
O862   O     0.44108   0.49998   0.82549   0.00000  Uiso   1.00
O863   O     0.52027   0.49999   0.82549   0.00000  Uiso   1.00
O864   O     0.46039   0.43988   0.74999   0.00000  Uiso   1.00
O865   O     0.53958   0.43989   0.74999   0.00000  Uiso   1.00
O866   O     0.47973   0.50001   0.67451   0.00000  Uiso   1.00
O867   O     0.55892   0.50002   0.67451   0.00000  Uiso   1.00
O868   O     0.62066   0.46074   0.58560   0.00000  Uiso   1.00
C869   C     0.83318   0.57920   0.75036   0.00000  Uiso   1.00
C870   C     0.79016   0.49878   0.90802   0.00000  Uiso   1.00
C871   C     0.86902   0.64495   0.76621   0.00000  Uiso   1.00
C872   C     0.80685   0.49875   0.85018   0.00000  Uiso   1.00
C873   C     0.86946   0.35455   0.76721   0.00000  Uiso   1.00
C874   C     0.83334   0.37601   0.75223   0.00000  Uiso   1.00
C875   C     0.79690   0.35446   0.73817   0.00000  Uiso   1.00
C876   C     0.79660   0.64527   0.73788   0.00000  Uiso   1.00
C877   C     0.83290   0.62377   0.75139   0.00000  Uiso   1.00
C878   C     0.96768   0.53044   0.77583   0.00000  Uiso   1.00
C879   C     0.68382   0.53045   0.77578   0.00000  Uiso   1.00
C880   C     0.80977   0.49607   0.99039   0.00000  Uiso   1.00
C881   C     0.69850   0.46904   0.72482   0.00000  Uiso   1.00
C882   C     0.98292   0.46914   0.72471   0.00000  Uiso   1.00
C883   C     0.83325   0.42074   0.75084   0.00000  Uiso   1.00
C884   C     0.85997   0.49951   0.64965   0.00000  Uiso   1.00
C885   C     0.92278   0.45581   0.51408   0.00000  Uiso   1.00
C886   C     0.87592   0.49482   0.59181   0.00000  Uiso   1.00
C887   C     0.74450   0.51664   0.93511   0.00000  Uiso   1.00
C888   C     0.72972   0.52203   0.98942   0.00000  Uiso   1.00
C889   C     0.76231   0.51186   0.51695   0.00000  Uiso   1.00
C890   C     0.82085   0.48475   0.93650   0.00000  Uiso   1.00
C891   C     0.84583   0.48928   0.51593   0.00000  Uiso   1.00
C892   C     0.88731   0.46421   0.99000   0.00000  Uiso   1.00
C893   C     0.89374   0.44820   0.93957   0.00000  Uiso   1.00
C894   C     0.86144   0.45872   0.91288   0.00000  Uiso   1.00
C895   C     0.84344   0.50800   0.56500   0.00000  Uiso   1.00
C896   C     0.91776   0.47086   0.56442   0.00000  Uiso   1.00
Cu897  Cu    0.78645   0.49999   0.75000   0.00000  Uiso   1.00
Cu898  Cu    0.88022   0.50001   0.75000   0.00000  Uiso   1.00
H899   H     0.76839   0.62925   0.72634   0.00000  Uiso   1.00
H900   H     0.76004   0.44741   0.68019   0.00000  Uiso   1.00
H901   H     0.94497   0.44813   0.68256   0.00000  Uiso   1.00
H902   H     0.82360   0.55741   0.60981   0.00000  Uiso   1.00
H903   H     0.72019   0.52694   0.91399   0.00000  Uiso   1.00
H904   H     0.74900   0.51459   0.55920   0.00000  Uiso   1.00
H905   H     0.67937   0.54185   0.55232   0.00000  Uiso   1.00
H906   H     0.86785   0.44496   0.87416   0.00000  Uiso   1.00
H907   H     0.94310   0.55486   0.79671   0.00000  Uiso   1.00
H908   H     0.92472   0.42826   0.92002   0.00000  Uiso   1.00
H909   H     0.95476   0.43716   0.99374   0.00000  Uiso   1.00
H910   H     0.89657   0.62814   0.77760   0.00000  Uiso   1.00
H911   H     0.96179   0.48608   0.60250   0.00000  Uiso   1.00
H912   H     0.92626   0.35596   0.79246   0.00000  Uiso   1.00
H913   H     0.76887   0.37042   0.72673   0.00000  Uiso   1.00
H914   H     0.69616   0.55488   0.79659   0.00000  Uiso   1.00
N915   N     0.71598   0.49999   0.74998   0.00000  Uiso   1.00
N916   N     0.95069   0.50002   0.74999   0.00000  Uiso   1.00
O917   O     0.79375   0.56011   0.75000   0.00000  Uiso   1.00
O918   O     0.90404   0.37580   0.78345   0.00000  Uiso   1.00
O919   O     0.72749   0.43670   0.69843   0.00000  Uiso   1.00
O920   O     0.96955   0.43738   0.69744   0.00000  Uiso   1.00
O921   O     0.81199   0.54105   0.58438   0.00000  Uiso   1.00
O922   O     0.68371   0.53835   0.51430   0.00000  Uiso   1.00
O923   O     0.87294   0.56012   0.75000   0.00000  Uiso   1.00
O924   O     0.77441   0.49998   0.82549   0.00000  Uiso   1.00
O925   O     0.85360   0.49999   0.82549   0.00000  Uiso   1.00
O926   O     0.79373   0.43988   0.74999   0.00000  Uiso   1.00
O927   O     0.87292   0.43989   0.74999   0.00000  Uiso   1.00
O928   O     0.81306   0.50001   0.67451   0.00000  Uiso   1.00
O929   O     0.89225   0.50002   0.67451   0.00000  Uiso   1.00
O930   O     0.95399   0.46074   0.58560   0.00000  Uiso   1.00
C931   C     0.16651   0.91253   0.75036   0.00000  Uiso   1.00
C932   C     0.12349   0.83211   0.90802   0.00000  Uiso   1.00
C933   C     0.20235   0.97828   0.76621   0.00000  Uiso   1.00
C934   C     0.14019   0.83208   0.85018   0.00000  Uiso   1.00
C935   C     0.20279   0.68788   0.76721   0.00000  Uiso   1.00
C936   C     0.16667   0.70935   0.75223   0.00000  Uiso   1.00
C937   C     0.13023   0.68780   0.73817   0.00000  Uiso   1.00
C938   C     0.12993   0.97861   0.73788   0.00000  Uiso   1.00
C939   C     0.16623   0.95710   0.75139   0.00000  Uiso   1.00
C940   C     0.30101   0.86377   0.77583   0.00000  Uiso   1.00
C941   C     0.01716   0.86378   0.77578   0.00000  Uiso   1.00
C942   C     0.14310   0.82940   0.99039   0.00000  Uiso   1.00
C943   C     0.03184   0.80237   0.72482   0.00000  Uiso   1.00
C944   C     0.31626   0.80248   0.72471   0.00000  Uiso   1.00
C945   C     0.16658   0.75407   0.75084   0.00000  Uiso   1.00
C946   C     0.19330   0.83284   0.64965   0.00000  Uiso   1.00
C947   C     0.25611   0.78914   0.51408   0.00000  Uiso   1.00
C948   C     0.20925   0.82815   0.59181   0.00000  Uiso   1.00
C949   C     0.07783   0.84998   0.93511   0.00000  Uiso   1.00
C950   C     0.06305   0.85536   0.98942   0.00000  Uiso   1.00
C951   C     0.09565   0.84519   0.51695   0.00000  Uiso   1.00
C952   C     0.15418   0.81809   0.93650   0.00000  Uiso   1.00
C953   C     0.17916   0.82262   0.51593   0.00000  Uiso   1.00
C954   C     0.22064   0.79754   0.99000   0.00000  Uiso   1.00
C955   C     0.22708   0.78153   0.93957   0.00000  Uiso   1.00
C956   C     0.19477   0.79205   0.91288   0.00000  Uiso   1.00
C957   C     0.17678   0.84133   0.56500   0.00000  Uiso   1.00
C958   C     0.25109   0.80419   0.56442   0.00000  Uiso   1.00
Cu959  Cu    0.11978   0.83333   0.75000   0.00000  Uiso   1.00
Cu960  Cu    0.21355   0.83334   0.75000   0.00000  Uiso   1.00
H961   H     0.10173   0.96259   0.72634   0.00000  Uiso   1.00
H962   H     0.09337   0.78074   0.68019   0.00000  Uiso   1.00
H963   H     0.27831   0.78146   0.68256   0.00000  Uiso   1.00
H964   H     0.15694   0.89074   0.60981   0.00000  Uiso   1.00
H965   H     0.05353   0.86027   0.91399   0.00000  Uiso   1.00
H966   H     0.08233   0.84793   0.55920   0.00000  Uiso   1.00
H967   H     0.01271   0.87518   0.55232   0.00000  Uiso   1.00
H968   H     0.20118   0.77830   0.87416   0.00000  Uiso   1.00
H969   H     0.27644   0.88819   0.79671   0.00000  Uiso   1.00
H970   H     0.25806   0.76159   0.92002   0.00000  Uiso   1.00
H971   H     0.28809   0.77050   0.99374   0.00000  Uiso   1.00
H972   H     0.22990   0.96147   0.77760   0.00000  Uiso   1.00
H973   H     0.29513   0.81942   0.60250   0.00000  Uiso   1.00
H974   H     0.25960   0.68929   0.79246   0.00000  Uiso   1.00
H975   H     0.10220   0.70375   0.72673   0.00000  Uiso   1.00
H976   H     0.02950   0.88821   0.79659   0.00000  Uiso   1.00
N977   N     0.04931   0.83332   0.74998   0.00000  Uiso   1.00
N978   N     0.28402   0.83335   0.74999   0.00000  Uiso   1.00
O979   O     0.12708   0.89345   0.75000   0.00000  Uiso   1.00
O980   O     0.23737   0.70914   0.78345   0.00000  Uiso   1.00
O981   O     0.06082   0.77004   0.69843   0.00000  Uiso   1.00
O982   O     0.30289   0.77071   0.69744   0.00000  Uiso   1.00
O983   O     0.14532   0.87439   0.58438   0.00000  Uiso   1.00
O984   O     0.01704   0.87168   0.51430   0.00000  Uiso   1.00
O985   O     0.20627   0.89346   0.75000   0.00000  Uiso   1.00
O986   O     0.10775   0.83332   0.82549   0.00000  Uiso   1.00
O987   O     0.18694   0.83333   0.82549   0.00000  Uiso   1.00
O988   O     0.12706   0.77321   0.74999   0.00000  Uiso   1.00
O989   O     0.20625   0.77322   0.74999   0.00000  Uiso   1.00
O990   O     0.14640   0.83334   0.67451   0.00000  Uiso   1.00
O991   O     0.22559   0.83335   0.67451   0.00000  Uiso   1.00
O992   O     0.28732   0.79407   0.58560   0.00000  Uiso   1.00
C993   C     0.49984   0.91253   0.75036   0.00000  Uiso   1.00
C994   C     0.45683   0.83211   0.90802   0.00000  Uiso   1.00
C995   C     0.53568   0.97828   0.76621   0.00000  Uiso   1.00
C996   C     0.47352   0.83208   0.85018   0.00000  Uiso   1.00
C997   C     0.53613   0.68788   0.76721   0.00000  Uiso   1.00
C998   C     0.50000   0.70935   0.75223   0.00000  Uiso   1.00
C999   C     0.46357   0.68780   0.73817   0.00000  Uiso   1.00
C1000  C     0.46326   0.97861   0.73788   0.00000  Uiso   1.00
C1001  C     0.49956   0.95710   0.75139   0.00000  Uiso   1.00
C1002  C     0.63435   0.86377   0.77583   0.00000  Uiso   1.00
C1003  C     0.35049   0.86378   0.77578   0.00000  Uiso   1.00
C1004  C     0.47643   0.82940   0.99039   0.00000  Uiso   1.00
C1005  C     0.36517   0.80237   0.72482   0.00000  Uiso   1.00
C1006  C     0.64959   0.80248   0.72471   0.00000  Uiso   1.00
C1007  C     0.49992   0.75407   0.75084   0.00000  Uiso   1.00
C1008  C     0.52664   0.83284   0.64965   0.00000  Uiso   1.00
C1009  C     0.58945   0.78914   0.51408   0.00000  Uiso   1.00
C1010  C     0.54259   0.82815   0.59181   0.00000  Uiso   1.00
C1011  C     0.41117   0.84998   0.93511   0.00000  Uiso   1.00
C1012  C     0.39639   0.85536   0.98942   0.00000  Uiso   1.00
C1013  C     0.42898   0.84519   0.51695   0.00000  Uiso   1.00
C1014  C     0.48752   0.81809   0.93650   0.00000  Uiso   1.00
C1015  C     0.51249   0.82262   0.51593   0.00000  Uiso   1.00
C1016  C     0.55397   0.79754   0.99000   0.00000  Uiso   1.00
C1017  C     0.56041   0.78153   0.93957   0.00000  Uiso   1.00
C1018  C     0.52811   0.79205   0.91288   0.00000  Uiso   1.00
C1019  C     0.51011   0.84133   0.56500   0.00000  Uiso   1.00
C1020  C     0.58443   0.80419   0.56442   0.00000  Uiso   1.00
Cu1021 Cu    0.45311   0.83333   0.75000   0.00000  Uiso   1.00
Cu1022 Cu    0.54689   0.83334   0.75000   0.00000  Uiso   1.00
H1023  H     0.43506   0.96259   0.72634   0.00000  Uiso   1.00
H1024  H     0.42671   0.78074   0.68019   0.00000  Uiso   1.00
H1025  H     0.61164   0.78146   0.68256   0.00000  Uiso   1.00
H1026  H     0.49027   0.89074   0.60981   0.00000  Uiso   1.00
H1027  H     0.38686   0.86027   0.91399   0.00000  Uiso   1.00
H1028  H     0.41566   0.84793   0.55920   0.00000  Uiso   1.00
H1029  H     0.34604   0.87518   0.55232   0.00000  Uiso   1.00
H1030  H     0.53451   0.77830   0.87416   0.00000  Uiso   1.00
H1031  H     0.60977   0.88819   0.79671   0.00000  Uiso   1.00
H1032  H     0.59139   0.76159   0.92002   0.00000  Uiso   1.00
H1033  H     0.62143   0.77050   0.99374   0.00000  Uiso   1.00
H1034  H     0.56323   0.96147   0.77760   0.00000  Uiso   1.00
H1035  H     0.62846   0.81942   0.60250   0.00000  Uiso   1.00
H1036  H     0.59293   0.68929   0.79246   0.00000  Uiso   1.00
H1037  H     0.43553   0.70375   0.72673   0.00000  Uiso   1.00
H1038  H     0.36283   0.88821   0.79659   0.00000  Uiso   1.00
N1039  N     0.38265   0.83332   0.74998   0.00000  Uiso   1.00
N1040  N     0.61735   0.83335   0.74999   0.00000  Uiso   1.00
O1041  O     0.46042   0.89345   0.75000   0.00000  Uiso   1.00
O1042  O     0.57071   0.70914   0.78345   0.00000  Uiso   1.00
O1043  O     0.39416   0.77004   0.69843   0.00000  Uiso   1.00
O1044  O     0.63622   0.77071   0.69744   0.00000  Uiso   1.00
O1045  O     0.47866   0.87439   0.58438   0.00000  Uiso   1.00
O1046  O     0.35038   0.87168   0.51430   0.00000  Uiso   1.00
O1047  O     0.53961   0.89346   0.75000   0.00000  Uiso   1.00
O1048  O     0.44108   0.83332   0.82549   0.00000  Uiso   1.00
O1049  O     0.52027   0.83333   0.82549   0.00000  Uiso   1.00
O1050  O     0.46039   0.77321   0.74999   0.00000  Uiso   1.00
O1051  O     0.53958   0.77322   0.74999   0.00000  Uiso   1.00
O1052  O     0.47973   0.83334   0.67451   0.00000  Uiso   1.00
O1053  O     0.55892   0.83335   0.67451   0.00000  Uiso   1.00
O1054  O     0.62066   0.79407   0.58560   0.00000  Uiso   1.00
C1055  C     0.83318   0.91253   0.75036   0.00000  Uiso   1.00
C1056  C     0.79016   0.83211   0.90802   0.00000  Uiso   1.00
C1057  C     0.86902   0.97828   0.76621   0.00000  Uiso   1.00
C1058  C     0.80685   0.83208   0.85018   0.00000  Uiso   1.00
C1059  C     0.86946   0.68788   0.76721   0.00000  Uiso   1.00
C1060  C     0.83334   0.70935   0.75223   0.00000  Uiso   1.00
C1061  C     0.79690   0.68780   0.73817   0.00000  Uiso   1.00
C1062  C     0.79660   0.97861   0.73788   0.00000  Uiso   1.00
C1063  C     0.83290   0.95710   0.75139   0.00000  Uiso   1.00
C1064  C     0.96768   0.86377   0.77583   0.00000  Uiso   1.00
C1065  C     0.68382   0.86378   0.77578   0.00000  Uiso   1.00
C1066  C     0.80977   0.82940   0.99039   0.00000  Uiso   1.00
C1067  C     0.69850   0.80237   0.72482   0.00000  Uiso   1.00
C1068  C     0.98292   0.80248   0.72471   0.00000  Uiso   1.00
C1069  C     0.83325   0.75407   0.75084   0.00000  Uiso   1.00
C1070  C     0.85997   0.83284   0.64965   0.00000  Uiso   1.00
C1071  C     0.92278   0.78914   0.51408   0.00000  Uiso   1.00
C1072  C     0.87592   0.82815   0.59181   0.00000  Uiso   1.00
C1073  C     0.74450   0.84998   0.93511   0.00000  Uiso   1.00
C1074  C     0.72972   0.85536   0.98942   0.00000  Uiso   1.00
C1075  C     0.76231   0.84519   0.51695   0.00000  Uiso   1.00
C1076  C     0.82085   0.81809   0.93650   0.00000  Uiso   1.00
C1077  C     0.84583   0.82262   0.51593   0.00000  Uiso   1.00
C1078  C     0.88731   0.79754   0.99000   0.00000  Uiso   1.00
C1079  C     0.89374   0.78153   0.93957   0.00000  Uiso   1.00
C1080  C     0.86144   0.79205   0.91288   0.00000  Uiso   1.00
C1081  C     0.84344   0.84133   0.56500   0.00000  Uiso   1.00
C1082  C     0.91776   0.80419   0.56442   0.00000  Uiso   1.00
Cu1083 Cu    0.78645   0.83333   0.75000   0.00000  Uiso   1.00
Cu1084 Cu    0.88022   0.83334   0.75000   0.00000  Uiso   1.00
H1085  H     0.76839   0.96259   0.72634   0.00000  Uiso   1.00
H1086  H     0.76004   0.78074   0.68019   0.00000  Uiso   1.00
H1087  H     0.94497   0.78146   0.68256   0.00000  Uiso   1.00
H1088  H     0.82360   0.89074   0.60981   0.00000  Uiso   1.00
H1089  H     0.72019   0.86027   0.91399   0.00000  Uiso   1.00
H1090  H     0.74900   0.84793   0.55920   0.00000  Uiso   1.00
H1091  H     0.67937   0.87518   0.55232   0.00000  Uiso   1.00
H1092  H     0.86785   0.77830   0.87416   0.00000  Uiso   1.00
H1093  H     0.94310   0.88819   0.79671   0.00000  Uiso   1.00
H1094  H     0.92472   0.76159   0.92002   0.00000  Uiso   1.00
H1095  H     0.95476   0.77050   0.99374   0.00000  Uiso   1.00
H1096  H     0.89657   0.96147   0.77760   0.00000  Uiso   1.00
H1097  H     0.96179   0.81942   0.60250   0.00000  Uiso   1.00
H1098  H     0.92626   0.68929   0.79246   0.00000  Uiso   1.00
H1099  H     0.76887   0.70375   0.72673   0.00000  Uiso   1.00
H1100  H     0.69616   0.88821   0.79659   0.00000  Uiso   1.00
N1101  N     0.71598   0.83332   0.74998   0.00000  Uiso   1.00
N1102  N     0.95069   0.83335   0.74999   0.00000  Uiso   1.00
O1103  O     0.79375   0.89345   0.75000   0.00000  Uiso   1.00
O1104  O     0.90404   0.70914   0.78345   0.00000  Uiso   1.00
O1105  O     0.72749   0.77004   0.69843   0.00000  Uiso   1.00
O1106  O     0.96955   0.77071   0.69744   0.00000  Uiso   1.00
O1107  O     0.81199   0.87439   0.58438   0.00000  Uiso   1.00
O1108  O     0.68371   0.87168   0.51430   0.00000  Uiso   1.00
O1109  O     0.87294   0.89346   0.75000   0.00000  Uiso   1.00
O1110  O     0.77441   0.83332   0.82549   0.00000  Uiso   1.00
O1111  O     0.85360   0.83333   0.82549   0.00000  Uiso   1.00
O1112  O     0.79373   0.77321   0.74999   0.00000  Uiso   1.00
O1113  O     0.87292   0.77322   0.74999   0.00000  Uiso   1.00
O1114  O     0.81306   0.83334   0.67451   0.00000  Uiso   1.00
O1115  O     0.89225   0.83335   0.67451   0.00000  Uiso   1.00
O1116  O     0.95399   0.79407   0.58560   0.00000  Uiso   1.00
loop_
_geom_bond_atom_site_label_1
_geom_bond_atom_site_label_2
_geom_bond_distance
_geom_bond_site_symmetry_2
_ccdc_geom_bond_type
C1     O55     1.295   .     A
C1     C9      1.448   .     S
C1     O49     1.296   .     A
C2     C22     1.415   .     A
C2     C4      1.475   .     S
C2     C19     1.402   .     A
C3     C9      1.399   .     A
C3     H42     1.084   .     S
C3     C191    1.395   .     S
C4     O57     1.302   .     A
C4     O56     1.301   .     A
C5     C6      1.412   .     A
C5     O50     1.383   .     S
C5     C375    1.395   1_545 S
C6     C7      1.402   .     A
C6     C15     1.456   .     S
C7     H45     1.082   .     S
C7     C380    1.382   1_545 S
C8     C9      1.397   .     A
C8     H31     1.083   .     S
C8     C193    1.382   .     S
C10    N48     1.369   .     A
C10    H39     1.081   .     S
C10    C73     1.421   .     S
C11    N47     1.369   .     A
C11    H46     1.082   .     S
C11    C134    1.421   1_455 S
C12    C22     1.418   .     A
C12    C579    1.415   .     S
C12    C581    1.428   .     S
C13    N47     1.378   .     A
C13    O51     1.374   .     S
C13    C138    1.407   1_455 S
C14    N48     1.376   .     A
C14    O52     1.374   .     S
C14    C75     1.407   .     S
C15    O59     1.295   .     A
C15    O58     1.300   .     A
C16    O60     1.305   .     A
C16    O61     1.300   .     A
C16    C18     1.478   .     S
C17    C28     1.388   .     A
C17    C582    1.395   1_554 S
C17    H599    1.085   1_554 S
C18    C28     1.417   .     A
C18    C27     1.415   .     A
C19    C20     1.391   .     A
C19    H35     1.084   .     S
C20    C579    1.404   .     S
C20    O612    1.380   .     S
C21    H36     1.079   .     S
C21    C578    1.404   1_554 S
C21    C570    1.415   1_554 S
C22    C26     1.409   .     A
C23    C27     1.417   .     A
C23    C570    1.428   1_554 S
C23    C582    1.420   1_554 S
C24    C25     1.393   .     A
C24    C575    1.395   .     S
C24    C581    1.420   .     S
C25    C26     1.384   .     A
C25    H40     1.084   .     S
C26    H38     1.081   .     S
C27    O53     1.383   .     S
C28    O62     1.375   .     S
Cu29   O56     1.945   .     S
Cu29   O60     1.930   .     S
Cu29   O49     1.966   .     S
Cu29   O58     1.965   .     S
Cu29   Cu30    2.695   .     S
Cu29   N47     2.025   .     S
Cu30   O55     1.965   .     S
Cu30   O59     1.966   .     S
Cu30   N48     2.025   .     S
Cu30   O57     1.930   .     S
Cu30   O61     1.945   .     S
H32    O51     0.981   .     S
H33    O52     0.980   .     S
H34    O53     0.991   .     S
H37    O54     0.991   .     S
H41    C575    1.085   .     S
H43    O62     0.990   .     S
H44    O50     0.992   .     S
O54    C578    1.380   1_554 S
C63    O117    1.295   .     A
C63    C71     1.448   .     S
C63    O111    1.296   .     A
C64    C84     1.415   .     A
C64    C66     1.475   .     S
C64    C81     1.402   .     A
C65    C71     1.399   .     A
C65    H104    1.084   .     S
C65    C253    1.395   .     S
C66    O119    1.302   .     A
C66    O118    1.301   .     A
C67    C68     1.412   .     A
C67    O112    1.383   .     S
C67    C437    1.395   1_545 S
C68    C69     1.402   .     A
C68    C77     1.456   .     S
C69    H107    1.082   .     S
C69    C442    1.382   1_545 S
C70    C71     1.397   .     A
C70    H93     1.083   .     S
C70    C255    1.382   .     S
C72    N110    1.369   .     A
C72    H101    1.081   .     S
C72    C135    1.421   .     S
C73    N109    1.369   .     A
C73    H108    1.082   .     S
C74    C84     1.418   .     A
C74    C641    1.415   .     S
C74    C643    1.428   .     S
C75    N109    1.378   .     A
C75    O113    1.374   .     S
C76    N110    1.376   .     A
C76    O114    1.374   .     S
C76    C137    1.407   .     S
C77    O121    1.295   .     A
C77    O120    1.300   .     A
C78    O122    1.305   .     A
C78    O123    1.300   .     A
C78    C80     1.478   .     S
C79    C90     1.388   .     A
C79    C644    1.395   1_554 S
C79    H661    1.085   1_554 S
C80    C90     1.417   .     A
C80    C89     1.415   .     A
C81    C82     1.391   .     A
C81    H97     1.084   .     S
C82    C641    1.404   .     S
C82    O674    1.380   .     S
C83    H98     1.079   .     S
C83    C640    1.404   1_554 S
C83    C632    1.415   1_554 S
C84    C88     1.409   .     A
C85    C89     1.417   .     A
C85    C632    1.428   1_554 S
C85    C644    1.420   1_554 S
C86    C87     1.393   .     A
C86    C637    1.395   .     S
C86    C643    1.420   .     S
C87    C88     1.384   .     A
C87    H102    1.084   .     S
C88    H100    1.081   .     S
C89    O115    1.383   .     S
C90    O124    1.375   .     S
Cu91   O118    1.945   .     S
Cu91   O122    1.930   .     S
Cu91   O111    1.966   .     S
Cu91   O120    1.965   .     S
Cu91   Cu92    2.695   .     S
Cu91   N109    2.025   .     S
Cu92   O117    1.965   .     S
Cu92   O121    1.966   .     S
Cu92   N110    2.025   .     S
Cu92   O119    1.930   .     S
Cu92   O123    1.945   .     S
H94    O113    0.981   .     S
H95    O114    0.980   .     S
H96    O115    0.991   .     S
H99    O116    0.991   .     S
H103   C637    1.085   .     S
H105   O124    0.990   .     S
H106   O112    0.992   .     S
O116   C640    1.380   1_554 S
C125   O179    1.295   .     A
C125   C133    1.448   .     S
C125   O173    1.296   .     A
C126   C146    1.415   .     A
C126   C128    1.475   .     S
C126   C143    1.402   .     A
C127   C133    1.399   .     A
C127   H166    1.084   .     S
C127   C315    1.395   .     S
C128   O181    1.302   .     A
C128   O180    1.301   .     A
C129   C130    1.412   .     A
C129   O174    1.383   .     S
C129   C499    1.395   1_545 S
C130   C131    1.402   .     A
C130   C139    1.456   .     S
C131   H169    1.082   .     S
C131   C504    1.382   1_545 S
C132   C133    1.397   .     A
C132   H155    1.083   .     S
C132   C317    1.382   .     S
C134   N172    1.369   .     A
C134   H163    1.081   .     S
C134   C11     1.421   1_655 S
C135   N171    1.369   .     A
C135   H170    1.082   .     S
C136   C146    1.418   .     A
C136   C703    1.415   .     S
C136   C705    1.428   .     S
C137   N171    1.378   .     A
C137   O175    1.374   .     S
C138   N172    1.376   .     A
C138   O176    1.374   .     S
C138   C13     1.407   1_655 S
C139   O183    1.295   .     A
C139   O182    1.300   .     A
C140   O184    1.305   .     A
C140   O185    1.300   .     A
C140   C142    1.478   .     S
C141   C152    1.388   .     A
C141   C706    1.395   1_554 S
C141   H723    1.085   1_554 S
C142   C152    1.417   .     A
C142   C151    1.415   .     A
C143   C144    1.391   .     A
C143   H159    1.084   .     S
C144   C703    1.404   .     S
C144   O736    1.380   .     S
C145   H160    1.079   .     S
C145   C702    1.404   1_554 S
C145   C694    1.415   1_554 S
C146   C150    1.409   .     A
C147   C151    1.417   .     A
C147   C694    1.428   1_554 S
C147   C706    1.420   1_554 S
C148   C149    1.393   .     A
C148   C699    1.395   .     S
C148   C705    1.420   .     S
C149   C150    1.384   .     A
C149   H164    1.084   .     S
C150   H162    1.081   .     S
C151   O177    1.383   .     S
C152   O186    1.375   .     S
Cu153  O180    1.945   .     S
Cu153  O184    1.930   .     S
Cu153  O173    1.966   .     S
Cu153  O182    1.965   .     S
Cu153  Cu154   2.695   .     S
Cu153  N171    2.025   .     S
Cu154  O179    1.965   .     S
Cu154  O183    1.966   .     S
Cu154  N172    2.025   .     S
Cu154  O181    1.930   .     S
Cu154  O185    1.945   .     S
H156   O175    0.981   .     S
H157   O176    0.980   .     S
H158   O177    0.991   .     S
H161   O178    0.991   .     S
H165   C699    1.085   .     S
H167   O186    0.990   .     S
H168   O174    0.992   .     S
O178   C702    1.380   1_554 S
C187   O241    1.295   .     A
C187   C195    1.448   .     S
C187   O235    1.296   .     A
C188   C208    1.415   .     A
C188   C190    1.475   .     S
C188   C205    1.402   .     A
C189   C195    1.399   .     A
C189   H228    1.084   .     S
C189   C377    1.395   .     S
C190   O243    1.302   .     A
C190   O242    1.301   .     A
C191   C192    1.412   .     A
C191   O236    1.383   .     S
C192   C193    1.402   .     A
C192   C201    1.456   .     S
C193   H231    1.082   .     S
C194   C195    1.397   .     A
C194   H217    1.083   .     S
C194   C379    1.382   .     S
C196   N234    1.369   .     A
C196   H225    1.081   .     S
C196   C259    1.421   .     S
C197   N233    1.369   .     A
C197   H232    1.082   .     S
C197   C320    1.421   1_455 S
C198   C208    1.418   .     A
C198   C765    1.415   .     S
C198   C767    1.428   .     S
C199   N233    1.378   .     A
C199   O237    1.374   .     S
C199   C324    1.407   1_455 S
C200   N234    1.376   .     A
C200   O238    1.374   .     S
C200   C261    1.407   .     S
C201   O245    1.295   .     A
C201   O244    1.300   .     A
C202   O246    1.305   .     A
C202   O247    1.300   .     A
C202   C204    1.478   .     S
C203   C214    1.388   .     A
C203   C768    1.395   1_554 S
C203   H785    1.085   1_554 S
C204   C214    1.417   .     A
C204   C213    1.415   .     A
C205   C206    1.391   .     A
C205   H221    1.084   .     S
C206   C765    1.404   .     S
C206   O798    1.380   .     S
C207   H222    1.079   .     S
C207   C764    1.404   1_554 S
C207   C756    1.415   1_554 S
C208   C212    1.409   .     A
C209   C213    1.417   .     A
C209   C756    1.428   1_554 S
C209   C768    1.420   1_554 S
C210   C211    1.393   .     A
C210   C761    1.395   .     S
C210   C767    1.420   .     S
C211   C212    1.384   .     A
C211   H226    1.084   .     S
C212   H224    1.081   .     S
C213   O239    1.383   .     S
C214   O248    1.375   .     S
Cu215  O242    1.945   .     S
Cu215  O246    1.930   .     S
Cu215  O235    1.966   .     S
Cu215  O244    1.965   .     S
Cu215  Cu216   2.695   .     S
Cu215  N233    2.025   .     S
Cu216  O241    1.965   .     S
Cu216  O245    1.966   .     S
Cu216  N234    2.025   .     S
Cu216  O243    1.930   .     S
Cu216  O247    1.945   .     S
H218   O237    0.981   .     S
H219   O238    0.980   .     S
H220   O239    0.991   .     S
H223   O240    0.991   .     S
H227   C761    1.085   .     S
H229   O248    0.990   .     S
H230   O236    0.992   .     S
O240   C764    1.380   1_554 S
C249   O303    1.295   .     A
C249   C257    1.448   .     S
C249   O297    1.296   .     A
C250   C270    1.415   .     A
C250   C252    1.475   .     S
C250   C267    1.402   .     A
C251   C257    1.399   .     A
C251   H290    1.084   .     S
C251   C439    1.395   .     S
C252   O305    1.302   .     A
C252   O304    1.301   .     A
C253   C254    1.412   .     A
C253   O298    1.383   .     S
C254   C255    1.402   .     A
C254   C263    1.456   .     S
C255   H293    1.082   .     S
C256   C257    1.397   .     A
C256   H279    1.083   .     S
C256   C441    1.382   .     S
C258   N296    1.369   .     A
C258   H287    1.081   .     S
C258   C321    1.421   .     S
C259   N295    1.369   .     A
C259   H294    1.082   .     S
C260   C270    1.418   .     A
C260   C827    1.415   .     S
C260   C829    1.428   .     S
C261   N295    1.378   .     A
C261   O299    1.374   .     S
C262   N296    1.376   .     A
C262   O300    1.374   .     S
C262   C323    1.407   .     S
C263   O307    1.295   .     A
C263   O306    1.300   .     A
C264   O308    1.305   .     A
C264   O309    1.300   .     A
C264   C266    1.478   .     S
C265   C276    1.388   .     A
C265   C830    1.395   1_554 S
C265   H847    1.085   1_554 S
C266   C276    1.417   .     A
C266   C275    1.415   .     A
C267   C268    1.391   .     A
C267   H283    1.084   .     S
C268   C827    1.404   .     S
C268   O860    1.380   .     S
C269   H284    1.079   .     S
C269   C826    1.404   1_554 S
C269   C818    1.415   1_554 S
C270   C274    1.409   .     A
C271   C275    1.417   .     A
C271   C818    1.428   1_554 S
C271   C830    1.420   1_554 S
C272   C273    1.393   .     A
C272   C823    1.395   .     S
C272   C829    1.420   .     S
C273   C274    1.384   .     A
C273   H288    1.084   .     S
C274   H286    1.081   .     S
C275   O301    1.383   .     S
C276   O310    1.375   .     S
Cu277  O304    1.945   .     S
Cu277  O308    1.930   .     S
Cu277  O297    1.966   .     S
Cu277  O306    1.965   .     S
Cu277  Cu278   2.695   .     S
Cu277  N295    2.025   .     S
Cu278  O303    1.965   .     S
Cu278  O307    1.966   .     S
Cu278  N296    2.025   .     S
Cu278  O305    1.930   .     S
Cu278  O309    1.945   .     S
H280   O299    0.981   .     S
H281   O300    0.980   .     S
H282   O301    0.991   .     S
H285   O302    0.991   .     S
H289   C823    1.085   .     S
H291   O310    0.990   .     S
H292   O298    0.992   .     S
O302   C826    1.380   1_554 S
C311   O365    1.295   .     A
C311   C319    1.448   .     S
C311   O359    1.296   .     A
C312   C332    1.415   .     A
C312   C314    1.475   .     S
C312   C329    1.402   .     A
C313   C319    1.399   .     A
C313   H352    1.084   .     S
C313   C501    1.395   .     S
C314   O367    1.302   .     A
C314   O366    1.301   .     A
C315   C316    1.412   .     A
C315   O360    1.383   .     S
C316   C317    1.402   .     A
C316   C325    1.456   .     S
C317   H355    1.082   .     S
C318   C319    1.397   .     A
C318   H341    1.083   .     S
C318   C503    1.382   .     S
C320   N358    1.369   .     A
C320   H349    1.081   .     S
C320   C197    1.421   1_655 S
C321   N357    1.369   .     A
C321   H356    1.082   .     S
C322   C332    1.418   .     A
C322   C889    1.415   .     S
C322   C891    1.428   .     S
C323   N357    1.378   .     A
C323   O361    1.374   .     S
C324   N358    1.376   .     A
C324   O362    1.374   .     S
C324   C199    1.407   1_655 S
C325   O369    1.295   .     A
C325   O368    1.300   .     A
C326   O370    1.305   .     A
C326   O371    1.300   .     A
C326   C328    1.478   .     S
C327   C338    1.388   .     A
C327   C892    1.395   1_554 S
C327   H909    1.085   1_554 S
C328   C338    1.417   .     A
C328   C337    1.415   .     A
C329   C330    1.391   .     A
C329   H345    1.084   .     S
C330   C889    1.404   .     S
C330   O922    1.380   .     S
C331   H346    1.079   .     S
C331   C888    1.404   1_554 S
C331   C880    1.415   1_554 S
C332   C336    1.409   .     A
C333   C337    1.417   .     A
C333   C880    1.428   1_554 S
C333   C892    1.420   1_554 S
C334   C335    1.393   .     A
C334   C885    1.395   .     S
C334   C891    1.420   .     S
C335   C336    1.384   .     A
C335   H350    1.084   .     S
C336   H348    1.081   .     S
C337   O363    1.383   .     S
C338   O372    1.375   .     S
Cu339  O366    1.945   .     S
Cu339  O370    1.930   .     S
Cu339  O359    1.966   .     S
Cu339  O368    1.965   .     S
Cu339  Cu340   2.695   .     S
Cu339  N357    2.025   .     S
Cu340  O365    1.965   .     S
Cu340  O369    1.966   .     S
Cu340  N358    2.025   .     S
Cu340  O367    1.930   .     S
Cu340  O371    1.945   .     S
H342   O361    0.981   .     S
H343   O362    0.980   .     S
H344   O363    0.991   .     S
H347   O364    0.991   .     S
H351   C885    1.085   .     S
H353   O372    0.990   .     S
H354   O360    0.992   .     S
O364   C888    1.380   1_554 S
C373   O427    1.295   .     A
C373   C381    1.448   .     S
C373   O421    1.296   .     A
C374   C394    1.415   .     A
C374   C376    1.475   .     S
C374   C391    1.402   .     A
C375   C381    1.399   .     A
C375   H414    1.084   .     S
C375   C5      1.395   1_565 S
C376   O429    1.302   .     A
C376   O428    1.301   .     A
C377   C378    1.412   .     A
C377   O422    1.383   .     S
C378   C379    1.402   .     A
C378   C387    1.456   .     S
C379   H417    1.082   .     S
C380   C381    1.397   .     A
C380   H403    1.083   .     S
C380   C7      1.382   1_565 S
C382   N420    1.369   .     A
C382   H411    1.081   .     S
C382   C445    1.421   .     S
C383   N419    1.369   .     A
C383   H418    1.082   .     S
C383   C506    1.421   1_455 S
C384   C394    1.418   .     A
C384   C951    1.415   .     S
C384   C953    1.428   .     S
C385   N419    1.378   .     A
C385   O423    1.374   .     S
C385   C510    1.407   1_455 S
C386   N420    1.376   .     A
C386   O424    1.374   .     S
C386   C447    1.407   .     S
C387   O431    1.295   .     A
C387   O430    1.300   .     A
C388   O432    1.305   .     A
C388   O433    1.300   .     A
C388   C390    1.478   .     S
C389   C400    1.388   .     A
C389   C954    1.395   1_554 S
C389   H971    1.085   1_554 S
C390   C400    1.417   .     A
C390   C399    1.415   .     A
C391   C392    1.391   .     A
C391   H407    1.084   .     S
C392   C951    1.404   .     S
C392   O984    1.380   .     S
C393   H408    1.079   .     S
C393   C950    1.404   1_554 S
C393   C942    1.415   1_554 S
C394   C398    1.409   .     A
C395   C399    1.417   .     A
C395   C942    1.428   1_554 S
C395   C954    1.420   1_554 S
C396   C397    1.393   .     A
C396   C947    1.395   .     S
C396   C953    1.420   .     S
C397   C398    1.384   .     A
C397   H412    1.084   .     S
C398   H410    1.081   .     S
C399   O425    1.383   .     S
C400   O434    1.375   .     S
Cu401  O428    1.945   .     S
Cu401  O432    1.930   .     S
Cu401  O421    1.966   .     S
Cu401  O430    1.965   .     S
Cu401  Cu402   2.695   .     S
Cu401  N419    2.025   .     S
Cu402  O427    1.965   .     S
Cu402  O431    1.966   .     S
Cu402  N420    2.025   .     S
Cu402  O429    1.930   .     S
Cu402  O433    1.945   .     S
H404   O423    0.981   .     S
H405   O424    0.980   .     S
H406   O425    0.991   .     S
H409   O426    0.991   .     S
H413   C947    1.085   .     S
H415   O434    0.990   .     S
H416   O422    0.992   .     S
O426   C950    1.380   1_554 S
C435   O489    1.295   .     A
C435   C443    1.448   .     S
C435   O483    1.296   .     A
C436   C456    1.415   .     A
C436   C438    1.475   .     S
C436   C453    1.402   .     A
C437   C443    1.399   .     A
C437   H476    1.084   .     S
C437   C67     1.395   1_565 S
C438   O491    1.302   .     A
C438   O490    1.301   .     A
C439   C440    1.412   .     A
C439   O484    1.383   .     S
C440   C441    1.402   .     A
C440   C449    1.456   .     S
C441   H479    1.082   .     S
C442   C443    1.397   .     A
C442   H465    1.083   .     S
C442   C69     1.382   1_565 S
C444   N482    1.369   .     A
C444   H473    1.081   .     S
C444   C507    1.421   .     S
C445   N481    1.369   .     A
C445   H480    1.082   .     S
C446   C456    1.418   .     A
C446   C1013   1.415   .     S
C446   C1015   1.428   .     S
C447   N481    1.378   .     A
C447   O485    1.374   .     S
C448   N482    1.376   .     A
C448   O486    1.374   .     S
C448   C509    1.407   .     S
C449   O493    1.295   .     A
C449   O492    1.300   .     A
C450   O494    1.305   .     A
C450   O495    1.300   .     A
C450   C452    1.478   .     S
C451   C462    1.388   .     A
C451   C1016   1.395   1_554 S
C451   H1033   1.085   1_554 S
C452   C462    1.417   .     A
C452   C461    1.415   .     A
C453   C454    1.391   .     A
C453   H469    1.084   .     S
C454   C1013   1.404   .     S
C454   O1046   1.380   .     S
C455   H470    1.079   .     S
C455   C1012   1.404   1_554 S
C455   C1004   1.415   1_554 S
C456   C460    1.409   .     A
C457   C461    1.417   .     A
C457   C1004   1.428   1_554 S
C457   C1016   1.420   1_554 S
C458   C459    1.393   .     A
C458   C1009   1.395   .     S
C458   C1015   1.420   .     S
C459   C460    1.384   .     A
C459   H474    1.084   .     S
C460   H472    1.081   .     S
C461   O487    1.383   .     S
C462   O496    1.375   .     S
Cu463  O490    1.945   .     S
Cu463  O494    1.930   .     S
Cu463  O483    1.966   .     S
Cu463  O492    1.965   .     S
Cu463  Cu464   2.695   .     S
Cu463  N481    2.025   .     S
Cu464  O489    1.965   .     S
Cu464  O493    1.966   .     S
Cu464  N482    2.025   .     S
Cu464  O491    1.930   .     S
Cu464  O495    1.945   .     S
H466   O485    0.981   .     S
H467   O486    0.980   .     S
H468   O487    0.991   .     S
H471   O488    0.991   .     S
H475   C1009   1.085   .     S
H477   O496    0.990   .     S
H478   O484    0.992   .     S
O488   C1012   1.380   1_554 S
C497   O551    1.295   .     A
C497   C505    1.448   .     S
C497   O545    1.296   .     A
C498   C518    1.415   .     A
C498   C500    1.475   .     S
C498   C515    1.402   .     A
C499   C505    1.399   .     A
C499   H538    1.084   .     S
C499   C129    1.395   1_565 S
C500   O553    1.302   .     A
C500   O552    1.301   .     A
C501   C502    1.412   .     A
C501   O546    1.383   .     S
C502   C503    1.402   .     A
C502   C511    1.456   .     S
C503   H541    1.082   .     S
C504   C505    1.397   .     A
C504   H527    1.083   .     S
C504   C131    1.382   1_565 S
C506   N544    1.369   .     A
C506   H535    1.081   .     S
C506   C383    1.421   1_655 S
C507   N543    1.369   .     A
C507   H542    1.082   .     S
C508   C518    1.418   .     A
C508   C1075   1.415   .     S
C508   C1077   1.428   .     S
C509   N543    1.378   .     A
C509   O547    1.374   .     S
C510   N544    1.376   .     A
C510   O548    1.374   .     S
C510   C385    1.407   1_655 S
C511   O555    1.295   .     A
C511   O554    1.300   .     A
C512   O556    1.305   .     A
C512   O557    1.300   .     A
C512   C514    1.478   .     S
C513   C524    1.388   .     A
C513   C1078   1.395   1_554 S
C513   H1095   1.085   1_554 S
C514   C524    1.417   .     A
C514   C523    1.415   .     A
C515   C516    1.391   .     A
C515   H531    1.084   .     S
C516   C1075   1.404   .     S
C516   O1108   1.380   .     S
C517   H532    1.079   .     S
C517   C1074   1.404   1_554 S
C517   C1066   1.415   1_554 S
C518   C522    1.409   .     A
C519   C523    1.417   .     A
C519   C1066   1.428   1_554 S
C519   C1078   1.420   1_554 S
C520   C521    1.393   .     A
C520   C1071   1.395   .     S
C520   C1077   1.420   .     S
C521   C522    1.384   .     A
C521   H536    1.084   .     S
C522   H534    1.081   .     S
C523   O549    1.383   .     S
C524   O558    1.375   .     S
Cu525  O552    1.945   .     S
Cu525  O556    1.930   .     S
Cu525  O545    1.966   .     S
Cu525  O554    1.965   .     S
Cu525  Cu526   2.695   .     S
Cu525  N543    2.025   .     S
Cu526  O551    1.965   .     S
Cu526  O555    1.966   .     S
Cu526  N544    2.025   .     S
Cu526  O553    1.930   .     S
Cu526  O557    1.945   .     S
H528   O547    0.981   .     S
H529   O548    0.980   .     S
H530   O549    0.991   .     S
H533   O550    0.991   .     S
H537   C1071   1.085   .     S
H539   O558    0.990   .     S
H540   O546    0.992   .     S
O550   C1074   1.380   1_554 S
C559   O613    1.295   .     A
C559   C567    1.448   .     S
C559   O607    1.296   .     A
C560   C580    1.415   .     A
C560   C562    1.475   .     S
C560   C577    1.402   .     A
C561   C567    1.399   .     A
C561   H600    1.084   .     S
C561   C749    1.395   .     S
C562   O615    1.302   .     A
C562   O614    1.301   .     A
C563   C564    1.412   .     A
C563   O608    1.383   .     S
C563   C933    1.395   1_545 S
C564   C565    1.402   .     A
C564   C573    1.456   .     S
C565   H603    1.082   .     S
C565   C938    1.382   1_545 S
C566   C567    1.397   .     A
C566   H589    1.083   .     S
C566   C751    1.382   .     S
C568   N606    1.369   .     A
C568   H597    1.081   .     S
C568   C631    1.421   .     S
C569   N605    1.369   .     A
C569   H604    1.082   .     S
C569   C692    1.421   1_455 S
C570   C580    1.418   .     A
C570   C21     1.415   1_556 S
C570   C23     1.428   1_556 S
C571   N605    1.378   .     A
C571   O609    1.374   .     S
C571   C696    1.407   1_455 S
C572   N606    1.376   .     A
C572   O610    1.374   .     S
C572   C633    1.407   .     S
C573   O617    1.295   .     A
C573   O616    1.300   .     A
C574   O618    1.305   .     A
C574   O619    1.300   .     A
C574   C576    1.478   .     S
C575   C586    1.388   .     A
C576   C586    1.417   .     A
C576   C585    1.415   .     A
C577   C578    1.391   .     A
C577   H593    1.084   .     S
C578   C21     1.404   1_556 S
C578   O54     1.380   1_556 S
C579   H594    1.079   .     S
C580   C584    1.409   .     A
C581   C585    1.417   .     A
C582   C583    1.393   .     A
C582   C17     1.395   1_556 S
C582   C23     1.420   1_556 S
C583   C584    1.384   .     A
C583   H598    1.084   .     S
C584   H596    1.081   .     S
C585   O611    1.383   .     S
C586   O620    1.375   .     S
Cu587  O614    1.945   .     S
Cu587  O618    1.930   .     S
Cu587  O607    1.966   .     S
Cu587  O616    1.965   .     S
Cu587  Cu588   2.695   .     S
Cu587  N605    2.025   .     S
Cu588  O613    1.965   .     S
Cu588  O617    1.966   .     S
Cu588  N606    2.025   .     S
Cu588  O615    1.930   .     S
Cu588  O619    1.945   .     S
H590   O609    0.981   .     S
H591   O610    0.980   .     S
H592   O611    0.991   .     S
H595   O612    0.991   .     S
H599   C17     1.085   1_556 S
H601   O620    0.990   .     S
H602   O608    0.992   .     S
C621   O675    1.295   .     A
C621   C629    1.448   .     S
C621   O669    1.296   .     A
C622   C642    1.415   .     A
C622   C624    1.475   .     S
C622   C639    1.402   .     A
C623   C629    1.399   .     A
C623   H662    1.084   .     S
C623   C811    1.395   .     S
C624   O677    1.302   .     A
C624   O676    1.301   .     A
C625   C626    1.412   .     A
C625   O670    1.383   .     S
C625   C995    1.395   1_545 S
C626   C627    1.402   .     A
C626   C635    1.456   .     S
C627   H665    1.082   .     S
C627   C1000   1.382   1_545 S
C628   C629    1.397   .     A
C628   H651    1.083   .     S
C628   C813    1.382   .     S
C630   N668    1.369   .     A
C630   H659    1.081   .     S
C630   C693    1.421   .     S
C631   N667    1.369   .     A
C631   H666    1.082   .     S
C632   C642    1.418   .     A
C632   C83     1.415   1_556 S
C632   C85     1.428   1_556 S
C633   N667    1.378   .     A
C633   O671    1.374   .     S
C634   N668    1.376   .     A
C634   O672    1.374   .     S
C634   C695    1.407   .     S
C635   O679    1.295   .     A
C635   O678    1.300   .     A
C636   O680    1.305   .     A
C636   O681    1.300   .     A
C636   C638    1.478   .     S
C637   C648    1.388   .     A
C638   C648    1.417   .     A
C638   C647    1.415   .     A
C639   C640    1.391   .     A
C639   H655    1.084   .     S
C640   C83     1.404   1_556 S
C640   O116    1.380   1_556 S
C641   H656    1.079   .     S
C642   C646    1.409   .     A
C643   C647    1.417   .     A
C644   C645    1.393   .     A
C644   C79     1.395   1_556 S
C644   C85     1.420   1_556 S
C645   C646    1.384   .     A
C645   H660    1.084   .     S
C646   H658    1.081   .     S
C647   O673    1.383   .     S
C648   O682    1.375   .     S
Cu649  O676    1.945   .     S
Cu649  O680    1.930   .     S
Cu649  O669    1.966   .     S
Cu649  O678    1.965   .     S
Cu649  Cu650   2.695   .     S
Cu649  N667    2.025   .     S
Cu650  O675    1.965   .     S
Cu650  O679    1.966   .     S
Cu650  N668    2.025   .     S
Cu650  O677    1.930   .     S
Cu650  O681    1.945   .     S
H652   O671    0.981   .     S
H653   O672    0.980   .     S
H654   O673    0.991   .     S
H657   O674    0.991   .     S
H661   C79     1.085   1_556 S
H663   O682    0.990   .     S
H664   O670    0.992   .     S
C683   O737    1.295   .     A
C683   C691    1.448   .     S
C683   O731    1.296   .     A
C684   C704    1.415   .     A
C684   C686    1.475   .     S
C684   C701    1.402   .     A
C685   C691    1.399   .     A
C685   H724    1.084   .     S
C685   C873    1.395   .     S
C686   O739    1.302   .     A
C686   O738    1.301   .     A
C687   C688    1.412   .     A
C687   O732    1.383   .     S
C687   C1057   1.395   1_545 S
C688   C689    1.402   .     A
C688   C697    1.456   .     S
C689   H727    1.082   .     S
C689   C1062   1.382   1_545 S
C690   C691    1.397   .     A
C690   H713    1.083   .     S
C690   C875    1.382   .     S
C692   N730    1.369   .     A
C692   H721    1.081   .     S
C692   C569    1.421   1_655 S
C693   N729    1.369   .     A
C693   H728    1.082   .     S
C694   C704    1.418   .     A
C694   C145    1.415   1_556 S
C694   C147    1.428   1_556 S
C695   N729    1.378   .     A
C695   O733    1.374   .     S
C696   N730    1.376   .     A
C696   O734    1.374   .     S
C696   C571    1.407   1_655 S
C697   O741    1.295   .     A
C697   O740    1.300   .     A
C698   O742    1.305   .     A
C698   O743    1.300   .     A
C698   C700    1.478   .     S
C699   C710    1.388   .     A
C700   C710    1.417   .     A
C700   C709    1.415   .     A
C701   C702    1.391   .     A
C701   H717    1.084   .     S
C702   C145    1.404   1_556 S
C702   O178    1.380   1_556 S
C703   H718    1.079   .     S
C704   C708    1.409   .     A
C705   C709    1.417   .     A
C706   C707    1.393   .     A
C706   C141    1.395   1_556 S
C706   C147    1.420   1_556 S
C707   C708    1.384   .     A
C707   H722    1.084   .     S
C708   H720    1.081   .     S
C709   O735    1.383   .     S
C710   O744    1.375   .     S
Cu711  O738    1.945   .     S
Cu711  O742    1.930   .     S
Cu711  O731    1.966   .     S
Cu711  O740    1.965   .     S
Cu711  Cu712   2.695   .     S
Cu711  N729    2.025   .     S
Cu712  O737    1.965   .     S
Cu712  O741    1.966   .     S
Cu712  N730    2.025   .     S
Cu712  O739    1.930   .     S
Cu712  O743    1.945   .     S
H714   O733    0.981   .     S
H715   O734    0.980   .     S
H716   O735    0.991   .     S
H719   O736    0.991   .     S
H723   C141    1.085   1_556 S
H725   O744    0.990   .     S
H726   O732    0.992   .     S
C745   O799    1.295   .     A
C745   C753    1.448   .     S
C745   O793    1.296   .     A
C746   C766    1.415   .     A
C746   C748    1.475   .     S
C746   C763    1.402   .     A
C747   C753    1.399   .     A
C747   H786    1.084   .     S
C747   C935    1.395   .     S
C748   O801    1.302   .     A
C748   O800    1.301   .     A
C749   C750    1.412   .     A
C749   O794    1.383   .     S
C750   C751    1.402   .     A
C750   C759    1.456   .     S
C751   H789    1.082   .     S
C752   C753    1.397   .     A
C752   H775    1.083   .     S
C752   C937    1.382   .     S
C754   N792    1.369   .     A
C754   H783    1.081   .     S
C754   C817    1.421   .     S
C755   N791    1.369   .     A
C755   H790    1.082   .     S
C755   C878    1.421   1_455 S
C756   C766    1.418   .     A
C756   C207    1.415   1_556 S
C756   C209    1.428   1_556 S
C757   N791    1.378   .     A
C757   O795    1.374   .     S
C757   C882    1.407   1_455 S
C758   N792    1.376   .     A
C758   O796    1.374   .     S
C758   C819    1.407   .     S
C759   O803    1.295   .     A
C759   O802    1.300   .     A
C760   O804    1.305   .     A
C760   O805    1.300   .     A
C760   C762    1.478   .     S
C761   C772    1.388   .     A
C762   C772    1.417   .     A
C762   C771    1.415   .     A
C763   C764    1.391   .     A
C763   H779    1.084   .     S
C764   C207    1.404   1_556 S
C764   O240    1.380   1_556 S
C765   H780    1.079   .     S
C766   C770    1.409   .     A
C767   C771    1.417   .     A
C768   C769    1.393   .     A
C768   C203    1.395   1_556 S
C768   C209    1.420   1_556 S
C769   C770    1.384   .     A
C769   H784    1.084   .     S
C770   H782    1.081   .     S
C771   O797    1.383   .     S
C772   O806    1.375   .     S
Cu773  O800    1.945   .     S
Cu773  O804    1.930   .     S
Cu773  O793    1.966   .     S
Cu773  O802    1.965   .     S
Cu773  Cu774   2.695   .     S
Cu773  N791    2.025   .     S
Cu774  O799    1.965   .     S
Cu774  O803    1.966   .     S
Cu774  N792    2.025   .     S
Cu774  O801    1.930   .     S
Cu774  O805    1.945   .     S
H776   O795    0.981   .     S
H777   O796    0.980   .     S
H778   O797    0.991   .     S
H781   O798    0.991   .     S
H785   C203    1.085   1_556 S
H787   O806    0.990   .     S
H788   O794    0.992   .     S
C807   O861    1.295   .     A
C807   C815    1.448   .     S
C807   O855    1.296   .     A
C808   C828    1.415   .     A
C808   C810    1.475   .     S
C808   C825    1.402   .     A
C809   C815    1.399   .     A
C809   H848    1.084   .     S
C809   C997    1.395   .     S
C810   O863    1.302   .     A
C810   O862    1.301   .     A
C811   C812    1.412   .     A
C811   O856    1.383   .     S
C812   C813    1.402   .     A
C812   C821    1.456   .     S
C813   H851    1.082   .     S
C814   C815    1.397   .     A
C814   H837    1.083   .     S
C814   C999    1.382   .     S
C816   N854    1.369   .     A
C816   H845    1.081   .     S
C816   C879    1.421   .     S
C817   N853    1.369   .     A
C817   H852    1.082   .     S
C818   C828    1.418   .     A
C818   C269    1.415   1_556 S
C818   C271    1.428   1_556 S
C819   N853    1.378   .     A
C819   O857    1.374   .     S
C820   N854    1.376   .     A
C820   O858    1.374   .     S
C820   C881    1.407   .     S
C821   O865    1.295   .     A
C821   O864    1.300   .     A
C822   O866    1.305   .     A
C822   O867    1.300   .     A
C822   C824    1.478   .     S
C823   C834    1.388   .     A
C824   C834    1.417   .     A
C824   C833    1.415   .     A
C825   C826    1.391   .     A
C825   H841    1.084   .     S
C826   C269    1.404   1_556 S
C826   O302    1.380   1_556 S
C827   H842    1.079   .     S
C828   C832    1.409   .     A
C829   C833    1.417   .     A
C830   C831    1.393   .     A
C830   C265    1.395   1_556 S
C830   C271    1.420   1_556 S
C831   C832    1.384   .     A
C831   H846    1.084   .     S
C832   H844    1.081   .     S
C833   O859    1.383   .     S
C834   O868    1.375   .     S
Cu835  O862    1.945   .     S
Cu835  O866    1.930   .     S
Cu835  O855    1.966   .     S
Cu835  O864    1.965   .     S
Cu835  Cu836   2.695   .     S
Cu835  N853    2.025   .     S
Cu836  O861    1.965   .     S
Cu836  O865    1.966   .     S
Cu836  N854    2.025   .     S
Cu836  O863    1.930   .     S
Cu836  O867    1.945   .     S
H838   O857    0.981   .     S
H839   O858    0.980   .     S
H840   O859    0.991   .     S
H843   O860    0.991   .     S
H847   C265    1.085   1_556 S
H849   O868    0.990   .     S
H850   O856    0.992   .     S
C869   O923    1.295   .     A
C869   C877    1.448   .     S
C869   O917    1.296   .     A
C870   C890    1.415   .     A
C870   C872    1.475   .     S
C870   C887    1.402   .     A
C871   C877    1.399   .     A
C871   H910    1.084   .     S
C871   C1059   1.395   .     S
C872   O925    1.302   .     A
C872   O924    1.301   .     A
C873   C874    1.412   .     A
C873   O918    1.383   .     S
C874   C875    1.402   .     A
C874   C883    1.456   .     S
C875   H913    1.082   .     S
C876   C877    1.397   .     A
C876   H899    1.083   .     S
C876   C1061   1.382   .     S
C878   N916    1.369   .     A
C878   H907    1.081   .     S
C878   C755    1.421   1_655 S
C879   N915    1.369   .     A
C879   H914    1.082   .     S
C880   C890    1.418   .     A
C880   C331    1.415   1_556 S
C880   C333    1.428   1_556 S
C881   N915    1.378   .     A
C881   O919    1.374   .     S
C882   N916    1.376   .     A
C882   O920    1.374   .     S
C882   C757    1.407   1_655 S
C883   O927    1.295   .     A
C883   O926    1.300   .     A
C884   O928    1.305   .     A
C884   O929    1.300   .     A
C884   C886    1.478   .     S
C885   C896    1.388   .     A
C886   C896    1.417   .     A
C886   C895    1.415   .     A
C887   C888    1.391   .     A
C887   H903    1.084   .     S
C888   C331    1.404   1_556 S
C888   O364    1.380   1_556 S
C889   H904    1.079   .     S
C890   C894    1.409   .     A
C891   C895    1.417   .     A
C892   C893    1.393   .     A
C892   C327    1.395   1_556 S
C892   C333    1.420   1_556 S
C893   C894    1.384   .     A
C893   H908    1.084   .     S
C894   H906    1.081   .     S
C895   O921    1.383   .     S
C896   O930    1.375   .     S
Cu897  O924    1.945   .     S
Cu897  O928    1.930   .     S
Cu897  O917    1.966   .     S
Cu897  O926    1.965   .     S
Cu897  Cu898   2.695   .     S
Cu897  N915    2.025   .     S
Cu898  O923    1.965   .     S
Cu898  O927    1.966   .     S
Cu898  N916    2.025   .     S
Cu898  O925    1.930   .     S
Cu898  O929    1.945   .     S
H900   O919    0.981   .     S
H901   O920    0.980   .     S
H902   O921    0.991   .     S
H905   O922    0.991   .     S
H909   C327    1.085   1_556 S
H911   O930    0.990   .     S
H912   O918    0.992   .     S
C931   O985    1.295   .     A
C931   C939    1.448   .     S
C931   O979    1.296   .     A
C932   C952    1.415   .     A
C932   C934    1.475   .     S
C932   C949    1.402   .     A
C933   C939    1.399   .     A
C933   H972    1.084   .     S
C933   C563    1.395   1_565 S
C934   O987    1.302   .     A
C934   O986    1.301   .     A
C935   C936    1.412   .     A
C935   O980    1.383   .     S
C936   C937    1.402   .     A
C936   C945    1.456   .     S
C937   H975    1.082   .     S
C938   C939    1.397   .     A
C938   H961    1.083   .     S
C938   C565    1.382   1_565 S
C940   N978    1.369   .     A
C940   H969    1.081   .     S
C940   C1003   1.421   .     S
C941   N977    1.369   .     A
C941   H976    1.082   .     S
C941   C1064   1.421   1_455 S
C942   C952    1.418   .     A
C942   C393    1.415   1_556 S
C942   C395    1.428   1_556 S
C943   N977    1.378   .     A
C943   O981    1.374   .     S
C943   C1068   1.407   1_455 S
C944   N978    1.376   .     A
C944   O982    1.374   .     S
C944   C1005   1.407   .     S
C945   O989    1.295   .     A
C945   O988    1.300   .     A
C946   O990    1.305   .     A
C946   O991    1.300   .     A
C946   C948    1.478   .     S
C947   C958    1.388   .     A
C948   C958    1.417   .     A
C948   C957    1.415   .     A
C949   C950    1.391   .     A
C949   H965    1.084   .     S
C950   C393    1.404   1_556 S
C950   O426    1.380   1_556 S
C951   H966    1.079   .     S
C952   C956    1.409   .     A
C953   C957    1.417   .     A
C954   C955    1.393   .     A
C954   C389    1.395   1_556 S
C954   C395    1.420   1_556 S
C955   C956    1.384   .     A
C955   H970    1.084   .     S
C956   H968    1.081   .     S
C957   O983    1.383   .     S
C958   O992    1.375   .     S
Cu959  O986    1.945   .     S
Cu959  O990    1.930   .     S
Cu959  O979    1.966   .     S
Cu959  O988    1.965   .     S
Cu959  Cu960   2.695   .     S
Cu959  N977    2.025   .     S
Cu960  O985    1.965   .     S
Cu960  O989    1.966   .     S
Cu960  N978    2.025   .     S
Cu960  O987    1.930   .     S
Cu960  O991    1.945   .     S
H962   O981    0.981   .     S
H963   O982    0.980   .     S
H964   O983    0.991   .     S
H967   O984    0.991   .     S
H971   C389    1.085   1_556 S
H973   O992    0.990   .     S
H974   O980    0.992   .     S
C993   O1047   1.295   .     A
C993   C1001   1.448   .     S
C993   O1041   1.296   .     A
C994   C1014   1.415   .     A
C994   C996    1.475   .     S
C994   C1011   1.402   .     A
C995   C1001   1.399   .     A
C995   H1034   1.084   .     S
C995   C625    1.395   1_565 S
C996   O1049   1.302   .     A
C996   O1048   1.301   .     A
C997   C998    1.412   .     A
C997   O1042   1.383   .     S
C998   C999    1.402   .     A
C998   C1007   1.456   .     S
C999   H1037   1.082   .     S
C1000  C1001   1.397   .     A
C1000  H1023   1.083   .     S
C1000  C627    1.382   1_565 S
C1002  N1040   1.369   .     A
C1002  H1031   1.081   .     S
C1002  C1065   1.421   .     S
C1003  N1039   1.369   .     A
C1003  H1038   1.082   .     S
C1004  C1014   1.418   .     A
C1004  C455    1.415   1_556 S
C1004  C457    1.428   1_556 S
C1005  N1039   1.378   .     A
C1005  O1043   1.374   .     S
C1006  N1040   1.376   .     A
C1006  O1044   1.374   .     S
C1006  C1067   1.407   .     S
C1007  O1051   1.295   .     A
C1007  O1050   1.300   .     A
C1008  O1052   1.305   .     A
C1008  O1053   1.300   .     A
C1008  C1010   1.478   .     S
C1009  C1020   1.388   .     A
C1010  C1020   1.417   .     A
C1010  C1019   1.415   .     A
C1011  C1012   1.391   .     A
C1011  H1027   1.084   .     S
C1012  C455    1.404   1_556 S
C1012  O488    1.380   1_556 S
C1013  H1028   1.079   .     S
C1014  C1018   1.409   .     A
C1015  C1019   1.417   .     A
C1016  C1017   1.393   .     A
C1016  C451    1.395   1_556 S
C1016  C457    1.420   1_556 S
C1017  C1018   1.384   .     A
C1017  H1032   1.084   .     S
C1018  H1030   1.081   .     S
C1019  O1045   1.383   .     S
C1020  O1054   1.375   .     S
Cu1021 O1048   1.945   .     S
Cu1021 O1052   1.930   .     S
Cu1021 O1041   1.966   .     S
Cu1021 O1050   1.965   .     S
Cu1021 Cu1022  2.695   .     S
Cu1021 N1039   2.025   .     S
Cu1022 O1047   1.965   .     S
Cu1022 O1051   1.966   .     S
Cu1022 N1040   2.025   .     S
Cu1022 O1049   1.930   .     S
Cu1022 O1053   1.945   .     S
H1024  O1043   0.981   .     S
H1025  O1044   0.980   .     S
H1026  O1045   0.991   .     S
H1029  O1046   0.991   .     S
H1033  C451    1.085   1_556 S
H1035  O1054   0.990   .     S
H1036  O1042   0.992   .     S
C1055  O1109   1.295   .     A
C1055  C1063   1.448   .     S
C1055  O1103   1.296   .     A
C1056  C1076   1.415   .     A
C1056  C1058   1.475   .     S
C1056  C1073   1.402   .     A
C1057  C1063   1.399   .     A
C1057  H1096   1.084   .     S
C1057  C687    1.395   1_565 S
C1058  O1111   1.302   .     A
C1058  O1110   1.301   .     A
C1059  C1060   1.412   .     A
C1059  O1104   1.383   .     S
C1060  C1061   1.402   .     A
C1060  C1069   1.456   .     S
C1061  H1099   1.082   .     S
C1062  C1063   1.397   .     A
C1062  H1085   1.083   .     S
C1062  C689    1.382   1_565 S
C1064  N1102   1.369   .     A
C1064  H1093   1.081   .     S
C1064  C941    1.421   1_655 S
C1065  N1101   1.369   .     A
C1065  H1100   1.082   .     S
C1066  C1076   1.418   .     A
C1066  C517    1.415   1_556 S
C1066  C519    1.428   1_556 S
C1067  N1101   1.378   .     A
C1067  O1105   1.374   .     S
C1068  N1102   1.376   .     A
C1068  O1106   1.374   .     S
C1068  C943    1.407   1_655 S
C1069  O1113   1.295   .     A
C1069  O1112   1.300   .     A
C1070  O1114   1.305   .     A
C1070  O1115   1.300   .     A
C1070  C1072   1.478   .     S
C1071  C1082   1.388   .     A
C1072  C1082   1.417   .     A
C1072  C1081   1.415   .     A
C1073  C1074   1.391   .     A
C1073  H1089   1.084   .     S
C1074  C517    1.404   1_556 S
C1074  O550    1.380   1_556 S
C1075  H1090   1.079   .     S
C1076  C1080   1.409   .     A
C1077  C1081   1.417   .     A
C1078  C1079   1.393   .     A
C1078  C513    1.395   1_556 S
C1078  C519    1.420   1_556 S
C1079  C1080   1.384   .     A
C1079  H1094   1.084   .     S
C1080  H1092   1.081   .     S
C1081  O1107   1.383   .     S
C1082  O1116   1.375   .     S
Cu1083 O1110   1.945   .     S
Cu1083 O1114   1.930   .     S
Cu1083 O1103   1.966   .     S
Cu1083 O1112   1.965   .     S
Cu1083 Cu1084  2.695   .     S
Cu1083 N1101   2.025   .     S
Cu1084 O1109   1.965   .     S
Cu1084 O1113   1.966   .     S
Cu1084 N1102   2.025   .     S
Cu1084 O1111   1.930   .     S
Cu1084 O1115   1.945   .     S
H1086  O1105   0.981   .     S
H1087  O1106   0.980   .     S
H1088  O1107   0.991   .     S
H1091  O1108   0.991   .     S
H1095  C513    1.085   1_556 S
H1097  O1116   0.990   .     S
H1098  O1104   0.992   .     S
