data_str_m2_o1_o1_pcu_sym.22
_audit_creation_date              2020-01-03
_audit_creation_method            'Materials Studio'
_symmetry_space_group_name_H-M    'P1'
_symmetry_Int_Tables_number       1
_symmetry_cell_setting            triclinic
loop_
_symmetry_equiv_pos_as_xyz
  x,y,z
_cell_length_a                    31.7115
_cell_length_b                    29.4667
_cell_length_c                    28.9850
_cell_angle_alpha                 89.9986
_cell_angle_beta                  90.0010
_cell_angle_gamma                 89.9145
loop_
_atom_site_label
_atom_site_type_symbol
_atom_site_fract_x
_atom_site_fract_y
_atom_site_fract_z
_atom_site_U_iso_or_equiv
_atom_site_adp_type
_atom_site_occupancy
C1     C     0.05944   0.19071   0.16665   0.00000  Uiso   1.00
C2     C     0.01107   0.28841   0.30878   0.00000  Uiso   1.00
C3     C     0.01123   0.28818   0.02479   0.00000  Uiso   1.00
C4     C     0.48893   0.21160   0.30878   0.00000  Uiso   1.00
C5     C     0.23876   0.46182   0.02479   0.00000  Uiso   1.00
C6     C     0.26107   0.03841   0.30878   0.00000  Uiso   1.00
C7     C     0.26123   0.03818   0.02479   0.00000  Uiso   1.00
C8     C     0.23893   0.46160   0.30878   0.00000  Uiso   1.00
C9     C     0.39034   0.14163   0.12492   0.00000  Uiso   1.00
C10    C     0.10937   0.35866   0.20862   0.00000  Uiso   1.00
C11    C     0.10965   0.35838   0.12492   0.00000  Uiso   1.00
C12    C     0.44055   0.30929   0.16665   0.00000  Uiso   1.00
C13    C     0.39071   0.14125   0.20862   0.00000  Uiso   1.00
C14    C     0.10921   0.14117   0.20847   0.00000  Uiso   1.00
C15    C     0.39088   0.35890   0.12465   0.00000  Uiso   1.00
C16    C     0.39082   0.35885   0.20847   0.00000  Uiso   1.00
C17    C     0.10908   0.14106   0.12465   0.00000  Uiso   1.00
C18    C     0.14033   0.39164   0.12492   0.00000  Uiso   1.00
C19    C     0.35936   0.10867   0.20862   0.00000  Uiso   1.00
C20    C     0.35966   0.10838   0.12492   0.00000  Uiso   1.00
C21    C     0.14072   0.39124   0.20862   0.00000  Uiso   1.00
C22    C     0.35921   0.39118   0.20847   0.00000  Uiso   1.00
C23    C     0.44041   0.19087   0.16668   0.00000  Uiso   1.00
C24    C     0.14088   0.10890   0.12465   0.00000  Uiso   1.00
C25    C     0.14082   0.10885   0.20847   0.00000  Uiso   1.00
C26    C     0.35907   0.39105   0.12465   0.00000  Uiso   1.00
C27    C     0.09341   0.34231   0.16674   0.00000  Uiso   1.00
C28    C     0.40661   0.15766   0.16674   0.00000  Uiso   1.00
C29    C     0.40697   0.34273   0.16658   0.00000  Uiso   1.00
C30    C     0.09302   0.15726   0.16658   0.00000  Uiso   1.00
C31    C     0.34341   0.09231   0.16674   0.00000  Uiso   1.00
C32    C     0.15662   0.40766   0.16674   0.00000  Uiso   1.00
C33    C     0.15697   0.09273   0.16658   0.00000  Uiso   1.00
C34    C     0.05960   0.30912   0.16668   0.00000  Uiso   1.00
C35    C     0.34302   0.40726   0.16658   0.00000  Uiso   1.00
C36    C     0.49940   0.14007   0.05460   0.00000  Uiso   1.00
C37    C     0.47578   0.09585   0.06302   0.00000  Uiso   1.00
C38    C     0.49920   0.35627   0.26945   0.00000  Uiso   1.00
C39    C     0.01356   0.40529   0.27633   0.00000  Uiso   1.00
C40    C     0.00058   0.35993   0.05458   0.00000  Uiso   1.00
C41    C     0.02420   0.40413   0.06317   0.00000  Uiso   1.00
C42    C     0.00083   0.14373   0.26948   0.00000  Uiso   1.00
C43    C     0.48653   0.09471   0.27645   0.00000  Uiso   1.00
C44    C     0.24939   0.39007   0.05460   0.00000  Uiso   1.00
C45    C     0.30944   0.44071   0.16665   0.00000  Uiso   1.00
C46    C     0.22577   0.34584   0.06300   0.00000  Uiso   1.00
C47    C     0.24920   0.10627   0.26945   0.00000  Uiso   1.00
C48    C     0.26355   0.15529   0.27633   0.00000  Uiso   1.00
C49    C     0.25059   0.10993   0.05458   0.00000  Uiso   1.00
C50    C     0.27421   0.15413   0.06317   0.00000  Uiso   1.00
C51    C     0.25084   0.39374   0.26948   0.00000  Uiso   1.00
C52    C     0.23654   0.34470   0.27647   0.00000  Uiso   1.00
C53    C     0.19055   0.05929   0.16665   0.00000  Uiso   1.00
C54    C     0.19041   0.44087   0.16668   0.00000  Uiso   1.00
C55    C     0.30960   0.05912   0.16668   0.00000  Uiso   1.00
C56    C     0.48876   0.21182   0.02479   0.00000  Uiso   1.00
Cu57   Cu    0.00000   0.25000   0.21355   0.00000  Uiso   1.00
Cu58   Cu    0.00000   0.25000   0.11978   0.00000  Uiso   1.00
Cu59   Cu    0.25000   0.00000   0.21355   0.00000  Uiso   1.00
Cu60   Cu    0.25000   0.00000   0.11978   0.00000  Uiso   1.00
H61    H     0.40150   0.15430   0.09212   0.00000  Uiso   1.00
H62    H     0.34782   0.09635   0.24140   0.00000  Uiso   1.00
H63    H     0.34846   0.09574   0.09211   0.00000  Uiso   1.00
H64    H     0.15230   0.40350   0.24141   0.00000  Uiso   1.00
H65    H     0.34761   0.40351   0.24126   0.00000  Uiso   1.00
H66    H     0.15273   0.09678   0.09184   0.00000  Uiso   1.00
H67    H     0.15244   0.09654   0.24126   0.00000  Uiso   1.00
H68    H     0.34720   0.40315   0.09184   0.00000  Uiso   1.00
H69    H     0.01801   0.14623   0.08582   0.00000  Uiso   1.00
H70    H     0.02198   0.13561   0.02583   0.00000  Uiso   1.00
H71    H     0.49800   0.06676   0.06098   0.00000  Uiso   1.00
H72    H     0.09783   0.34634   0.24140   0.00000  Uiso   1.00
H73    H     0.46158   0.09599   0.09799   0.00000  Uiso   1.00
H74    H     0.45036   0.09131   0.03710   0.00000  Uiso   1.00
H75    H     0.46685   0.35166   0.28363   0.00000  Uiso   1.00
H76    H     0.49771   0.35253   0.23173   0.00000  Uiso   1.00
H77    H     0.04851   0.40754   0.27706   0.00000  Uiso   1.00
H78    H     0.00180   0.42680   0.24756   0.00000  Uiso   1.00
H79    H     0.00036   0.41970   0.30841   0.00000  Uiso   1.00
H80    H     0.48187   0.35373   0.08571   0.00000  Uiso   1.00
H81    H     0.47808   0.36447   0.02576   0.00000  Uiso   1.00
H82    H     0.00199   0.43324   0.06108   0.00000  Uiso   1.00
H83    H     0.09845   0.34575   0.09211   0.00000  Uiso   1.00
H84    H     0.03828   0.40393   0.09820   0.00000  Uiso   1.00
H85    H     0.04970   0.40869   0.03735   0.00000  Uiso   1.00
H86    H     0.03319   0.14840   0.28363   0.00000  Uiso   1.00
H87    H     0.00230   0.14744   0.23175   0.00000  Uiso   1.00
H88    H     0.45159   0.09247   0.27766   0.00000  Uiso   1.00
H89    H     0.49793   0.07323   0.24749   0.00000  Uiso   1.00
H90    H     0.00009   0.08023   0.30833   0.00000  Uiso   1.00
H91    H     0.26798   0.39622   0.08583   0.00000  Uiso   1.00
H92    H     0.27199   0.38562   0.02585   0.00000  Uiso   1.00
H93    H     0.24800   0.31676   0.06096   0.00000  Uiso   1.00
H94    H     0.40228   0.15352   0.24141   0.00000  Uiso   1.00
H95    H     0.21155   0.34597   0.09795   0.00000  Uiso   1.00
H96    H     0.20036   0.34131   0.03705   0.00000  Uiso   1.00
H97    H     0.21684   0.10166   0.28363   0.00000  Uiso   1.00
H98    H     0.24771   0.10253   0.23173   0.00000  Uiso   1.00
H99    H     0.29850   0.15754   0.27706   0.00000  Uiso   1.00
H100   H     0.25180   0.17680   0.24756   0.00000  Uiso   1.00
H101   H     0.25036   0.16970   0.30842   0.00000  Uiso   1.00
H102   H     0.23188   0.10373   0.08572   0.00000  Uiso   1.00
H103   H     0.22808   0.11446   0.02576   0.00000  Uiso   1.00
H104   H     0.25200   0.18324   0.06108   0.00000  Uiso   1.00
H105   H     0.09761   0.15350   0.24126   0.00000  Uiso   1.00
H106   H     0.28829   0.15393   0.09819   0.00000  Uiso   1.00
H107   H     0.29971   0.15869   0.03735   0.00000  Uiso   1.00
H108   H     0.28320   0.39842   0.28363   0.00000  Uiso   1.00
H109   H     0.25231   0.39744   0.23176   0.00000  Uiso   1.00
H110   H     0.20160   0.34247   0.27773   0.00000  Uiso   1.00
H111   H     0.24791   0.32324   0.24748   0.00000  Uiso   1.00
H112   H     0.25016   0.33023   0.30832   0.00000  Uiso   1.00
H113   H     0.40272   0.34677   0.09184   0.00000  Uiso   1.00
H114   H     0.40245   0.34655   0.24126   0.00000  Uiso   1.00
H115   H     0.09721   0.15316   0.09184   0.00000  Uiso   1.00
H116   H     0.15149   0.40431   0.09212   0.00000  Uiso   1.00
N117   N     0.00000   0.25000   0.28402   0.00000  Uiso   1.00
N118   N     0.00000   0.25000   0.04931   0.00000  Uiso   1.00
N119   N     0.25000   0.00000   0.28402   0.00000  Uiso   1.00
N120   N     0.25000   0.00000   0.04931   0.00000  Uiso   1.00
O121   O     0.04509   0.20491   0.20625   0.00000  Uiso   1.00
O122   O     0.20492   0.04509   0.12709   0.00000  Uiso   1.00
O123   O     0.20492   0.04509   0.20625   0.00000  Uiso   1.00
O124   O     0.29509   0.45491   0.12709   0.00000  Uiso   1.00
O125   O     0.20492   0.45491   0.12709   0.00000  Uiso   1.00
O126   O     0.29509   0.04509   0.20625   0.00000  Uiso   1.00
O127   O     0.29509   0.04509   0.12709   0.00000  Uiso   1.00
O128   O     0.20492   0.45491   0.20625   0.00000  Uiso   1.00
O129   O     0.47012   0.17562   0.04733   0.00000  Uiso   1.00
O130   O     0.02961   0.32545   0.28718   0.00000  Uiso   1.00
O131   O     0.02986   0.32438   0.04734   0.00000  Uiso   1.00
O132   O     0.45492   0.29509   0.12709   0.00000  Uiso   1.00
O133   O     0.47041   0.17455   0.28718   0.00000  Uiso   1.00
O134   O     0.22012   0.42562   0.04733   0.00000  Uiso   1.00
O135   O     0.27961   0.07545   0.28718   0.00000  Uiso   1.00
O136   O     0.27986   0.07438   0.04734   0.00000  Uiso   1.00
O137   O     0.22041   0.42454   0.28718   0.00000  Uiso   1.00
O138   O     0.45492   0.29509   0.20625   0.00000  Uiso   1.00
O139   O     0.04509   0.20491   0.12709   0.00000  Uiso   1.00
O140   O     0.45492   0.20491   0.12709   0.00000  Uiso   1.00
O141   O     0.04509   0.29509   0.20625   0.00000  Uiso   1.00
O142   O     0.04509   0.29509   0.12709   0.00000  Uiso   1.00
O143   O     0.45492   0.20491   0.20625   0.00000  Uiso   1.00
O144   O     0.29509   0.45491   0.20625   0.00000  Uiso   1.00
C145   C     0.55944   0.19071   0.16665   0.00000  Uiso   1.00
C146   C     0.51107   0.28841   0.30878   0.00000  Uiso   1.00
C147   C     0.51123   0.28818   0.02479   0.00000  Uiso   1.00
C148   C     0.98893   0.21160   0.30878   0.00000  Uiso   1.00
C149   C     0.73876   0.46182   0.02479   0.00000  Uiso   1.00
C150   C     0.76107   0.03841   0.30878   0.00000  Uiso   1.00
C151   C     0.76123   0.03818   0.02479   0.00000  Uiso   1.00
C152   C     0.73893   0.46160   0.30878   0.00000  Uiso   1.00
C153   C     0.89034   0.14163   0.12492   0.00000  Uiso   1.00
C154   C     0.60937   0.35866   0.20862   0.00000  Uiso   1.00
C155   C     0.60965   0.35838   0.12492   0.00000  Uiso   1.00
C156   C     0.94055   0.30929   0.16665   0.00000  Uiso   1.00
C157   C     0.89071   0.14125   0.20862   0.00000  Uiso   1.00
C158   C     0.60921   0.14117   0.20847   0.00000  Uiso   1.00
C159   C     0.89088   0.35890   0.12465   0.00000  Uiso   1.00
C160   C     0.89082   0.35885   0.20847   0.00000  Uiso   1.00
C161   C     0.60908   0.14106   0.12465   0.00000  Uiso   1.00
C162   C     0.64033   0.39164   0.12492   0.00000  Uiso   1.00
C163   C     0.85936   0.10867   0.20862   0.00000  Uiso   1.00
C164   C     0.85966   0.10838   0.12492   0.00000  Uiso   1.00
C165   C     0.64072   0.39124   0.20862   0.00000  Uiso   1.00
C166   C     0.85921   0.39118   0.20847   0.00000  Uiso   1.00
C167   C     0.94041   0.19087   0.16668   0.00000  Uiso   1.00
C168   C     0.64088   0.10890   0.12465   0.00000  Uiso   1.00
C169   C     0.64082   0.10885   0.20847   0.00000  Uiso   1.00
C170   C     0.85907   0.39105   0.12465   0.00000  Uiso   1.00
C171   C     0.59341   0.34231   0.16674   0.00000  Uiso   1.00
C172   C     0.90661   0.15766   0.16674   0.00000  Uiso   1.00
C173   C     0.90697   0.34273   0.16658   0.00000  Uiso   1.00
C174   C     0.59302   0.15726   0.16658   0.00000  Uiso   1.00
C175   C     0.84341   0.09231   0.16674   0.00000  Uiso   1.00
C176   C     0.65662   0.40766   0.16674   0.00000  Uiso   1.00
C177   C     0.65697   0.09273   0.16658   0.00000  Uiso   1.00
C178   C     0.55960   0.30912   0.16668   0.00000  Uiso   1.00
C179   C     0.84302   0.40726   0.16658   0.00000  Uiso   1.00
C180   C     0.99940   0.14007   0.05460   0.00000  Uiso   1.00
C181   C     0.97578   0.09585   0.06302   0.00000  Uiso   1.00
C182   C     0.99920   0.35627   0.26945   0.00000  Uiso   1.00
C183   C     0.51356   0.40529   0.27633   0.00000  Uiso   1.00
C184   C     0.50058   0.35993   0.05458   0.00000  Uiso   1.00
C185   C     0.52420   0.40413   0.06317   0.00000  Uiso   1.00
C186   C     0.50083   0.14373   0.26948   0.00000  Uiso   1.00
C187   C     0.98653   0.09471   0.27645   0.00000  Uiso   1.00
C188   C     0.74939   0.39007   0.05460   0.00000  Uiso   1.00
C189   C     0.80944   0.44071   0.16665   0.00000  Uiso   1.00
C190   C     0.72577   0.34584   0.06300   0.00000  Uiso   1.00
C191   C     0.74920   0.10627   0.26945   0.00000  Uiso   1.00
C192   C     0.76355   0.15529   0.27633   0.00000  Uiso   1.00
C193   C     0.75059   0.10993   0.05458   0.00000  Uiso   1.00
C194   C     0.77421   0.15413   0.06317   0.00000  Uiso   1.00
C195   C     0.75084   0.39374   0.26948   0.00000  Uiso   1.00
C196   C     0.73654   0.34470   0.27647   0.00000  Uiso   1.00
C197   C     0.69055   0.05929   0.16665   0.00000  Uiso   1.00
C198   C     0.69041   0.44087   0.16668   0.00000  Uiso   1.00
C199   C     0.80960   0.05912   0.16668   0.00000  Uiso   1.00
C200   C     0.98876   0.21182   0.02479   0.00000  Uiso   1.00
Cu201  Cu    0.50000   0.25000   0.21355   0.00000  Uiso   1.00
Cu202  Cu    0.50000   0.25000   0.11978   0.00000  Uiso   1.00
Cu203  Cu    0.75000   0.00000   0.21355   0.00000  Uiso   1.00
Cu204  Cu    0.75000   0.00000   0.11978   0.00000  Uiso   1.00
H205   H     0.90150   0.15430   0.09212   0.00000  Uiso   1.00
H206   H     0.84782   0.09635   0.24140   0.00000  Uiso   1.00
H207   H     0.84846   0.09574   0.09211   0.00000  Uiso   1.00
H208   H     0.65230   0.40350   0.24141   0.00000  Uiso   1.00
H209   H     0.84761   0.40351   0.24126   0.00000  Uiso   1.00
H210   H     0.65273   0.09678   0.09184   0.00000  Uiso   1.00
H211   H     0.65244   0.09654   0.24126   0.00000  Uiso   1.00
H212   H     0.84720   0.40315   0.09184   0.00000  Uiso   1.00
H213   H     0.51801   0.14623   0.08582   0.00000  Uiso   1.00
H214   H     0.52198   0.13561   0.02583   0.00000  Uiso   1.00
H215   H     0.99800   0.06676   0.06098   0.00000  Uiso   1.00
H216   H     0.59783   0.34634   0.24140   0.00000  Uiso   1.00
H217   H     0.96158   0.09599   0.09799   0.00000  Uiso   1.00
H218   H     0.95036   0.09131   0.03710   0.00000  Uiso   1.00
H219   H     0.96685   0.35166   0.28363   0.00000  Uiso   1.00
H220   H     0.99771   0.35253   0.23173   0.00000  Uiso   1.00
H221   H     0.54851   0.40754   0.27706   0.00000  Uiso   1.00
H222   H     0.50180   0.42680   0.24756   0.00000  Uiso   1.00
H223   H     0.50036   0.41970   0.30841   0.00000  Uiso   1.00
H224   H     0.98187   0.35373   0.08571   0.00000  Uiso   1.00
H225   H     0.97808   0.36447   0.02576   0.00000  Uiso   1.00
H226   H     0.50199   0.43324   0.06108   0.00000  Uiso   1.00
H227   H     0.59845   0.34575   0.09211   0.00000  Uiso   1.00
H228   H     0.53828   0.40393   0.09820   0.00000  Uiso   1.00
H229   H     0.54970   0.40869   0.03735   0.00000  Uiso   1.00
H230   H     0.53319   0.14840   0.28363   0.00000  Uiso   1.00
H231   H     0.50230   0.14744   0.23175   0.00000  Uiso   1.00
H232   H     0.95159   0.09247   0.27766   0.00000  Uiso   1.00
H233   H     0.99793   0.07323   0.24749   0.00000  Uiso   1.00
H234   H     0.50009   0.08023   0.30833   0.00000  Uiso   1.00
H235   H     0.76798   0.39622   0.08583   0.00000  Uiso   1.00
H236   H     0.77199   0.38562   0.02585   0.00000  Uiso   1.00
H237   H     0.74800   0.31676   0.06096   0.00000  Uiso   1.00
H238   H     0.90228   0.15352   0.24141   0.00000  Uiso   1.00
H239   H     0.71155   0.34597   0.09795   0.00000  Uiso   1.00
H240   H     0.70036   0.34131   0.03705   0.00000  Uiso   1.00
H241   H     0.71684   0.10166   0.28363   0.00000  Uiso   1.00
H242   H     0.74771   0.10253   0.23173   0.00000  Uiso   1.00
H243   H     0.79850   0.15754   0.27706   0.00000  Uiso   1.00
H244   H     0.75180   0.17680   0.24756   0.00000  Uiso   1.00
H245   H     0.75036   0.16970   0.30842   0.00000  Uiso   1.00
H246   H     0.73188   0.10373   0.08572   0.00000  Uiso   1.00
H247   H     0.72808   0.11446   0.02576   0.00000  Uiso   1.00
H248   H     0.75200   0.18324   0.06108   0.00000  Uiso   1.00
H249   H     0.59761   0.15350   0.24126   0.00000  Uiso   1.00
H250   H     0.78829   0.15393   0.09819   0.00000  Uiso   1.00
H251   H     0.79971   0.15869   0.03735   0.00000  Uiso   1.00
H252   H     0.78320   0.39842   0.28363   0.00000  Uiso   1.00
H253   H     0.75231   0.39744   0.23176   0.00000  Uiso   1.00
H254   H     0.70160   0.34247   0.27773   0.00000  Uiso   1.00
H255   H     0.74791   0.32324   0.24748   0.00000  Uiso   1.00
H256   H     0.75016   0.33023   0.30832   0.00000  Uiso   1.00
H257   H     0.90272   0.34677   0.09184   0.00000  Uiso   1.00
H258   H     0.90245   0.34655   0.24126   0.00000  Uiso   1.00
H259   H     0.59721   0.15316   0.09184   0.00000  Uiso   1.00
H260   H     0.65149   0.40431   0.09212   0.00000  Uiso   1.00
N261   N     0.50000   0.25000   0.28402   0.00000  Uiso   1.00
N262   N     0.50000   0.25000   0.04931   0.00000  Uiso   1.00
N263   N     0.75000   0.00000   0.28402   0.00000  Uiso   1.00
N264   N     0.75000   0.00000   0.04931   0.00000  Uiso   1.00
O265   O     0.54509   0.20491   0.20625   0.00000  Uiso   1.00
O266   O     0.70492   0.04509   0.12709   0.00000  Uiso   1.00
O267   O     0.70492   0.04509   0.20625   0.00000  Uiso   1.00
O268   O     0.79509   0.45491   0.12709   0.00000  Uiso   1.00
O269   O     0.70492   0.45491   0.12709   0.00000  Uiso   1.00
O270   O     0.79509   0.04509   0.20625   0.00000  Uiso   1.00
O271   O     0.79509   0.04509   0.12709   0.00000  Uiso   1.00
O272   O     0.70492   0.45491   0.20625   0.00000  Uiso   1.00
O273   O     0.97012   0.17562   0.04733   0.00000  Uiso   1.00
O274   O     0.52961   0.32545   0.28718   0.00000  Uiso   1.00
O275   O     0.52986   0.32438   0.04734   0.00000  Uiso   1.00
O276   O     0.95492   0.29509   0.12709   0.00000  Uiso   1.00
O277   O     0.97041   0.17455   0.28718   0.00000  Uiso   1.00
O278   O     0.72012   0.42562   0.04733   0.00000  Uiso   1.00
O279   O     0.77961   0.07545   0.28718   0.00000  Uiso   1.00
O280   O     0.77986   0.07438   0.04734   0.00000  Uiso   1.00
O281   O     0.72041   0.42454   0.28718   0.00000  Uiso   1.00
O282   O     0.95492   0.29509   0.20625   0.00000  Uiso   1.00
O283   O     0.54509   0.20491   0.12709   0.00000  Uiso   1.00
O284   O     0.95492   0.20491   0.12709   0.00000  Uiso   1.00
O285   O     0.54509   0.29509   0.20625   0.00000  Uiso   1.00
O286   O     0.54509   0.29509   0.12709   0.00000  Uiso   1.00
O287   O     0.95492   0.20491   0.20625   0.00000  Uiso   1.00
O288   O     0.79509   0.45491   0.20625   0.00000  Uiso   1.00
C289   C     0.05944   0.69071   0.16665   0.00000  Uiso   1.00
C290   C     0.01107   0.78841   0.30878   0.00000  Uiso   1.00
C291   C     0.01123   0.78818   0.02479   0.00000  Uiso   1.00
C292   C     0.48893   0.71160   0.30878   0.00000  Uiso   1.00
C293   C     0.23876   0.96182   0.02479   0.00000  Uiso   1.00
C294   C     0.26107   0.53841   0.30878   0.00000  Uiso   1.00
C295   C     0.26123   0.53818   0.02479   0.00000  Uiso   1.00
C296   C     0.23893   0.96160   0.30878   0.00000  Uiso   1.00
C297   C     0.39034   0.64163   0.12492   0.00000  Uiso   1.00
C298   C     0.10937   0.85866   0.20862   0.00000  Uiso   1.00
C299   C     0.10965   0.85838   0.12492   0.00000  Uiso   1.00
C300   C     0.44055   0.80929   0.16665   0.00000  Uiso   1.00
C301   C     0.39071   0.64125   0.20862   0.00000  Uiso   1.00
C302   C     0.10921   0.64117   0.20847   0.00000  Uiso   1.00
C303   C     0.39088   0.85890   0.12465   0.00000  Uiso   1.00
C304   C     0.39082   0.85885   0.20847   0.00000  Uiso   1.00
C305   C     0.10908   0.64106   0.12465   0.00000  Uiso   1.00
C306   C     0.14033   0.89164   0.12492   0.00000  Uiso   1.00
C307   C     0.35936   0.60867   0.20862   0.00000  Uiso   1.00
C308   C     0.35966   0.60838   0.12492   0.00000  Uiso   1.00
C309   C     0.14072   0.89124   0.20862   0.00000  Uiso   1.00
C310   C     0.35921   0.89118   0.20847   0.00000  Uiso   1.00
C311   C     0.44041   0.69087   0.16668   0.00000  Uiso   1.00
C312   C     0.14088   0.60890   0.12465   0.00000  Uiso   1.00
C313   C     0.14082   0.60885   0.20847   0.00000  Uiso   1.00
C314   C     0.35907   0.89105   0.12465   0.00000  Uiso   1.00
C315   C     0.09341   0.84231   0.16674   0.00000  Uiso   1.00
C316   C     0.40661   0.65766   0.16674   0.00000  Uiso   1.00
C317   C     0.40697   0.84273   0.16658   0.00000  Uiso   1.00
C318   C     0.09302   0.65726   0.16658   0.00000  Uiso   1.00
C319   C     0.34341   0.59231   0.16674   0.00000  Uiso   1.00
C320   C     0.15662   0.90766   0.16674   0.00000  Uiso   1.00
C321   C     0.15697   0.59273   0.16658   0.00000  Uiso   1.00
C322   C     0.05960   0.80912   0.16668   0.00000  Uiso   1.00
C323   C     0.34302   0.90726   0.16658   0.00000  Uiso   1.00
C324   C     0.49940   0.64007   0.05460   0.00000  Uiso   1.00
C325   C     0.47578   0.59585   0.06302   0.00000  Uiso   1.00
C326   C     0.49920   0.85627   0.26945   0.00000  Uiso   1.00
C327   C     0.01356   0.90529   0.27633   0.00000  Uiso   1.00
C328   C     0.00058   0.85993   0.05458   0.00000  Uiso   1.00
C329   C     0.02420   0.90413   0.06317   0.00000  Uiso   1.00
C330   C     0.00083   0.64373   0.26948   0.00000  Uiso   1.00
C331   C     0.48653   0.59471   0.27645   0.00000  Uiso   1.00
C332   C     0.24939   0.89007   0.05460   0.00000  Uiso   1.00
C333   C     0.30944   0.94071   0.16665   0.00000  Uiso   1.00
C334   C     0.22577   0.84584   0.06300   0.00000  Uiso   1.00
C335   C     0.24920   0.60627   0.26945   0.00000  Uiso   1.00
C336   C     0.26355   0.65529   0.27633   0.00000  Uiso   1.00
C337   C     0.25059   0.60993   0.05458   0.00000  Uiso   1.00
C338   C     0.27421   0.65413   0.06317   0.00000  Uiso   1.00
C339   C     0.25084   0.89374   0.26948   0.00000  Uiso   1.00
C340   C     0.23654   0.84470   0.27647   0.00000  Uiso   1.00
C341   C     0.19055   0.55929   0.16665   0.00000  Uiso   1.00
C342   C     0.19041   0.94087   0.16668   0.00000  Uiso   1.00
C343   C     0.30960   0.55912   0.16668   0.00000  Uiso   1.00
C344   C     0.48876   0.71182   0.02479   0.00000  Uiso   1.00
Cu345  Cu    0.00000   0.75000   0.21355   0.00000  Uiso   1.00
Cu346  Cu    0.00000   0.75000   0.11978   0.00000  Uiso   1.00
Cu347  Cu    0.25000   0.50000   0.21355   0.00000  Uiso   1.00
Cu348  Cu    0.25000   0.50000   0.11978   0.00000  Uiso   1.00
H349   H     0.40150   0.65430   0.09212   0.00000  Uiso   1.00
H350   H     0.34782   0.59635   0.24140   0.00000  Uiso   1.00
H351   H     0.34846   0.59574   0.09211   0.00000  Uiso   1.00
H352   H     0.15230   0.90350   0.24141   0.00000  Uiso   1.00
H353   H     0.34761   0.90351   0.24126   0.00000  Uiso   1.00
H354   H     0.15273   0.59678   0.09184   0.00000  Uiso   1.00
H355   H     0.15244   0.59654   0.24126   0.00000  Uiso   1.00
H356   H     0.34720   0.90315   0.09184   0.00000  Uiso   1.00
H357   H     0.01801   0.64623   0.08582   0.00000  Uiso   1.00
H358   H     0.02198   0.63561   0.02583   0.00000  Uiso   1.00
H359   H     0.49800   0.56676   0.06098   0.00000  Uiso   1.00
H360   H     0.09783   0.84634   0.24140   0.00000  Uiso   1.00
H361   H     0.46158   0.59599   0.09799   0.00000  Uiso   1.00
H362   H     0.45036   0.59131   0.03710   0.00000  Uiso   1.00
H363   H     0.46685   0.85166   0.28363   0.00000  Uiso   1.00
H364   H     0.49771   0.85253   0.23173   0.00000  Uiso   1.00
H365   H     0.04851   0.90754   0.27706   0.00000  Uiso   1.00
H366   H     0.00180   0.92680   0.24756   0.00000  Uiso   1.00
H367   H     0.00036   0.91970   0.30841   0.00000  Uiso   1.00
H368   H     0.48187   0.85373   0.08571   0.00000  Uiso   1.00
H369   H     0.47808   0.86447   0.02576   0.00000  Uiso   1.00
H370   H     0.00199   0.93324   0.06108   0.00000  Uiso   1.00
H371   H     0.09845   0.84575   0.09211   0.00000  Uiso   1.00
H372   H     0.03828   0.90393   0.09820   0.00000  Uiso   1.00
H373   H     0.04970   0.90869   0.03735   0.00000  Uiso   1.00
H374   H     0.03319   0.64840   0.28363   0.00000  Uiso   1.00
H375   H     0.00230   0.64744   0.23175   0.00000  Uiso   1.00
H376   H     0.45159   0.59247   0.27766   0.00000  Uiso   1.00
H377   H     0.49793   0.57323   0.24749   0.00000  Uiso   1.00
H378   H     0.00009   0.58023   0.30833   0.00000  Uiso   1.00
H379   H     0.26798   0.89622   0.08583   0.00000  Uiso   1.00
H380   H     0.27199   0.88562   0.02585   0.00000  Uiso   1.00
H381   H     0.24800   0.81676   0.06096   0.00000  Uiso   1.00
H382   H     0.40228   0.65352   0.24141   0.00000  Uiso   1.00
H383   H     0.21155   0.84597   0.09795   0.00000  Uiso   1.00
H384   H     0.20036   0.84131   0.03705   0.00000  Uiso   1.00
H385   H     0.21684   0.60166   0.28363   0.00000  Uiso   1.00
H386   H     0.24771   0.60253   0.23173   0.00000  Uiso   1.00
H387   H     0.29850   0.65754   0.27706   0.00000  Uiso   1.00
H388   H     0.25180   0.67680   0.24756   0.00000  Uiso   1.00
H389   H     0.25036   0.66970   0.30842   0.00000  Uiso   1.00
H390   H     0.23188   0.60373   0.08572   0.00000  Uiso   1.00
H391   H     0.22808   0.61446   0.02576   0.00000  Uiso   1.00
H392   H     0.25200   0.68324   0.06108   0.00000  Uiso   1.00
H393   H     0.09761   0.65350   0.24126   0.00000  Uiso   1.00
H394   H     0.28829   0.65393   0.09819   0.00000  Uiso   1.00
H395   H     0.29971   0.65869   0.03735   0.00000  Uiso   1.00
H396   H     0.28320   0.89842   0.28363   0.00000  Uiso   1.00
H397   H     0.25231   0.89744   0.23176   0.00000  Uiso   1.00
H398   H     0.20160   0.84247   0.27773   0.00000  Uiso   1.00
H399   H     0.24791   0.82324   0.24748   0.00000  Uiso   1.00
H400   H     0.25016   0.83023   0.30832   0.00000  Uiso   1.00
H401   H     0.40272   0.84677   0.09184   0.00000  Uiso   1.00
H402   H     0.40245   0.84655   0.24126   0.00000  Uiso   1.00
H403   H     0.09721   0.65316   0.09184   0.00000  Uiso   1.00
H404   H     0.15149   0.90431   0.09212   0.00000  Uiso   1.00
N405   N     0.00000   0.75000   0.28402   0.00000  Uiso   1.00
N406   N     0.00000   0.75000   0.04931   0.00000  Uiso   1.00
N407   N     0.25000   0.50000   0.28402   0.00000  Uiso   1.00
N408   N     0.25000   0.50000   0.04931   0.00000  Uiso   1.00
O409   O     0.04509   0.70491   0.20625   0.00000  Uiso   1.00
O410   O     0.20492   0.54509   0.12709   0.00000  Uiso   1.00
O411   O     0.20492   0.54509   0.20625   0.00000  Uiso   1.00
O412   O     0.29509   0.95491   0.12709   0.00000  Uiso   1.00
O413   O     0.20492   0.95491   0.12709   0.00000  Uiso   1.00
O414   O     0.29509   0.54509   0.20625   0.00000  Uiso   1.00
O415   O     0.29509   0.54509   0.12709   0.00000  Uiso   1.00
O416   O     0.20492   0.95491   0.20625   0.00000  Uiso   1.00
O417   O     0.47012   0.67562   0.04733   0.00000  Uiso   1.00
O418   O     0.02961   0.82545   0.28718   0.00000  Uiso   1.00
O419   O     0.02986   0.82438   0.04734   0.00000  Uiso   1.00
O420   O     0.45492   0.79509   0.12709   0.00000  Uiso   1.00
O421   O     0.47041   0.67455   0.28718   0.00000  Uiso   1.00
O422   O     0.22012   0.92562   0.04733   0.00000  Uiso   1.00
O423   O     0.27961   0.57545   0.28718   0.00000  Uiso   1.00
O424   O     0.27986   0.57438   0.04734   0.00000  Uiso   1.00
O425   O     0.22041   0.92454   0.28718   0.00000  Uiso   1.00
O426   O     0.45492   0.79509   0.20625   0.00000  Uiso   1.00
O427   O     0.04509   0.70491   0.12709   0.00000  Uiso   1.00
O428   O     0.45492   0.70491   0.12709   0.00000  Uiso   1.00
O429   O     0.04509   0.79509   0.20625   0.00000  Uiso   1.00
O430   O     0.04509   0.79509   0.12709   0.00000  Uiso   1.00
O431   O     0.45492   0.70491   0.20625   0.00000  Uiso   1.00
O432   O     0.29509   0.95491   0.20625   0.00000  Uiso   1.00
C433   C     0.55944   0.69071   0.16665   0.00000  Uiso   1.00
C434   C     0.51107   0.78841   0.30878   0.00000  Uiso   1.00
C435   C     0.51123   0.78818   0.02479   0.00000  Uiso   1.00
C436   C     0.98893   0.71160   0.30878   0.00000  Uiso   1.00
C437   C     0.73876   0.96182   0.02479   0.00000  Uiso   1.00
C438   C     0.76107   0.53841   0.30878   0.00000  Uiso   1.00
C439   C     0.76123   0.53818   0.02479   0.00000  Uiso   1.00
C440   C     0.73893   0.96160   0.30878   0.00000  Uiso   1.00
C441   C     0.89034   0.64163   0.12492   0.00000  Uiso   1.00
C442   C     0.60937   0.85866   0.20862   0.00000  Uiso   1.00
C443   C     0.60965   0.85838   0.12492   0.00000  Uiso   1.00
C444   C     0.94055   0.80929   0.16665   0.00000  Uiso   1.00
C445   C     0.89071   0.64125   0.20862   0.00000  Uiso   1.00
C446   C     0.60921   0.64117   0.20847   0.00000  Uiso   1.00
C447   C     0.89088   0.85890   0.12465   0.00000  Uiso   1.00
C448   C     0.89082   0.85885   0.20847   0.00000  Uiso   1.00
C449   C     0.60908   0.64106   0.12465   0.00000  Uiso   1.00
C450   C     0.64033   0.89164   0.12492   0.00000  Uiso   1.00
C451   C     0.85936   0.60867   0.20862   0.00000  Uiso   1.00
C452   C     0.85966   0.60838   0.12492   0.00000  Uiso   1.00
C453   C     0.64072   0.89124   0.20862   0.00000  Uiso   1.00
C454   C     0.85921   0.89118   0.20847   0.00000  Uiso   1.00
C455   C     0.94041   0.69087   0.16668   0.00000  Uiso   1.00
C456   C     0.64088   0.60890   0.12465   0.00000  Uiso   1.00
C457   C     0.64082   0.60885   0.20847   0.00000  Uiso   1.00
C458   C     0.85907   0.89105   0.12465   0.00000  Uiso   1.00
C459   C     0.59341   0.84231   0.16674   0.00000  Uiso   1.00
C460   C     0.90661   0.65766   0.16674   0.00000  Uiso   1.00
C461   C     0.90697   0.84273   0.16658   0.00000  Uiso   1.00
C462   C     0.59302   0.65726   0.16658   0.00000  Uiso   1.00
C463   C     0.84341   0.59231   0.16674   0.00000  Uiso   1.00
C464   C     0.65662   0.90766   0.16674   0.00000  Uiso   1.00
C465   C     0.65697   0.59273   0.16658   0.00000  Uiso   1.00
C466   C     0.55960   0.80912   0.16668   0.00000  Uiso   1.00
C467   C     0.84302   0.90726   0.16658   0.00000  Uiso   1.00
C468   C     0.99940   0.64007   0.05460   0.00000  Uiso   1.00
C469   C     0.97578   0.59585   0.06302   0.00000  Uiso   1.00
C470   C     0.99920   0.85627   0.26945   0.00000  Uiso   1.00
C471   C     0.51356   0.90529   0.27633   0.00000  Uiso   1.00
C472   C     0.50058   0.85993   0.05458   0.00000  Uiso   1.00
C473   C     0.52420   0.90413   0.06317   0.00000  Uiso   1.00
C474   C     0.50083   0.64373   0.26948   0.00000  Uiso   1.00
C475   C     0.98653   0.59471   0.27645   0.00000  Uiso   1.00
C476   C     0.74939   0.89007   0.05460   0.00000  Uiso   1.00
C477   C     0.80944   0.94071   0.16665   0.00000  Uiso   1.00
C478   C     0.72577   0.84584   0.06300   0.00000  Uiso   1.00
C479   C     0.74920   0.60627   0.26945   0.00000  Uiso   1.00
C480   C     0.76355   0.65529   0.27633   0.00000  Uiso   1.00
C481   C     0.75059   0.60993   0.05458   0.00000  Uiso   1.00
C482   C     0.77421   0.65413   0.06317   0.00000  Uiso   1.00
C483   C     0.75084   0.89374   0.26948   0.00000  Uiso   1.00
C484   C     0.73654   0.84470   0.27647   0.00000  Uiso   1.00
C485   C     0.69055   0.55929   0.16665   0.00000  Uiso   1.00
C486   C     0.69041   0.94087   0.16668   0.00000  Uiso   1.00
C487   C     0.80960   0.55912   0.16668   0.00000  Uiso   1.00
C488   C     0.98876   0.71182   0.02479   0.00000  Uiso   1.00
Cu489  Cu    0.50000   0.75000   0.21355   0.00000  Uiso   1.00
Cu490  Cu    0.50000   0.75000   0.11978   0.00000  Uiso   1.00
Cu491  Cu    0.75000   0.50000   0.21355   0.00000  Uiso   1.00
Cu492  Cu    0.75000   0.50000   0.11978   0.00000  Uiso   1.00
H493   H     0.90150   0.65430   0.09212   0.00000  Uiso   1.00
H494   H     0.84782   0.59635   0.24140   0.00000  Uiso   1.00
H495   H     0.84846   0.59574   0.09211   0.00000  Uiso   1.00
H496   H     0.65230   0.90350   0.24141   0.00000  Uiso   1.00
H497   H     0.84761   0.90351   0.24126   0.00000  Uiso   1.00
H498   H     0.65273   0.59678   0.09184   0.00000  Uiso   1.00
H499   H     0.65244   0.59654   0.24126   0.00000  Uiso   1.00
H500   H     0.84720   0.90315   0.09184   0.00000  Uiso   1.00
H501   H     0.51801   0.64623   0.08582   0.00000  Uiso   1.00
H502   H     0.52198   0.63561   0.02583   0.00000  Uiso   1.00
H503   H     0.99800   0.56676   0.06098   0.00000  Uiso   1.00
H504   H     0.59783   0.84634   0.24140   0.00000  Uiso   1.00
H505   H     0.96158   0.59599   0.09799   0.00000  Uiso   1.00
H506   H     0.95036   0.59131   0.03710   0.00000  Uiso   1.00
H507   H     0.96685   0.85166   0.28363   0.00000  Uiso   1.00
H508   H     0.99771   0.85253   0.23173   0.00000  Uiso   1.00
H509   H     0.54851   0.90754   0.27706   0.00000  Uiso   1.00
H510   H     0.50180   0.92680   0.24756   0.00000  Uiso   1.00
H511   H     0.50036   0.91970   0.30841   0.00000  Uiso   1.00
H512   H     0.98187   0.85373   0.08571   0.00000  Uiso   1.00
H513   H     0.97808   0.86447   0.02576   0.00000  Uiso   1.00
H514   H     0.50199   0.93324   0.06108   0.00000  Uiso   1.00
H515   H     0.59845   0.84575   0.09211   0.00000  Uiso   1.00
H516   H     0.53828   0.90393   0.09820   0.00000  Uiso   1.00
H517   H     0.54970   0.90869   0.03735   0.00000  Uiso   1.00
H518   H     0.53319   0.64840   0.28363   0.00000  Uiso   1.00
H519   H     0.50230   0.64744   0.23175   0.00000  Uiso   1.00
H520   H     0.95159   0.59247   0.27766   0.00000  Uiso   1.00
H521   H     0.99793   0.57323   0.24749   0.00000  Uiso   1.00
H522   H     0.50009   0.58023   0.30833   0.00000  Uiso   1.00
H523   H     0.76798   0.89622   0.08583   0.00000  Uiso   1.00
H524   H     0.77199   0.88562   0.02585   0.00000  Uiso   1.00
H525   H     0.74800   0.81676   0.06096   0.00000  Uiso   1.00
H526   H     0.90228   0.65352   0.24141   0.00000  Uiso   1.00
H527   H     0.71155   0.84597   0.09795   0.00000  Uiso   1.00
H528   H     0.70036   0.84131   0.03705   0.00000  Uiso   1.00
H529   H     0.71684   0.60166   0.28363   0.00000  Uiso   1.00
H530   H     0.74771   0.60253   0.23173   0.00000  Uiso   1.00
H531   H     0.79850   0.65754   0.27706   0.00000  Uiso   1.00
H532   H     0.75180   0.67680   0.24756   0.00000  Uiso   1.00
H533   H     0.75036   0.66970   0.30842   0.00000  Uiso   1.00
H534   H     0.73188   0.60373   0.08572   0.00000  Uiso   1.00
H535   H     0.72808   0.61446   0.02576   0.00000  Uiso   1.00
H536   H     0.75200   0.68324   0.06108   0.00000  Uiso   1.00
H537   H     0.59761   0.65350   0.24126   0.00000  Uiso   1.00
H538   H     0.78829   0.65393   0.09819   0.00000  Uiso   1.00
H539   H     0.79971   0.65869   0.03735   0.00000  Uiso   1.00
H540   H     0.78320   0.89842   0.28363   0.00000  Uiso   1.00
H541   H     0.75231   0.89744   0.23176   0.00000  Uiso   1.00
H542   H     0.70160   0.84247   0.27773   0.00000  Uiso   1.00
H543   H     0.74791   0.82324   0.24748   0.00000  Uiso   1.00
H544   H     0.75016   0.83023   0.30832   0.00000  Uiso   1.00
H545   H     0.90272   0.84677   0.09184   0.00000  Uiso   1.00
H546   H     0.90245   0.84655   0.24126   0.00000  Uiso   1.00
H547   H     0.59721   0.65316   0.09184   0.00000  Uiso   1.00
H548   H     0.65149   0.90431   0.09212   0.00000  Uiso   1.00
N549   N     0.50000   0.75000   0.28402   0.00000  Uiso   1.00
N550   N     0.50000   0.75000   0.04931   0.00000  Uiso   1.00
N551   N     0.75000   0.50000   0.28402   0.00000  Uiso   1.00
N552   N     0.75000   0.50000   0.04931   0.00000  Uiso   1.00
O553   O     0.54509   0.70491   0.20625   0.00000  Uiso   1.00
O554   O     0.70492   0.54509   0.12709   0.00000  Uiso   1.00
O555   O     0.70492   0.54509   0.20625   0.00000  Uiso   1.00
O556   O     0.79509   0.95491   0.12709   0.00000  Uiso   1.00
O557   O     0.70492   0.95491   0.12709   0.00000  Uiso   1.00
O558   O     0.79509   0.54509   0.20625   0.00000  Uiso   1.00
O559   O     0.79509   0.54509   0.12709   0.00000  Uiso   1.00
O560   O     0.70492   0.95491   0.20625   0.00000  Uiso   1.00
O561   O     0.97012   0.67562   0.04733   0.00000  Uiso   1.00
O562   O     0.52961   0.82545   0.28718   0.00000  Uiso   1.00
O563   O     0.52986   0.82438   0.04734   0.00000  Uiso   1.00
O564   O     0.95492   0.79509   0.12709   0.00000  Uiso   1.00
O565   O     0.97041   0.67455   0.28718   0.00000  Uiso   1.00
O566   O     0.72012   0.92562   0.04733   0.00000  Uiso   1.00
O567   O     0.77961   0.57545   0.28718   0.00000  Uiso   1.00
O568   O     0.77986   0.57438   0.04734   0.00000  Uiso   1.00
O569   O     0.72041   0.92454   0.28718   0.00000  Uiso   1.00
O570   O     0.95492   0.79509   0.20625   0.00000  Uiso   1.00
O571   O     0.54509   0.70491   0.12709   0.00000  Uiso   1.00
O572   O     0.95492   0.70491   0.12709   0.00000  Uiso   1.00
O573   O     0.54509   0.79509   0.20625   0.00000  Uiso   1.00
O574   O     0.54509   0.79509   0.12709   0.00000  Uiso   1.00
O575   O     0.95492   0.70491   0.20625   0.00000  Uiso   1.00
O576   O     0.79509   0.95491   0.20625   0.00000  Uiso   1.00
C577   C     0.05944   0.19071   0.49998   0.00000  Uiso   1.00
C578   C     0.01107   0.28841   0.64211   0.00000  Uiso   1.00
C579   C     0.01123   0.28818   0.35812   0.00000  Uiso   1.00
C580   C     0.48893   0.21160   0.64211   0.00000  Uiso   1.00
C581   C     0.23876   0.46182   0.35812   0.00000  Uiso   1.00
C582   C     0.26107   0.03841   0.64211   0.00000  Uiso   1.00
C583   C     0.26123   0.03818   0.35812   0.00000  Uiso   1.00
C584   C     0.23893   0.46160   0.64211   0.00000  Uiso   1.00
C585   C     0.39034   0.14163   0.45825   0.00000  Uiso   1.00
C586   C     0.10937   0.35866   0.54195   0.00000  Uiso   1.00
C587   C     0.10965   0.35838   0.45825   0.00000  Uiso   1.00
C588   C     0.44055   0.30929   0.49998   0.00000  Uiso   1.00
C589   C     0.39071   0.14125   0.54195   0.00000  Uiso   1.00
C590   C     0.10921   0.14117   0.54180   0.00000  Uiso   1.00
C591   C     0.39088   0.35890   0.45798   0.00000  Uiso   1.00
C592   C     0.39082   0.35885   0.54180   0.00000  Uiso   1.00
C593   C     0.10908   0.14106   0.45798   0.00000  Uiso   1.00
C594   C     0.14033   0.39164   0.45825   0.00000  Uiso   1.00
C595   C     0.35936   0.10867   0.54195   0.00000  Uiso   1.00
C596   C     0.35966   0.10838   0.45825   0.00000  Uiso   1.00
C597   C     0.14072   0.39124   0.54195   0.00000  Uiso   1.00
C598   C     0.35921   0.39118   0.54180   0.00000  Uiso   1.00
C599   C     0.44041   0.19087   0.50001   0.00000  Uiso   1.00
C600   C     0.14088   0.10890   0.45798   0.00000  Uiso   1.00
C601   C     0.14082   0.10885   0.54180   0.00000  Uiso   1.00
C602   C     0.35907   0.39105   0.45798   0.00000  Uiso   1.00
C603   C     0.09341   0.34231   0.50008   0.00000  Uiso   1.00
C604   C     0.40661   0.15766   0.50008   0.00000  Uiso   1.00
C605   C     0.40697   0.34273   0.49992   0.00000  Uiso   1.00
C606   C     0.09302   0.15726   0.49992   0.00000  Uiso   1.00
C607   C     0.34341   0.09231   0.50008   0.00000  Uiso   1.00
C608   C     0.15662   0.40766   0.50008   0.00000  Uiso   1.00
C609   C     0.15697   0.09273   0.49992   0.00000  Uiso   1.00
C610   C     0.05960   0.30912   0.50001   0.00000  Uiso   1.00
C611   C     0.34302   0.40726   0.49992   0.00000  Uiso   1.00
C612   C     0.49940   0.14007   0.38793   0.00000  Uiso   1.00
C613   C     0.47578   0.09585   0.39636   0.00000  Uiso   1.00
C614   C     0.49920   0.35627   0.60278   0.00000  Uiso   1.00
C615   C     0.01356   0.40529   0.60966   0.00000  Uiso   1.00
C616   C     0.00058   0.35993   0.38791   0.00000  Uiso   1.00
C617   C     0.02420   0.40413   0.39651   0.00000  Uiso   1.00
C618   C     0.00083   0.14373   0.60281   0.00000  Uiso   1.00
C619   C     0.48653   0.09471   0.60979   0.00000  Uiso   1.00
C620   C     0.24939   0.39007   0.38793   0.00000  Uiso   1.00
C621   C     0.30944   0.44071   0.49998   0.00000  Uiso   1.00
C622   C     0.22577   0.34584   0.39633   0.00000  Uiso   1.00
C623   C     0.24920   0.10627   0.60279   0.00000  Uiso   1.00
C624   C     0.26355   0.15529   0.60967   0.00000  Uiso   1.00
C625   C     0.25059   0.10993   0.38792   0.00000  Uiso   1.00
C626   C     0.27421   0.15413   0.39650   0.00000  Uiso   1.00
C627   C     0.25084   0.39374   0.60281   0.00000  Uiso   1.00
C628   C     0.23654   0.34470   0.60980   0.00000  Uiso   1.00
C629   C     0.19055   0.05929   0.49998   0.00000  Uiso   1.00
C630   C     0.19041   0.44087   0.50001   0.00000  Uiso   1.00
C631   C     0.30960   0.05912   0.50001   0.00000  Uiso   1.00
C632   C     0.48876   0.21182   0.35812   0.00000  Uiso   1.00
Cu633  Cu    0.00000   0.25000   0.54689   0.00000  Uiso   1.00
Cu634  Cu    0.00000   0.25000   0.45311   0.00000  Uiso   1.00
Cu635  Cu    0.25000   0.00000   0.54689   0.00000  Uiso   1.00
Cu636  Cu    0.25000   0.00000   0.45311   0.00000  Uiso   1.00
H637   H     0.40150   0.15430   0.42545   0.00000  Uiso   1.00
H638   H     0.34782   0.09635   0.57474   0.00000  Uiso   1.00
H639   H     0.34846   0.09574   0.42545   0.00000  Uiso   1.00
H640   H     0.15230   0.40350   0.57474   0.00000  Uiso   1.00
H641   H     0.34761   0.40351   0.57459   0.00000  Uiso   1.00
H642   H     0.15273   0.09678   0.42517   0.00000  Uiso   1.00
H643   H     0.15244   0.09654   0.57459   0.00000  Uiso   1.00
H644   H     0.34720   0.40315   0.42517   0.00000  Uiso   1.00
H645   H     0.01801   0.14623   0.41915   0.00000  Uiso   1.00
H646   H     0.02198   0.13561   0.35917   0.00000  Uiso   1.00
H647   H     0.49800   0.06676   0.39431   0.00000  Uiso   1.00
H648   H     0.09783   0.34634   0.57474   0.00000  Uiso   1.00
H649   H     0.46158   0.09599   0.43132   0.00000  Uiso   1.00
H650   H     0.45036   0.09131   0.37043   0.00000  Uiso   1.00
H651   H     0.46685   0.35166   0.61696   0.00000  Uiso   1.00
H652   H     0.49771   0.35253   0.56507   0.00000  Uiso   1.00
H653   H     0.04851   0.40754   0.61039   0.00000  Uiso   1.00
H654   H     0.00180   0.42680   0.58089   0.00000  Uiso   1.00
H655   H     0.00036   0.41970   0.64175   0.00000  Uiso   1.00
H656   H     0.48187   0.35373   0.41905   0.00000  Uiso   1.00
H657   H     0.47808   0.36447   0.35909   0.00000  Uiso   1.00
H658   H     0.00199   0.43324   0.39442   0.00000  Uiso   1.00
H659   H     0.09845   0.34575   0.42545   0.00000  Uiso   1.00
H660   H     0.03828   0.40393   0.43153   0.00000  Uiso   1.00
H661   H     0.04970   0.40869   0.37069   0.00000  Uiso   1.00
H662   H     0.03319   0.14840   0.61696   0.00000  Uiso   1.00
H663   H     0.00230   0.14744   0.56509   0.00000  Uiso   1.00
H664   H     0.45159   0.09247   0.61099   0.00000  Uiso   1.00
H665   H     0.49793   0.07323   0.58082   0.00000  Uiso   1.00
H666   H     0.00009   0.08023   0.64166   0.00000  Uiso   1.00
H667   H     0.26798   0.39622   0.41917   0.00000  Uiso   1.00
H668   H     0.27199   0.38562   0.35918   0.00000  Uiso   1.00
H669   H     0.24800   0.31676   0.39429   0.00000  Uiso   1.00
H670   H     0.40228   0.15352   0.57474   0.00000  Uiso   1.00
H671   H     0.21155   0.34597   0.43129   0.00000  Uiso   1.00
H672   H     0.20036   0.34131   0.37039   0.00000  Uiso   1.00
H673   H     0.21684   0.10166   0.61696   0.00000  Uiso   1.00
H674   H     0.24771   0.10253   0.56507   0.00000  Uiso   1.00
H675   H     0.29850   0.15754   0.61039   0.00000  Uiso   1.00
H676   H     0.25180   0.17680   0.58090   0.00000  Uiso   1.00
H677   H     0.25036   0.16970   0.64175   0.00000  Uiso   1.00
H678   H     0.23188   0.10373   0.41905   0.00000  Uiso   1.00
H679   H     0.22808   0.11446   0.35909   0.00000  Uiso   1.00
H680   H     0.25200   0.18324   0.39441   0.00000  Uiso   1.00
H681   H     0.09761   0.15350   0.57459   0.00000  Uiso   1.00
H682   H     0.28829   0.15393   0.43152   0.00000  Uiso   1.00
H683   H     0.29971   0.15869   0.37068   0.00000  Uiso   1.00
H684   H     0.28320   0.39842   0.61696   0.00000  Uiso   1.00
H685   H     0.25231   0.39744   0.56509   0.00000  Uiso   1.00
H686   H     0.20160   0.34247   0.61106   0.00000  Uiso   1.00
H687   H     0.24791   0.32324   0.58081   0.00000  Uiso   1.00
H688   H     0.25016   0.33023   0.64165   0.00000  Uiso   1.00
H689   H     0.40272   0.34677   0.42517   0.00000  Uiso   1.00
H690   H     0.40245   0.34655   0.57459   0.00000  Uiso   1.00
H691   H     0.09721   0.15316   0.42517   0.00000  Uiso   1.00
H692   H     0.15149   0.40431   0.42545   0.00000  Uiso   1.00
N693   N     0.00000   0.25000   0.61736   0.00000  Uiso   1.00
N694   N     0.00000   0.25000   0.38264   0.00000  Uiso   1.00
N695   N     0.25000   0.00000   0.61736   0.00000  Uiso   1.00
N696   N     0.25000   0.00000   0.38264   0.00000  Uiso   1.00
O697   O     0.04509   0.20491   0.53958   0.00000  Uiso   1.00
O698   O     0.20492   0.04509   0.46042   0.00000  Uiso   1.00
O699   O     0.20492   0.04509   0.53958   0.00000  Uiso   1.00
O700   O     0.29509   0.45491   0.46042   0.00000  Uiso   1.00
O701   O     0.20492   0.45491   0.46042   0.00000  Uiso   1.00
O702   O     0.29509   0.04509   0.53958   0.00000  Uiso   1.00
O703   O     0.29509   0.04509   0.46042   0.00000  Uiso   1.00
O704   O     0.20492   0.45491   0.53958   0.00000  Uiso   1.00
O705   O     0.47012   0.17562   0.38067   0.00000  Uiso   1.00
O706   O     0.02961   0.32545   0.62051   0.00000  Uiso   1.00
O707   O     0.02986   0.32438   0.38067   0.00000  Uiso   1.00
O708   O     0.45492   0.29509   0.46042   0.00000  Uiso   1.00
O709   O     0.47041   0.17455   0.62051   0.00000  Uiso   1.00
O710   O     0.22012   0.42562   0.38066   0.00000  Uiso   1.00
O711   O     0.27961   0.07545   0.62051   0.00000  Uiso   1.00
O712   O     0.27986   0.07438   0.38067   0.00000  Uiso   1.00
O713   O     0.22041   0.42454   0.62051   0.00000  Uiso   1.00
O714   O     0.45492   0.29509   0.53958   0.00000  Uiso   1.00
O715   O     0.04509   0.20491   0.46042   0.00000  Uiso   1.00
O716   O     0.45492   0.20491   0.46042   0.00000  Uiso   1.00
O717   O     0.04509   0.29509   0.53958   0.00000  Uiso   1.00
O718   O     0.04509   0.29509   0.46042   0.00000  Uiso   1.00
O719   O     0.45492   0.20491   0.53958   0.00000  Uiso   1.00
O720   O     0.29509   0.45491   0.53958   0.00000  Uiso   1.00
C721   C     0.55944   0.19071   0.49998   0.00000  Uiso   1.00
C722   C     0.51107   0.28841   0.64211   0.00000  Uiso   1.00
C723   C     0.51123   0.28818   0.35812   0.00000  Uiso   1.00
C724   C     0.98893   0.21160   0.64211   0.00000  Uiso   1.00
C725   C     0.73876   0.46182   0.35812   0.00000  Uiso   1.00
C726   C     0.76107   0.03841   0.64211   0.00000  Uiso   1.00
C727   C     0.76123   0.03818   0.35812   0.00000  Uiso   1.00
C728   C     0.73893   0.46160   0.64211   0.00000  Uiso   1.00
C729   C     0.89034   0.14163   0.45825   0.00000  Uiso   1.00
C730   C     0.60937   0.35866   0.54195   0.00000  Uiso   1.00
C731   C     0.60965   0.35838   0.45825   0.00000  Uiso   1.00
C732   C     0.94055   0.30929   0.49998   0.00000  Uiso   1.00
C733   C     0.89071   0.14125   0.54195   0.00000  Uiso   1.00
C734   C     0.60921   0.14117   0.54180   0.00000  Uiso   1.00
C735   C     0.89088   0.35890   0.45798   0.00000  Uiso   1.00
C736   C     0.89082   0.35885   0.54180   0.00000  Uiso   1.00
C737   C     0.60908   0.14106   0.45798   0.00000  Uiso   1.00
C738   C     0.64033   0.39164   0.45825   0.00000  Uiso   1.00
C739   C     0.85936   0.10867   0.54195   0.00000  Uiso   1.00
C740   C     0.85966   0.10838   0.45825   0.00000  Uiso   1.00
C741   C     0.64072   0.39124   0.54195   0.00000  Uiso   1.00
C742   C     0.85921   0.39118   0.54180   0.00000  Uiso   1.00
C743   C     0.94041   0.19087   0.50001   0.00000  Uiso   1.00
C744   C     0.64088   0.10890   0.45798   0.00000  Uiso   1.00
C745   C     0.64082   0.10885   0.54180   0.00000  Uiso   1.00
C746   C     0.85907   0.39105   0.45798   0.00000  Uiso   1.00
C747   C     0.59341   0.34231   0.50008   0.00000  Uiso   1.00
C748   C     0.90661   0.15766   0.50008   0.00000  Uiso   1.00
C749   C     0.90697   0.34273   0.49992   0.00000  Uiso   1.00
C750   C     0.59302   0.15726   0.49992   0.00000  Uiso   1.00
C751   C     0.84341   0.09231   0.50008   0.00000  Uiso   1.00
C752   C     0.65662   0.40766   0.50008   0.00000  Uiso   1.00
C753   C     0.65697   0.09273   0.49992   0.00000  Uiso   1.00
C754   C     0.55960   0.30912   0.50001   0.00000  Uiso   1.00
C755   C     0.84302   0.40726   0.49992   0.00000  Uiso   1.00
C756   C     0.99940   0.14007   0.38793   0.00000  Uiso   1.00
C757   C     0.97578   0.09585   0.39636   0.00000  Uiso   1.00
C758   C     0.99920   0.35627   0.60278   0.00000  Uiso   1.00
C759   C     0.51356   0.40529   0.60966   0.00000  Uiso   1.00
C760   C     0.50058   0.35993   0.38791   0.00000  Uiso   1.00
C761   C     0.52420   0.40413   0.39651   0.00000  Uiso   1.00
C762   C     0.50083   0.14373   0.60281   0.00000  Uiso   1.00
C763   C     0.98653   0.09471   0.60979   0.00000  Uiso   1.00
C764   C     0.74939   0.39007   0.38793   0.00000  Uiso   1.00
C765   C     0.80944   0.44071   0.49998   0.00000  Uiso   1.00
C766   C     0.72577   0.34584   0.39633   0.00000  Uiso   1.00
C767   C     0.74920   0.10627   0.60279   0.00000  Uiso   1.00
C768   C     0.76355   0.15529   0.60967   0.00000  Uiso   1.00
C769   C     0.75059   0.10993   0.38792   0.00000  Uiso   1.00
C770   C     0.77421   0.15413   0.39650   0.00000  Uiso   1.00
C771   C     0.75084   0.39374   0.60281   0.00000  Uiso   1.00
C772   C     0.73654   0.34470   0.60980   0.00000  Uiso   1.00
C773   C     0.69055   0.05929   0.49998   0.00000  Uiso   1.00
C774   C     0.69041   0.44087   0.50001   0.00000  Uiso   1.00
C775   C     0.80960   0.05912   0.50001   0.00000  Uiso   1.00
C776   C     0.98876   0.21182   0.35812   0.00000  Uiso   1.00
Cu777  Cu    0.50000   0.25000   0.54689   0.00000  Uiso   1.00
Cu778  Cu    0.50000   0.25000   0.45311   0.00000  Uiso   1.00
Cu779  Cu    0.75000   0.00000   0.54689   0.00000  Uiso   1.00
Cu780  Cu    0.75000   0.00000   0.45311   0.00000  Uiso   1.00
H781   H     0.90150   0.15430   0.42545   0.00000  Uiso   1.00
H782   H     0.84782   0.09635   0.57474   0.00000  Uiso   1.00
H783   H     0.84846   0.09574   0.42545   0.00000  Uiso   1.00
H784   H     0.65230   0.40350   0.57474   0.00000  Uiso   1.00
H785   H     0.84761   0.40351   0.57459   0.00000  Uiso   1.00
H786   H     0.65273   0.09678   0.42517   0.00000  Uiso   1.00
H787   H     0.65244   0.09654   0.57459   0.00000  Uiso   1.00
H788   H     0.84720   0.40315   0.42517   0.00000  Uiso   1.00
H789   H     0.51801   0.14623   0.41915   0.00000  Uiso   1.00
H790   H     0.52198   0.13561   0.35917   0.00000  Uiso   1.00
H791   H     0.99800   0.06676   0.39431   0.00000  Uiso   1.00
H792   H     0.59783   0.34634   0.57474   0.00000  Uiso   1.00
H793   H     0.96158   0.09599   0.43132   0.00000  Uiso   1.00
H794   H     0.95036   0.09131   0.37043   0.00000  Uiso   1.00
H795   H     0.96685   0.35166   0.61696   0.00000  Uiso   1.00
H796   H     0.99771   0.35253   0.56507   0.00000  Uiso   1.00
H797   H     0.54851   0.40754   0.61039   0.00000  Uiso   1.00
H798   H     0.50180   0.42680   0.58089   0.00000  Uiso   1.00
H799   H     0.50036   0.41970   0.64175   0.00000  Uiso   1.00
H800   H     0.98187   0.35373   0.41905   0.00000  Uiso   1.00
H801   H     0.97808   0.36447   0.35909   0.00000  Uiso   1.00
H802   H     0.50199   0.43324   0.39442   0.00000  Uiso   1.00
H803   H     0.59845   0.34575   0.42545   0.00000  Uiso   1.00
H804   H     0.53828   0.40393   0.43153   0.00000  Uiso   1.00
H805   H     0.54970   0.40869   0.37069   0.00000  Uiso   1.00
H806   H     0.53319   0.14840   0.61696   0.00000  Uiso   1.00
H807   H     0.50230   0.14744   0.56509   0.00000  Uiso   1.00
H808   H     0.95159   0.09247   0.61099   0.00000  Uiso   1.00
H809   H     0.99793   0.07323   0.58082   0.00000  Uiso   1.00
H810   H     0.50009   0.08023   0.64166   0.00000  Uiso   1.00
H811   H     0.76798   0.39622   0.41917   0.00000  Uiso   1.00
H812   H     0.77199   0.38562   0.35918   0.00000  Uiso   1.00
H813   H     0.74800   0.31676   0.39429   0.00000  Uiso   1.00
H814   H     0.90228   0.15352   0.57474   0.00000  Uiso   1.00
H815   H     0.71155   0.34597   0.43129   0.00000  Uiso   1.00
H816   H     0.70036   0.34131   0.37039   0.00000  Uiso   1.00
H817   H     0.71684   0.10166   0.61696   0.00000  Uiso   1.00
H818   H     0.74771   0.10253   0.56507   0.00000  Uiso   1.00
H819   H     0.79850   0.15754   0.61039   0.00000  Uiso   1.00
H820   H     0.75180   0.17680   0.58090   0.00000  Uiso   1.00
H821   H     0.75036   0.16970   0.64175   0.00000  Uiso   1.00
H822   H     0.73188   0.10373   0.41905   0.00000  Uiso   1.00
H823   H     0.72808   0.11446   0.35909   0.00000  Uiso   1.00
H824   H     0.75200   0.18324   0.39441   0.00000  Uiso   1.00
H825   H     0.59761   0.15350   0.57459   0.00000  Uiso   1.00
H826   H     0.78829   0.15393   0.43152   0.00000  Uiso   1.00
H827   H     0.79971   0.15869   0.37068   0.00000  Uiso   1.00
H828   H     0.78320   0.39842   0.61696   0.00000  Uiso   1.00
H829   H     0.75231   0.39744   0.56509   0.00000  Uiso   1.00
H830   H     0.70160   0.34247   0.61106   0.00000  Uiso   1.00
H831   H     0.74791   0.32324   0.58081   0.00000  Uiso   1.00
H832   H     0.75016   0.33023   0.64165   0.00000  Uiso   1.00
H833   H     0.90272   0.34677   0.42517   0.00000  Uiso   1.00
H834   H     0.90245   0.34655   0.57459   0.00000  Uiso   1.00
H835   H     0.59721   0.15316   0.42517   0.00000  Uiso   1.00
H836   H     0.65149   0.40431   0.42545   0.00000  Uiso   1.00
N837   N     0.50000   0.25000   0.61736   0.00000  Uiso   1.00
N838   N     0.50000   0.25000   0.38264   0.00000  Uiso   1.00
N839   N     0.75000   0.00000   0.61736   0.00000  Uiso   1.00
N840   N     0.75000   0.00000   0.38264   0.00000  Uiso   1.00
O841   O     0.54509   0.20491   0.53958   0.00000  Uiso   1.00
O842   O     0.70492   0.04509   0.46042   0.00000  Uiso   1.00
O843   O     0.70492   0.04509   0.53958   0.00000  Uiso   1.00
O844   O     0.79509   0.45491   0.46042   0.00000  Uiso   1.00
O845   O     0.70492   0.45491   0.46042   0.00000  Uiso   1.00
O846   O     0.79509   0.04509   0.53958   0.00000  Uiso   1.00
O847   O     0.79509   0.04509   0.46042   0.00000  Uiso   1.00
O848   O     0.70492   0.45491   0.53958   0.00000  Uiso   1.00
O849   O     0.97012   0.17562   0.38067   0.00000  Uiso   1.00
O850   O     0.52961   0.32545   0.62051   0.00000  Uiso   1.00
O851   O     0.52986   0.32438   0.38067   0.00000  Uiso   1.00
O852   O     0.95492   0.29509   0.46042   0.00000  Uiso   1.00
O853   O     0.97041   0.17455   0.62051   0.00000  Uiso   1.00
O854   O     0.72012   0.42562   0.38066   0.00000  Uiso   1.00
O855   O     0.77961   0.07545   0.62051   0.00000  Uiso   1.00
O856   O     0.77986   0.07438   0.38067   0.00000  Uiso   1.00
O857   O     0.72041   0.42454   0.62051   0.00000  Uiso   1.00
O858   O     0.95492   0.29509   0.53958   0.00000  Uiso   1.00
O859   O     0.54509   0.20491   0.46042   0.00000  Uiso   1.00
O860   O     0.95492   0.20491   0.46042   0.00000  Uiso   1.00
O861   O     0.54509   0.29509   0.53958   0.00000  Uiso   1.00
O862   O     0.54509   0.29509   0.46042   0.00000  Uiso   1.00
O863   O     0.95492   0.20491   0.53958   0.00000  Uiso   1.00
O864   O     0.79509   0.45491   0.53958   0.00000  Uiso   1.00
C865   C     0.05944   0.69071   0.49998   0.00000  Uiso   1.00
C866   C     0.01107   0.78841   0.64211   0.00000  Uiso   1.00
C867   C     0.01123   0.78818   0.35812   0.00000  Uiso   1.00
C868   C     0.48893   0.71160   0.64211   0.00000  Uiso   1.00
C869   C     0.23876   0.96182   0.35812   0.00000  Uiso   1.00
C870   C     0.26107   0.53841   0.64211   0.00000  Uiso   1.00
C871   C     0.26123   0.53818   0.35812   0.00000  Uiso   1.00
C872   C     0.23893   0.96160   0.64211   0.00000  Uiso   1.00
C873   C     0.39034   0.64163   0.45825   0.00000  Uiso   1.00
C874   C     0.10937   0.85866   0.54195   0.00000  Uiso   1.00
C875   C     0.10965   0.85838   0.45825   0.00000  Uiso   1.00
C876   C     0.44055   0.80929   0.49998   0.00000  Uiso   1.00
C877   C     0.39071   0.64125   0.54195   0.00000  Uiso   1.00
C878   C     0.10921   0.64117   0.54180   0.00000  Uiso   1.00
C879   C     0.39088   0.85890   0.45798   0.00000  Uiso   1.00
C880   C     0.39082   0.85885   0.54180   0.00000  Uiso   1.00
C881   C     0.10908   0.64106   0.45798   0.00000  Uiso   1.00
C882   C     0.14033   0.89164   0.45825   0.00000  Uiso   1.00
C883   C     0.35936   0.60867   0.54195   0.00000  Uiso   1.00
C884   C     0.35966   0.60838   0.45825   0.00000  Uiso   1.00
C885   C     0.14072   0.89124   0.54195   0.00000  Uiso   1.00
C886   C     0.35921   0.89118   0.54180   0.00000  Uiso   1.00
C887   C     0.44041   0.69087   0.50001   0.00000  Uiso   1.00
C888   C     0.14088   0.60890   0.45798   0.00000  Uiso   1.00
C889   C     0.14082   0.60885   0.54180   0.00000  Uiso   1.00
C890   C     0.35907   0.89105   0.45798   0.00000  Uiso   1.00
C891   C     0.09341   0.84231   0.50008   0.00000  Uiso   1.00
C892   C     0.40661   0.65766   0.50008   0.00000  Uiso   1.00
C893   C     0.40697   0.84273   0.49992   0.00000  Uiso   1.00
C894   C     0.09302   0.65726   0.49992   0.00000  Uiso   1.00
C895   C     0.34341   0.59231   0.50008   0.00000  Uiso   1.00
C896   C     0.15662   0.90766   0.50008   0.00000  Uiso   1.00
C897   C     0.15697   0.59273   0.49992   0.00000  Uiso   1.00
C898   C     0.05960   0.80912   0.50001   0.00000  Uiso   1.00
C899   C     0.34302   0.90726   0.49992   0.00000  Uiso   1.00
C900   C     0.49940   0.64007   0.38793   0.00000  Uiso   1.00
C901   C     0.47578   0.59585   0.39636   0.00000  Uiso   1.00
C902   C     0.49920   0.85627   0.60278   0.00000  Uiso   1.00
C903   C     0.01356   0.90529   0.60966   0.00000  Uiso   1.00
C904   C     0.00058   0.85993   0.38791   0.00000  Uiso   1.00
C905   C     0.02420   0.90413   0.39651   0.00000  Uiso   1.00
C906   C     0.00083   0.64373   0.60281   0.00000  Uiso   1.00
C907   C     0.48653   0.59471   0.60979   0.00000  Uiso   1.00
C908   C     0.24939   0.89007   0.38793   0.00000  Uiso   1.00
C909   C     0.30944   0.94071   0.49998   0.00000  Uiso   1.00
C910   C     0.22577   0.84584   0.39633   0.00000  Uiso   1.00
C911   C     0.24920   0.60627   0.60279   0.00000  Uiso   1.00
C912   C     0.26355   0.65529   0.60967   0.00000  Uiso   1.00
C913   C     0.25059   0.60993   0.38792   0.00000  Uiso   1.00
C914   C     0.27421   0.65413   0.39650   0.00000  Uiso   1.00
C915   C     0.25084   0.89374   0.60281   0.00000  Uiso   1.00
C916   C     0.23654   0.84470   0.60980   0.00000  Uiso   1.00
C917   C     0.19055   0.55929   0.49998   0.00000  Uiso   1.00
C918   C     0.19041   0.94087   0.50001   0.00000  Uiso   1.00
C919   C     0.30960   0.55912   0.50001   0.00000  Uiso   1.00
C920   C     0.48876   0.71182   0.35812   0.00000  Uiso   1.00
Cu921  Cu    0.00000   0.75000   0.54689   0.00000  Uiso   1.00
Cu922  Cu    0.00000   0.75000   0.45311   0.00000  Uiso   1.00
Cu923  Cu    0.25000   0.50000   0.54689   0.00000  Uiso   1.00
Cu924  Cu    0.25000   0.50000   0.45311   0.00000  Uiso   1.00
H925   H     0.40150   0.65430   0.42545   0.00000  Uiso   1.00
H926   H     0.34782   0.59635   0.57474   0.00000  Uiso   1.00
H927   H     0.34846   0.59574   0.42545   0.00000  Uiso   1.00
H928   H     0.15230   0.90350   0.57474   0.00000  Uiso   1.00
H929   H     0.34761   0.90351   0.57459   0.00000  Uiso   1.00
H930   H     0.15273   0.59678   0.42517   0.00000  Uiso   1.00
H931   H     0.15244   0.59654   0.57459   0.00000  Uiso   1.00
H932   H     0.34720   0.90315   0.42517   0.00000  Uiso   1.00
H933   H     0.01801   0.64623   0.41915   0.00000  Uiso   1.00
H934   H     0.02198   0.63561   0.35917   0.00000  Uiso   1.00
H935   H     0.49800   0.56676   0.39431   0.00000  Uiso   1.00
H936   H     0.09783   0.84634   0.57474   0.00000  Uiso   1.00
H937   H     0.46158   0.59599   0.43132   0.00000  Uiso   1.00
H938   H     0.45036   0.59131   0.37043   0.00000  Uiso   1.00
H939   H     0.46685   0.85166   0.61696   0.00000  Uiso   1.00
H940   H     0.49771   0.85253   0.56507   0.00000  Uiso   1.00
H941   H     0.04851   0.90754   0.61039   0.00000  Uiso   1.00
H942   H     0.00180   0.92680   0.58089   0.00000  Uiso   1.00
H943   H     0.00036   0.91970   0.64175   0.00000  Uiso   1.00
H944   H     0.48187   0.85373   0.41905   0.00000  Uiso   1.00
H945   H     0.47808   0.86447   0.35909   0.00000  Uiso   1.00
H946   H     0.00199   0.93324   0.39442   0.00000  Uiso   1.00
H947   H     0.09845   0.84575   0.42545   0.00000  Uiso   1.00
H948   H     0.03828   0.90393   0.43153   0.00000  Uiso   1.00
H949   H     0.04970   0.90869   0.37069   0.00000  Uiso   1.00
H950   H     0.03319   0.64840   0.61696   0.00000  Uiso   1.00
H951   H     0.00230   0.64744   0.56509   0.00000  Uiso   1.00
H952   H     0.45159   0.59247   0.61099   0.00000  Uiso   1.00
H953   H     0.49793   0.57323   0.58082   0.00000  Uiso   1.00
H954   H     0.00009   0.58023   0.64166   0.00000  Uiso   1.00
H955   H     0.26798   0.89622   0.41917   0.00000  Uiso   1.00
H956   H     0.27199   0.88562   0.35918   0.00000  Uiso   1.00
H957   H     0.24800   0.81676   0.39429   0.00000  Uiso   1.00
H958   H     0.40228   0.65352   0.57474   0.00000  Uiso   1.00
H959   H     0.21155   0.84597   0.43129   0.00000  Uiso   1.00
H960   H     0.20036   0.84131   0.37039   0.00000  Uiso   1.00
H961   H     0.21684   0.60166   0.61696   0.00000  Uiso   1.00
H962   H     0.24771   0.60253   0.56507   0.00000  Uiso   1.00
H963   H     0.29850   0.65754   0.61039   0.00000  Uiso   1.00
H964   H     0.25180   0.67680   0.58090   0.00000  Uiso   1.00
H965   H     0.25036   0.66970   0.64175   0.00000  Uiso   1.00
H966   H     0.23188   0.60373   0.41905   0.00000  Uiso   1.00
H967   H     0.22808   0.61446   0.35909   0.00000  Uiso   1.00
H968   H     0.25200   0.68324   0.39441   0.00000  Uiso   1.00
H969   H     0.09761   0.65350   0.57459   0.00000  Uiso   1.00
H970   H     0.28829   0.65393   0.43152   0.00000  Uiso   1.00
H971   H     0.29971   0.65869   0.37068   0.00000  Uiso   1.00
H972   H     0.28320   0.89842   0.61696   0.00000  Uiso   1.00
H973   H     0.25231   0.89744   0.56509   0.00000  Uiso   1.00
H974   H     0.20160   0.84247   0.61106   0.00000  Uiso   1.00
H975   H     0.24791   0.82324   0.58081   0.00000  Uiso   1.00
H976   H     0.25016   0.83023   0.64165   0.00000  Uiso   1.00
H977   H     0.40272   0.84677   0.42517   0.00000  Uiso   1.00
H978   H     0.40245   0.84655   0.57459   0.00000  Uiso   1.00
H979   H     0.09721   0.65316   0.42517   0.00000  Uiso   1.00
H980   H     0.15149   0.90431   0.42545   0.00000  Uiso   1.00
N981   N     0.00000   0.75000   0.61736   0.00000  Uiso   1.00
N982   N     0.00000   0.75000   0.38264   0.00000  Uiso   1.00
N983   N     0.25000   0.50000   0.61736   0.00000  Uiso   1.00
N984   N     0.25000   0.50000   0.38264   0.00000  Uiso   1.00
O985   O     0.04509   0.70491   0.53958   0.00000  Uiso   1.00
O986   O     0.20492   0.54509   0.46042   0.00000  Uiso   1.00
O987   O     0.20492   0.54509   0.53958   0.00000  Uiso   1.00
O988   O     0.29509   0.95491   0.46042   0.00000  Uiso   1.00
O989   O     0.20492   0.95491   0.46042   0.00000  Uiso   1.00
O990   O     0.29509   0.54509   0.53958   0.00000  Uiso   1.00
O991   O     0.29509   0.54509   0.46042   0.00000  Uiso   1.00
O992   O     0.20492   0.95491   0.53958   0.00000  Uiso   1.00
O993   O     0.47012   0.67562   0.38067   0.00000  Uiso   1.00
O994   O     0.02961   0.82545   0.62051   0.00000  Uiso   1.00
O995   O     0.02986   0.82438   0.38067   0.00000  Uiso   1.00
O996   O     0.45492   0.79509   0.46042   0.00000  Uiso   1.00
O997   O     0.47041   0.67455   0.62051   0.00000  Uiso   1.00
O998   O     0.22012   0.92562   0.38066   0.00000  Uiso   1.00
O999   O     0.27961   0.57545   0.62051   0.00000  Uiso   1.00
O1000  O     0.27986   0.57438   0.38067   0.00000  Uiso   1.00
O1001  O     0.22041   0.92454   0.62051   0.00000  Uiso   1.00
O1002  O     0.45492   0.79509   0.53958   0.00000  Uiso   1.00
O1003  O     0.04509   0.70491   0.46042   0.00000  Uiso   1.00
O1004  O     0.45492   0.70491   0.46042   0.00000  Uiso   1.00
O1005  O     0.04509   0.79509   0.53958   0.00000  Uiso   1.00
O1006  O     0.04509   0.79509   0.46042   0.00000  Uiso   1.00
O1007  O     0.45492   0.70491   0.53958   0.00000  Uiso   1.00
O1008  O     0.29509   0.95491   0.53958   0.00000  Uiso   1.00
C1009  C     0.55944   0.69071   0.49998   0.00000  Uiso   1.00
C1010  C     0.51107   0.78841   0.64211   0.00000  Uiso   1.00
C1011  C     0.51123   0.78818   0.35812   0.00000  Uiso   1.00
C1012  C     0.98893   0.71160   0.64211   0.00000  Uiso   1.00
C1013  C     0.73876   0.96182   0.35812   0.00000  Uiso   1.00
C1014  C     0.76107   0.53841   0.64211   0.00000  Uiso   1.00
C1015  C     0.76123   0.53818   0.35812   0.00000  Uiso   1.00
C1016  C     0.73893   0.96160   0.64211   0.00000  Uiso   1.00
C1017  C     0.89034   0.64163   0.45825   0.00000  Uiso   1.00
C1018  C     0.60937   0.85866   0.54195   0.00000  Uiso   1.00
C1019  C     0.60965   0.85838   0.45825   0.00000  Uiso   1.00
C1020  C     0.94055   0.80929   0.49998   0.00000  Uiso   1.00
C1021  C     0.89071   0.64125   0.54195   0.00000  Uiso   1.00
C1022  C     0.60921   0.64117   0.54180   0.00000  Uiso   1.00
C1023  C     0.89088   0.85890   0.45798   0.00000  Uiso   1.00
C1024  C     0.89082   0.85885   0.54180   0.00000  Uiso   1.00
C1025  C     0.60908   0.64106   0.45798   0.00000  Uiso   1.00
C1026  C     0.64033   0.89164   0.45825   0.00000  Uiso   1.00
C1027  C     0.85936   0.60867   0.54195   0.00000  Uiso   1.00
C1028  C     0.85966   0.60838   0.45825   0.00000  Uiso   1.00
C1029  C     0.64072   0.89124   0.54195   0.00000  Uiso   1.00
C1030  C     0.85921   0.89118   0.54180   0.00000  Uiso   1.00
C1031  C     0.94041   0.69087   0.50001   0.00000  Uiso   1.00
C1032  C     0.64088   0.60890   0.45798   0.00000  Uiso   1.00
C1033  C     0.64082   0.60885   0.54180   0.00000  Uiso   1.00
C1034  C     0.85907   0.89105   0.45798   0.00000  Uiso   1.00
C1035  C     0.59341   0.84231   0.50008   0.00000  Uiso   1.00
C1036  C     0.90661   0.65766   0.50008   0.00000  Uiso   1.00
C1037  C     0.90697   0.84273   0.49992   0.00000  Uiso   1.00
C1038  C     0.59302   0.65726   0.49992   0.00000  Uiso   1.00
C1039  C     0.84341   0.59231   0.50008   0.00000  Uiso   1.00
C1040  C     0.65662   0.90766   0.50008   0.00000  Uiso   1.00
C1041  C     0.65697   0.59273   0.49992   0.00000  Uiso   1.00
C1042  C     0.55960   0.80912   0.50001   0.00000  Uiso   1.00
C1043  C     0.84302   0.90726   0.49992   0.00000  Uiso   1.00
C1044  C     0.99940   0.64007   0.38793   0.00000  Uiso   1.00
C1045  C     0.97578   0.59585   0.39636   0.00000  Uiso   1.00
C1046  C     0.99920   0.85627   0.60278   0.00000  Uiso   1.00
C1047  C     0.51356   0.90529   0.60966   0.00000  Uiso   1.00
C1048  C     0.50058   0.85993   0.38791   0.00000  Uiso   1.00
C1049  C     0.52420   0.90413   0.39651   0.00000  Uiso   1.00
C1050  C     0.50083   0.64373   0.60281   0.00000  Uiso   1.00
C1051  C     0.98653   0.59471   0.60979   0.00000  Uiso   1.00
C1052  C     0.74939   0.89007   0.38793   0.00000  Uiso   1.00
C1053  C     0.80944   0.94071   0.49998   0.00000  Uiso   1.00
C1054  C     0.72577   0.84584   0.39633   0.00000  Uiso   1.00
C1055  C     0.74920   0.60627   0.60279   0.00000  Uiso   1.00
C1056  C     0.76355   0.65529   0.60967   0.00000  Uiso   1.00
C1057  C     0.75059   0.60993   0.38792   0.00000  Uiso   1.00
C1058  C     0.77421   0.65413   0.39650   0.00000  Uiso   1.00
C1059  C     0.75084   0.89374   0.60281   0.00000  Uiso   1.00
C1060  C     0.73654   0.84470   0.60980   0.00000  Uiso   1.00
C1061  C     0.69055   0.55929   0.49998   0.00000  Uiso   1.00
C1062  C     0.69041   0.94087   0.50001   0.00000  Uiso   1.00
C1063  C     0.80960   0.55912   0.50001   0.00000  Uiso   1.00
C1064  C     0.98876   0.71182   0.35812   0.00000  Uiso   1.00
Cu1065 Cu    0.50000   0.75000   0.54689   0.00000  Uiso   1.00
Cu1066 Cu    0.50000   0.75000   0.45311   0.00000  Uiso   1.00
Cu1067 Cu    0.75000   0.50000   0.54689   0.00000  Uiso   1.00
Cu1068 Cu    0.75000   0.50000   0.45311   0.00000  Uiso   1.00
H1069  H     0.90150   0.65430   0.42545   0.00000  Uiso   1.00
H1070  H     0.84782   0.59635   0.57474   0.00000  Uiso   1.00
H1071  H     0.84846   0.59574   0.42545   0.00000  Uiso   1.00
H1072  H     0.65230   0.90350   0.57474   0.00000  Uiso   1.00
H1073  H     0.84761   0.90351   0.57459   0.00000  Uiso   1.00
H1074  H     0.65273   0.59678   0.42517   0.00000  Uiso   1.00
H1075  H     0.65244   0.59654   0.57459   0.00000  Uiso   1.00
H1076  H     0.84720   0.90315   0.42517   0.00000  Uiso   1.00
H1077  H     0.51801   0.64623   0.41915   0.00000  Uiso   1.00
H1078  H     0.52198   0.63561   0.35917   0.00000  Uiso   1.00
H1079  H     0.99800   0.56676   0.39431   0.00000  Uiso   1.00
H1080  H     0.59783   0.84634   0.57474   0.00000  Uiso   1.00
H1081  H     0.96158   0.59599   0.43132   0.00000  Uiso   1.00
H1082  H     0.95036   0.59131   0.37043   0.00000  Uiso   1.00
H1083  H     0.96685   0.85166   0.61696   0.00000  Uiso   1.00
H1084  H     0.99771   0.85253   0.56507   0.00000  Uiso   1.00
H1085  H     0.54851   0.90754   0.61039   0.00000  Uiso   1.00
H1086  H     0.50180   0.92680   0.58089   0.00000  Uiso   1.00
H1087  H     0.50036   0.91970   0.64175   0.00000  Uiso   1.00
H1088  H     0.98187   0.85373   0.41905   0.00000  Uiso   1.00
H1089  H     0.97808   0.86447   0.35909   0.00000  Uiso   1.00
H1090  H     0.50199   0.93324   0.39442   0.00000  Uiso   1.00
H1091  H     0.59845   0.84575   0.42545   0.00000  Uiso   1.00
H1092  H     0.53828   0.90393   0.43153   0.00000  Uiso   1.00
H1093  H     0.54970   0.90869   0.37069   0.00000  Uiso   1.00
H1094  H     0.53319   0.64840   0.61696   0.00000  Uiso   1.00
H1095  H     0.50230   0.64744   0.56509   0.00000  Uiso   1.00
H1096  H     0.95159   0.59247   0.61099   0.00000  Uiso   1.00
H1097  H     0.99793   0.57323   0.58082   0.00000  Uiso   1.00
H1098  H     0.50009   0.58023   0.64166   0.00000  Uiso   1.00
H1099  H     0.76798   0.89622   0.41917   0.00000  Uiso   1.00
H1100  H     0.77199   0.88562   0.35918   0.00000  Uiso   1.00
H1101  H     0.74800   0.81676   0.39429   0.00000  Uiso   1.00
H1102  H     0.90228   0.65352   0.57474   0.00000  Uiso   1.00
H1103  H     0.71155   0.84597   0.43129   0.00000  Uiso   1.00
H1104  H     0.70036   0.84131   0.37039   0.00000  Uiso   1.00
H1105  H     0.71684   0.60166   0.61696   0.00000  Uiso   1.00
H1106  H     0.74771   0.60253   0.56507   0.00000  Uiso   1.00
H1107  H     0.79850   0.65754   0.61039   0.00000  Uiso   1.00
H1108  H     0.75180   0.67680   0.58090   0.00000  Uiso   1.00
H1109  H     0.75036   0.66970   0.64175   0.00000  Uiso   1.00
H1110  H     0.73188   0.60373   0.41905   0.00000  Uiso   1.00
H1111  H     0.72808   0.61446   0.35909   0.00000  Uiso   1.00
H1112  H     0.75200   0.68324   0.39441   0.00000  Uiso   1.00
H1113  H     0.59761   0.65350   0.57459   0.00000  Uiso   1.00
H1114  H     0.78829   0.65393   0.43152   0.00000  Uiso   1.00
H1115  H     0.79971   0.65869   0.37068   0.00000  Uiso   1.00
H1116  H     0.78320   0.89842   0.61696   0.00000  Uiso   1.00
H1117  H     0.75231   0.89744   0.56509   0.00000  Uiso   1.00
H1118  H     0.70160   0.84247   0.61106   0.00000  Uiso   1.00
H1119  H     0.74791   0.82324   0.58081   0.00000  Uiso   1.00
H1120  H     0.75016   0.83023   0.64165   0.00000  Uiso   1.00
H1121  H     0.90272   0.84677   0.42517   0.00000  Uiso   1.00
H1122  H     0.90245   0.84655   0.57459   0.00000  Uiso   1.00
H1123  H     0.59721   0.65316   0.42517   0.00000  Uiso   1.00
H1124  H     0.65149   0.90431   0.42545   0.00000  Uiso   1.00
N1125  N     0.50000   0.75000   0.61736   0.00000  Uiso   1.00
N1126  N     0.50000   0.75000   0.38264   0.00000  Uiso   1.00
N1127  N     0.75000   0.50000   0.61736   0.00000  Uiso   1.00
N1128  N     0.75000   0.50000   0.38264   0.00000  Uiso   1.00
O1129  O     0.54509   0.70491   0.53958   0.00000  Uiso   1.00
O1130  O     0.70492   0.54509   0.46042   0.00000  Uiso   1.00
O1131  O     0.70492   0.54509   0.53958   0.00000  Uiso   1.00
O1132  O     0.79509   0.95491   0.46042   0.00000  Uiso   1.00
O1133  O     0.70492   0.95491   0.46042   0.00000  Uiso   1.00
O1134  O     0.79509   0.54509   0.53958   0.00000  Uiso   1.00
O1135  O     0.79509   0.54509   0.46042   0.00000  Uiso   1.00
O1136  O     0.70492   0.95491   0.53958   0.00000  Uiso   1.00
O1137  O     0.97012   0.67562   0.38067   0.00000  Uiso   1.00
O1138  O     0.52961   0.82545   0.62051   0.00000  Uiso   1.00
O1139  O     0.52986   0.82438   0.38067   0.00000  Uiso   1.00
O1140  O     0.95492   0.79509   0.46042   0.00000  Uiso   1.00
O1141  O     0.97041   0.67455   0.62051   0.00000  Uiso   1.00
O1142  O     0.72012   0.92562   0.38066   0.00000  Uiso   1.00
O1143  O     0.77961   0.57545   0.62051   0.00000  Uiso   1.00
O1144  O     0.77986   0.57438   0.38067   0.00000  Uiso   1.00
O1145  O     0.72041   0.92454   0.62051   0.00000  Uiso   1.00
O1146  O     0.95492   0.79509   0.53958   0.00000  Uiso   1.00
O1147  O     0.54509   0.70491   0.46042   0.00000  Uiso   1.00
O1148  O     0.95492   0.70491   0.46042   0.00000  Uiso   1.00
O1149  O     0.54509   0.79509   0.53958   0.00000  Uiso   1.00
O1150  O     0.54509   0.79509   0.46042   0.00000  Uiso   1.00
O1151  O     0.95492   0.70491   0.53958   0.00000  Uiso   1.00
O1152  O     0.79509   0.95491   0.53958   0.00000  Uiso   1.00
C1153  C     0.05944   0.19071   0.83332   0.00000  Uiso   1.00
C1154  C     0.01107   0.28841   0.97545   0.00000  Uiso   1.00
C1155  C     0.01123   0.28818   0.69145   0.00000  Uiso   1.00
C1156  C     0.48893   0.21160   0.97545   0.00000  Uiso   1.00
C1157  C     0.23876   0.46182   0.69145   0.00000  Uiso   1.00
C1158  C     0.26107   0.03841   0.97545   0.00000  Uiso   1.00
C1159  C     0.26123   0.03818   0.69145   0.00000  Uiso   1.00
C1160  C     0.23893   0.46160   0.97545   0.00000  Uiso   1.00
C1161  C     0.39034   0.14163   0.79158   0.00000  Uiso   1.00
C1162  C     0.10937   0.35866   0.87529   0.00000  Uiso   1.00
C1163  C     0.10965   0.35838   0.79158   0.00000  Uiso   1.00
C1164  C     0.44055   0.30929   0.83331   0.00000  Uiso   1.00
C1165  C     0.39071   0.14125   0.87529   0.00000  Uiso   1.00
C1166  C     0.10921   0.14117   0.87513   0.00000  Uiso   1.00
C1167  C     0.39088   0.35890   0.79132   0.00000  Uiso   1.00
C1168  C     0.39082   0.35885   0.87513   0.00000  Uiso   1.00
C1169  C     0.10908   0.14106   0.79132   0.00000  Uiso   1.00
C1170  C     0.14033   0.39164   0.79159   0.00000  Uiso   1.00
C1171  C     0.35936   0.10867   0.87529   0.00000  Uiso   1.00
C1172  C     0.35966   0.10838   0.79158   0.00000  Uiso   1.00
C1173  C     0.14072   0.39124   0.87529   0.00000  Uiso   1.00
C1174  C     0.35921   0.39118   0.87513   0.00000  Uiso   1.00
C1175  C     0.44041   0.19087   0.83334   0.00000  Uiso   1.00
C1176  C     0.14088   0.10890   0.79132   0.00000  Uiso   1.00
C1177  C     0.14082   0.10885   0.87513   0.00000  Uiso   1.00
C1178  C     0.35907   0.39105   0.79132   0.00000  Uiso   1.00
C1179  C     0.09341   0.34231   0.83341   0.00000  Uiso   1.00
C1180  C     0.40661   0.15766   0.83341   0.00000  Uiso   1.00
C1181  C     0.40697   0.34273   0.83325   0.00000  Uiso   1.00
C1182  C     0.09302   0.15726   0.83325   0.00000  Uiso   1.00
C1183  C     0.34341   0.09231   0.83341   0.00000  Uiso   1.00
C1184  C     0.15662   0.40766   0.83341   0.00000  Uiso   1.00
C1185  C     0.15697   0.09273   0.83325   0.00000  Uiso   1.00
C1186  C     0.05960   0.30912   0.83334   0.00000  Uiso   1.00
C1187  C     0.34302   0.40726   0.83325   0.00000  Uiso   1.00
C1188  C     0.49940   0.14007   0.72126   0.00000  Uiso   1.00
C1189  C     0.47578   0.09585   0.72969   0.00000  Uiso   1.00
C1190  C     0.49920   0.35627   0.93612   0.00000  Uiso   1.00
C1191  C     0.01356   0.40529   0.94300   0.00000  Uiso   1.00
C1192  C     0.00058   0.35993   0.72125   0.00000  Uiso   1.00
C1193  C     0.02420   0.40413   0.72984   0.00000  Uiso   1.00
C1194  C     0.00083   0.14373   0.93614   0.00000  Uiso   1.00
C1195  C     0.48653   0.09471   0.94312   0.00000  Uiso   1.00
C1196  C     0.24939   0.39007   0.72127   0.00000  Uiso   1.00
C1197  C     0.30944   0.44071   0.83332   0.00000  Uiso   1.00
C1198  C     0.22577   0.34584   0.72966   0.00000  Uiso   1.00
C1199  C     0.24920   0.10627   0.93612   0.00000  Uiso   1.00
C1200  C     0.26355   0.15529   0.94300   0.00000  Uiso   1.00
C1201  C     0.25059   0.10993   0.72125   0.00000  Uiso   1.00
C1202  C     0.27421   0.15413   0.72984   0.00000  Uiso   1.00
C1203  C     0.25084   0.39374   0.93615   0.00000  Uiso   1.00
C1204  C     0.23654   0.34470   0.94314   0.00000  Uiso   1.00
C1205  C     0.19055   0.05929   0.83331   0.00000  Uiso   1.00
C1206  C     0.19041   0.44087   0.83334   0.00000  Uiso   1.00
C1207  C     0.30960   0.05912   0.83334   0.00000  Uiso   1.00
C1208  C     0.48876   0.21182   0.69145   0.00000  Uiso   1.00
Cu1209 Cu    0.00000   0.25000   0.88022   0.00000  Uiso   1.00
Cu1210 Cu    0.00000   0.25000   0.78645   0.00000  Uiso   1.00
Cu1211 Cu    0.25000   0.00000   0.88022   0.00000  Uiso   1.00
Cu1212 Cu    0.25000   0.00000   0.78645   0.00000  Uiso   1.00
H1213  H     0.40150   0.15430   0.75878   0.00000  Uiso   1.00
H1214  H     0.34782   0.09635   0.90807   0.00000  Uiso   1.00
H1215  H     0.34846   0.09574   0.75878   0.00000  Uiso   1.00
H1216  H     0.15230   0.40350   0.90807   0.00000  Uiso   1.00
H1217  H     0.34761   0.40351   0.90792   0.00000  Uiso   1.00
H1218  H     0.15273   0.09678   0.75851   0.00000  Uiso   1.00
H1219  H     0.15244   0.09654   0.90792   0.00000  Uiso   1.00
H1220  H     0.34720   0.40315   0.75851   0.00000  Uiso   1.00
H1221  H     0.01801   0.14623   0.75248   0.00000  Uiso   1.00
H1222  H     0.02198   0.13561   0.69250   0.00000  Uiso   1.00
H1223  H     0.49800   0.06676   0.72765   0.00000  Uiso   1.00
H1224  H     0.09783   0.34634   0.90807   0.00000  Uiso   1.00
H1225  H     0.46158   0.09599   0.76465   0.00000  Uiso   1.00
H1226  H     0.45036   0.09131   0.70376   0.00000  Uiso   1.00
H1227  H     0.46685   0.35166   0.95030   0.00000  Uiso   1.00
H1228  H     0.49771   0.35253   0.89840   0.00000  Uiso   1.00
H1229  H     0.04851   0.40754   0.94372   0.00000  Uiso   1.00
H1230  H     0.00180   0.42680   0.91423   0.00000  Uiso   1.00
H1231  H     0.00036   0.41970   0.97508   0.00000  Uiso   1.00
H1232  H     0.48187   0.35373   0.75238   0.00000  Uiso   1.00
H1233  H     0.47808   0.36447   0.69242   0.00000  Uiso   1.00
H1234  H     0.00199   0.43324   0.72775   0.00000  Uiso   1.00
H1235  H     0.09845   0.34575   0.75878   0.00000  Uiso   1.00
H1236  H     0.03828   0.40393   0.76486   0.00000  Uiso   1.00
H1237  H     0.04970   0.40869   0.70402   0.00000  Uiso   1.00
H1238  H     0.03319   0.14840   0.95030   0.00000  Uiso   1.00
H1239  H     0.00230   0.14744   0.89842   0.00000  Uiso   1.00
H1240  H     0.45159   0.09247   0.94432   0.00000  Uiso   1.00
H1241  H     0.49793   0.07323   0.91415   0.00000  Uiso   1.00
H1242  H     0.00009   0.08023   0.97500   0.00000  Uiso   1.00
H1243  H     0.26798   0.39622   0.75250   0.00000  Uiso   1.00
H1244  H     0.27199   0.38562   0.69251   0.00000  Uiso   1.00
H1245  H     0.24800   0.31676   0.72762   0.00000  Uiso   1.00
H1246  H     0.40228   0.15352   0.90807   0.00000  Uiso   1.00
H1247  H     0.21155   0.34597   0.76462   0.00000  Uiso   1.00
H1248  H     0.20036   0.34131   0.70372   0.00000  Uiso   1.00
H1249  H     0.21684   0.10166   0.95030   0.00000  Uiso   1.00
H1250  H     0.24771   0.10253   0.89840   0.00000  Uiso   1.00
H1251  H     0.29850   0.15754   0.94373   0.00000  Uiso   1.00
H1252  H     0.25180   0.17680   0.91423   0.00000  Uiso   1.00
H1253  H     0.25036   0.16970   0.97508   0.00000  Uiso   1.00
H1254  H     0.23188   0.10373   0.75239   0.00000  Uiso   1.00
H1255  H     0.22808   0.11446   0.69243   0.00000  Uiso   1.00
H1256  H     0.25200   0.18324   0.72775   0.00000  Uiso   1.00
H1257  H     0.09761   0.15350   0.90792   0.00000  Uiso   1.00
H1258  H     0.28829   0.15393   0.76486   0.00000  Uiso   1.00
H1259  H     0.29971   0.15869   0.70401   0.00000  Uiso   1.00
H1260  H     0.28320   0.39842   0.95030   0.00000  Uiso   1.00
H1261  H     0.25231   0.39744   0.89842   0.00000  Uiso   1.00
H1262  H     0.20160   0.34247   0.94440   0.00000  Uiso   1.00
H1263  H     0.24791   0.32324   0.91415   0.00000  Uiso   1.00
H1264  H     0.25016   0.33023   0.97499   0.00000  Uiso   1.00
H1265  H     0.40272   0.34677   0.75851   0.00000  Uiso   1.00
H1266  H     0.40245   0.34655   0.90792   0.00000  Uiso   1.00
H1267  H     0.09721   0.15316   0.75851   0.00000  Uiso   1.00
H1268  H     0.15149   0.40431   0.75878   0.00000  Uiso   1.00
N1269  N     0.00000   0.25000   0.95069   0.00000  Uiso   1.00
N1270  N     0.00000   0.25000   0.71598   0.00000  Uiso   1.00
N1271  N     0.25000   0.00000   0.95069   0.00000  Uiso   1.00
N1272  N     0.25000   0.00000   0.71598   0.00000  Uiso   1.00
O1273  O     0.04509   0.20491   0.87291   0.00000  Uiso   1.00
O1274  O     0.20492   0.04509   0.79375   0.00000  Uiso   1.00
O1275  O     0.20492   0.04509   0.87291   0.00000  Uiso   1.00
O1276  O     0.29509   0.45491   0.79375   0.00000  Uiso   1.00
O1277  O     0.20492   0.45491   0.79375   0.00000  Uiso   1.00
O1278  O     0.29509   0.04509   0.87291   0.00000  Uiso   1.00
O1279  O     0.29509   0.04509   0.79375   0.00000  Uiso   1.00
O1280  O     0.20492   0.45491   0.87291   0.00000  Uiso   1.00
O1281  O     0.47012   0.17562   0.71400   0.00000  Uiso   1.00
O1282  O     0.02961   0.32545   0.95385   0.00000  Uiso   1.00
O1283  O     0.02986   0.32438   0.71400   0.00000  Uiso   1.00
O1284  O     0.45492   0.29509   0.79375   0.00000  Uiso   1.00
O1285  O     0.47041   0.17455   0.95385   0.00000  Uiso   1.00
O1286  O     0.22012   0.42562   0.71400   0.00000  Uiso   1.00
O1287  O     0.27961   0.07545   0.95385   0.00000  Uiso   1.00
O1288  O     0.27986   0.07438   0.71400   0.00000  Uiso   1.00
O1289  O     0.22041   0.42454   0.95384   0.00000  Uiso   1.00
O1290  O     0.45492   0.29509   0.87291   0.00000  Uiso   1.00
O1291  O     0.04509   0.20491   0.79375   0.00000  Uiso   1.00
O1292  O     0.45492   0.20491   0.79375   0.00000  Uiso   1.00
O1293  O     0.04509   0.29509   0.87291   0.00000  Uiso   1.00
O1294  O     0.04509   0.29509   0.79375   0.00000  Uiso   1.00
O1295  O     0.45492   0.20491   0.87291   0.00000  Uiso   1.00
O1296  O     0.29509   0.45491   0.87291   0.00000  Uiso   1.00
C1297  C     0.55944   0.19071   0.83332   0.00000  Uiso   1.00
C1298  C     0.51107   0.28841   0.97545   0.00000  Uiso   1.00
C1299  C     0.51123   0.28818   0.69145   0.00000  Uiso   1.00
C1300  C     0.98893   0.21160   0.97545   0.00000  Uiso   1.00
C1301  C     0.73876   0.46182   0.69145   0.00000  Uiso   1.00
C1302  C     0.76107   0.03841   0.97545   0.00000  Uiso   1.00
C1303  C     0.76123   0.03818   0.69145   0.00000  Uiso   1.00
C1304  C     0.73893   0.46160   0.97545   0.00000  Uiso   1.00
C1305  C     0.89034   0.14163   0.79158   0.00000  Uiso   1.00
C1306  C     0.60937   0.35866   0.87529   0.00000  Uiso   1.00
C1307  C     0.60965   0.35838   0.79158   0.00000  Uiso   1.00
C1308  C     0.94055   0.30929   0.83331   0.00000  Uiso   1.00
C1309  C     0.89071   0.14125   0.87529   0.00000  Uiso   1.00
C1310  C     0.60921   0.14117   0.87513   0.00000  Uiso   1.00
C1311  C     0.89088   0.35890   0.79132   0.00000  Uiso   1.00
C1312  C     0.89082   0.35885   0.87513   0.00000  Uiso   1.00
C1313  C     0.60908   0.14106   0.79132   0.00000  Uiso   1.00
C1314  C     0.64033   0.39164   0.79159   0.00000  Uiso   1.00
C1315  C     0.85936   0.10867   0.87529   0.00000  Uiso   1.00
C1316  C     0.85966   0.10838   0.79158   0.00000  Uiso   1.00
C1317  C     0.64072   0.39124   0.87529   0.00000  Uiso   1.00
C1318  C     0.85921   0.39118   0.87513   0.00000  Uiso   1.00
C1319  C     0.94041   0.19087   0.83334   0.00000  Uiso   1.00
C1320  C     0.64088   0.10890   0.79132   0.00000  Uiso   1.00
C1321  C     0.64082   0.10885   0.87513   0.00000  Uiso   1.00
C1322  C     0.85907   0.39105   0.79132   0.00000  Uiso   1.00
C1323  C     0.59341   0.34231   0.83341   0.00000  Uiso   1.00
C1324  C     0.90661   0.15766   0.83341   0.00000  Uiso   1.00
C1325  C     0.90697   0.34273   0.83325   0.00000  Uiso   1.00
C1326  C     0.59302   0.15726   0.83325   0.00000  Uiso   1.00
C1327  C     0.84341   0.09231   0.83341   0.00000  Uiso   1.00
C1328  C     0.65662   0.40766   0.83341   0.00000  Uiso   1.00
C1329  C     0.65697   0.09273   0.83325   0.00000  Uiso   1.00
C1330  C     0.55960   0.30912   0.83334   0.00000  Uiso   1.00
C1331  C     0.84302   0.40726   0.83325   0.00000  Uiso   1.00
C1332  C     0.99940   0.14007   0.72126   0.00000  Uiso   1.00
C1333  C     0.97578   0.09585   0.72969   0.00000  Uiso   1.00
C1334  C     0.99920   0.35627   0.93612   0.00000  Uiso   1.00
C1335  C     0.51356   0.40529   0.94300   0.00000  Uiso   1.00
C1336  C     0.50058   0.35993   0.72125   0.00000  Uiso   1.00
C1337  C     0.52420   0.40413   0.72984   0.00000  Uiso   1.00
C1338  C     0.50083   0.14373   0.93614   0.00000  Uiso   1.00
C1339  C     0.98653   0.09471   0.94312   0.00000  Uiso   1.00
C1340  C     0.74939   0.39007   0.72127   0.00000  Uiso   1.00
C1341  C     0.80944   0.44071   0.83332   0.00000  Uiso   1.00
C1342  C     0.72577   0.34584   0.72966   0.00000  Uiso   1.00
C1343  C     0.74920   0.10627   0.93612   0.00000  Uiso   1.00
C1344  C     0.76355   0.15529   0.94300   0.00000  Uiso   1.00
C1345  C     0.75059   0.10993   0.72125   0.00000  Uiso   1.00
C1346  C     0.77421   0.15413   0.72984   0.00000  Uiso   1.00
C1347  C     0.75084   0.39374   0.93615   0.00000  Uiso   1.00
C1348  C     0.73654   0.34470   0.94314   0.00000  Uiso   1.00
C1349  C     0.69055   0.05929   0.83331   0.00000  Uiso   1.00
C1350  C     0.69041   0.44087   0.83334   0.00000  Uiso   1.00
C1351  C     0.80960   0.05912   0.83334   0.00000  Uiso   1.00
C1352  C     0.98876   0.21182   0.69145   0.00000  Uiso   1.00
Cu1353 Cu    0.50000   0.25000   0.88022   0.00000  Uiso   1.00
Cu1354 Cu    0.50000   0.25000   0.78645   0.00000  Uiso   1.00
Cu1355 Cu    0.75000   0.00000   0.88022   0.00000  Uiso   1.00
Cu1356 Cu    0.75000   0.00000   0.78645   0.00000  Uiso   1.00
H1357  H     0.90150   0.15430   0.75878   0.00000  Uiso   1.00
H1358  H     0.84782   0.09635   0.90807   0.00000  Uiso   1.00
H1359  H     0.84846   0.09574   0.75878   0.00000  Uiso   1.00
H1360  H     0.65230   0.40350   0.90807   0.00000  Uiso   1.00
H1361  H     0.84761   0.40351   0.90792   0.00000  Uiso   1.00
H1362  H     0.65273   0.09678   0.75851   0.00000  Uiso   1.00
H1363  H     0.65244   0.09654   0.90792   0.00000  Uiso   1.00
H1364  H     0.84720   0.40315   0.75851   0.00000  Uiso   1.00
H1365  H     0.51801   0.14623   0.75248   0.00000  Uiso   1.00
H1366  H     0.52198   0.13561   0.69250   0.00000  Uiso   1.00
H1367  H     0.99800   0.06676   0.72765   0.00000  Uiso   1.00
H1368  H     0.59783   0.34634   0.90807   0.00000  Uiso   1.00
H1369  H     0.96158   0.09599   0.76465   0.00000  Uiso   1.00
H1370  H     0.95036   0.09131   0.70376   0.00000  Uiso   1.00
H1371  H     0.96685   0.35166   0.95030   0.00000  Uiso   1.00
H1372  H     0.99771   0.35253   0.89840   0.00000  Uiso   1.00
H1373  H     0.54851   0.40754   0.94372   0.00000  Uiso   1.00
H1374  H     0.50180   0.42680   0.91423   0.00000  Uiso   1.00
H1375  H     0.50036   0.41970   0.97508   0.00000  Uiso   1.00
H1376  H     0.98187   0.35373   0.75238   0.00000  Uiso   1.00
H1377  H     0.97808   0.36447   0.69242   0.00000  Uiso   1.00
H1378  H     0.50199   0.43324   0.72775   0.00000  Uiso   1.00
H1379  H     0.59845   0.34575   0.75878   0.00000  Uiso   1.00
H1380  H     0.53828   0.40393   0.76486   0.00000  Uiso   1.00
H1381  H     0.54970   0.40869   0.70402   0.00000  Uiso   1.00
H1382  H     0.53319   0.14840   0.95030   0.00000  Uiso   1.00
H1383  H     0.50230   0.14744   0.89842   0.00000  Uiso   1.00
H1384  H     0.95159   0.09247   0.94432   0.00000  Uiso   1.00
H1385  H     0.99793   0.07323   0.91415   0.00000  Uiso   1.00
H1386  H     0.50009   0.08023   0.97500   0.00000  Uiso   1.00
H1387  H     0.76798   0.39622   0.75250   0.00000  Uiso   1.00
H1388  H     0.77199   0.38562   0.69251   0.00000  Uiso   1.00
H1389  H     0.74800   0.31676   0.72762   0.00000  Uiso   1.00
H1390  H     0.90228   0.15352   0.90807   0.00000  Uiso   1.00
H1391  H     0.71155   0.34597   0.76462   0.00000  Uiso   1.00
H1392  H     0.70036   0.34131   0.70372   0.00000  Uiso   1.00
H1393  H     0.71684   0.10166   0.95030   0.00000  Uiso   1.00
H1394  H     0.74771   0.10253   0.89840   0.00000  Uiso   1.00
H1395  H     0.79850   0.15754   0.94373   0.00000  Uiso   1.00
H1396  H     0.75180   0.17680   0.91423   0.00000  Uiso   1.00
H1397  H     0.75036   0.16970   0.97508   0.00000  Uiso   1.00
H1398  H     0.73188   0.10373   0.75239   0.00000  Uiso   1.00
H1399  H     0.72808   0.11446   0.69243   0.00000  Uiso   1.00
H1400  H     0.75200   0.18324   0.72775   0.00000  Uiso   1.00
H1401  H     0.59761   0.15350   0.90792   0.00000  Uiso   1.00
H1402  H     0.78829   0.15393   0.76486   0.00000  Uiso   1.00
H1403  H     0.79971   0.15869   0.70401   0.00000  Uiso   1.00
H1404  H     0.78320   0.39842   0.95030   0.00000  Uiso   1.00
H1405  H     0.75231   0.39744   0.89842   0.00000  Uiso   1.00
H1406  H     0.70160   0.34247   0.94440   0.00000  Uiso   1.00
H1407  H     0.74791   0.32324   0.91415   0.00000  Uiso   1.00
H1408  H     0.75016   0.33023   0.97499   0.00000  Uiso   1.00
H1409  H     0.90272   0.34677   0.75851   0.00000  Uiso   1.00
H1410  H     0.90245   0.34655   0.90792   0.00000  Uiso   1.00
H1411  H     0.59721   0.15316   0.75851   0.00000  Uiso   1.00
H1412  H     0.65149   0.40431   0.75878   0.00000  Uiso   1.00
N1413  N     0.50000   0.25000   0.95069   0.00000  Uiso   1.00
N1414  N     0.50000   0.25000   0.71598   0.00000  Uiso   1.00
N1415  N     0.75000   0.00000   0.95069   0.00000  Uiso   1.00
N1416  N     0.75000   0.00000   0.71598   0.00000  Uiso   1.00
O1417  O     0.54509   0.20491   0.87291   0.00000  Uiso   1.00
O1418  O     0.70492   0.04509   0.79375   0.00000  Uiso   1.00
O1419  O     0.70492   0.04509   0.87291   0.00000  Uiso   1.00
O1420  O     0.79509   0.45491   0.79375   0.00000  Uiso   1.00
O1421  O     0.70492   0.45491   0.79375   0.00000  Uiso   1.00
O1422  O     0.79509   0.04509   0.87291   0.00000  Uiso   1.00
O1423  O     0.79509   0.04509   0.79375   0.00000  Uiso   1.00
O1424  O     0.70492   0.45491   0.87291   0.00000  Uiso   1.00
O1425  O     0.97012   0.17562   0.71400   0.00000  Uiso   1.00
O1426  O     0.52961   0.32545   0.95385   0.00000  Uiso   1.00
O1427  O     0.52986   0.32438   0.71400   0.00000  Uiso   1.00
O1428  O     0.95492   0.29509   0.79375   0.00000  Uiso   1.00
O1429  O     0.97041   0.17455   0.95385   0.00000  Uiso   1.00
O1430  O     0.72012   0.42562   0.71400   0.00000  Uiso   1.00
O1431  O     0.77961   0.07545   0.95385   0.00000  Uiso   1.00
O1432  O     0.77986   0.07438   0.71400   0.00000  Uiso   1.00
O1433  O     0.72041   0.42454   0.95384   0.00000  Uiso   1.00
O1434  O     0.95492   0.29509   0.87291   0.00000  Uiso   1.00
O1435  O     0.54509   0.20491   0.79375   0.00000  Uiso   1.00
O1436  O     0.95492   0.20491   0.79375   0.00000  Uiso   1.00
O1437  O     0.54509   0.29509   0.87291   0.00000  Uiso   1.00
O1438  O     0.54509   0.29509   0.79375   0.00000  Uiso   1.00
O1439  O     0.95492   0.20491   0.87291   0.00000  Uiso   1.00
O1440  O     0.79509   0.45491   0.87291   0.00000  Uiso   1.00
C1441  C     0.05944   0.69071   0.83332   0.00000  Uiso   1.00
C1442  C     0.01107   0.78841   0.97545   0.00000  Uiso   1.00
C1443  C     0.01123   0.78818   0.69145   0.00000  Uiso   1.00
C1444  C     0.48893   0.71160   0.97545   0.00000  Uiso   1.00
C1445  C     0.23876   0.96182   0.69145   0.00000  Uiso   1.00
C1446  C     0.26107   0.53841   0.97545   0.00000  Uiso   1.00
C1447  C     0.26123   0.53818   0.69145   0.00000  Uiso   1.00
C1448  C     0.23893   0.96160   0.97545   0.00000  Uiso   1.00
C1449  C     0.39034   0.64163   0.79158   0.00000  Uiso   1.00
C1450  C     0.10937   0.85866   0.87529   0.00000  Uiso   1.00
C1451  C     0.10965   0.85838   0.79158   0.00000  Uiso   1.00
C1452  C     0.44055   0.80929   0.83331   0.00000  Uiso   1.00
C1453  C     0.39071   0.64125   0.87529   0.00000  Uiso   1.00
C1454  C     0.10921   0.64117   0.87513   0.00000  Uiso   1.00
C1455  C     0.39088   0.85890   0.79132   0.00000  Uiso   1.00
C1456  C     0.39082   0.85885   0.87513   0.00000  Uiso   1.00
C1457  C     0.10908   0.64106   0.79132   0.00000  Uiso   1.00
C1458  C     0.14033   0.89164   0.79159   0.00000  Uiso   1.00
C1459  C     0.35936   0.60867   0.87529   0.00000  Uiso   1.00
C1460  C     0.35966   0.60838   0.79158   0.00000  Uiso   1.00
C1461  C     0.14072   0.89124   0.87529   0.00000  Uiso   1.00
C1462  C     0.35921   0.89118   0.87513   0.00000  Uiso   1.00
C1463  C     0.44041   0.69087   0.83334   0.00000  Uiso   1.00
C1464  C     0.14088   0.60890   0.79132   0.00000  Uiso   1.00
C1465  C     0.14082   0.60885   0.87513   0.00000  Uiso   1.00
C1466  C     0.35907   0.89105   0.79132   0.00000  Uiso   1.00
C1467  C     0.09341   0.84231   0.83341   0.00000  Uiso   1.00
C1468  C     0.40661   0.65766   0.83341   0.00000  Uiso   1.00
C1469  C     0.40697   0.84273   0.83325   0.00000  Uiso   1.00
C1470  C     0.09302   0.65726   0.83325   0.00000  Uiso   1.00
C1471  C     0.34341   0.59231   0.83341   0.00000  Uiso   1.00
C1472  C     0.15662   0.90766   0.83341   0.00000  Uiso   1.00
C1473  C     0.15697   0.59273   0.83325   0.00000  Uiso   1.00
C1474  C     0.05960   0.80912   0.83334   0.00000  Uiso   1.00
C1475  C     0.34302   0.90726   0.83325   0.00000  Uiso   1.00
C1476  C     0.49940   0.64007   0.72126   0.00000  Uiso   1.00
C1477  C     0.47578   0.59585   0.72969   0.00000  Uiso   1.00
C1478  C     0.49920   0.85627   0.93612   0.00000  Uiso   1.00
C1479  C     0.01356   0.90529   0.94300   0.00000  Uiso   1.00
C1480  C     0.00058   0.85993   0.72125   0.00000  Uiso   1.00
C1481  C     0.02420   0.90413   0.72984   0.00000  Uiso   1.00
C1482  C     0.00083   0.64373   0.93614   0.00000  Uiso   1.00
C1483  C     0.48653   0.59471   0.94312   0.00000  Uiso   1.00
C1484  C     0.24939   0.89007   0.72127   0.00000  Uiso   1.00
C1485  C     0.30944   0.94071   0.83332   0.00000  Uiso   1.00
C1486  C     0.22577   0.84584   0.72966   0.00000  Uiso   1.00
C1487  C     0.24920   0.60627   0.93612   0.00000  Uiso   1.00
C1488  C     0.26355   0.65529   0.94300   0.00000  Uiso   1.00
C1489  C     0.25059   0.60993   0.72125   0.00000  Uiso   1.00
C1490  C     0.27421   0.65413   0.72984   0.00000  Uiso   1.00
C1491  C     0.25084   0.89374   0.93615   0.00000  Uiso   1.00
C1492  C     0.23654   0.84470   0.94314   0.00000  Uiso   1.00
C1493  C     0.19055   0.55929   0.83331   0.00000  Uiso   1.00
C1494  C     0.19041   0.94087   0.83334   0.00000  Uiso   1.00
C1495  C     0.30960   0.55912   0.83334   0.00000  Uiso   1.00
C1496  C     0.48876   0.71182   0.69145   0.00000  Uiso   1.00
Cu1497 Cu    0.00000   0.75000   0.88022   0.00000  Uiso   1.00
Cu1498 Cu    0.00000   0.75000   0.78645   0.00000  Uiso   1.00
Cu1499 Cu    0.25000   0.50000   0.88022   0.00000  Uiso   1.00
Cu1500 Cu    0.25000   0.50000   0.78645   0.00000  Uiso   1.00
H1501  H     0.40150   0.65430   0.75878   0.00000  Uiso   1.00
H1502  H     0.34782   0.59635   0.90807   0.00000  Uiso   1.00
H1503  H     0.34846   0.59574   0.75878   0.00000  Uiso   1.00
H1504  H     0.15230   0.90350   0.90807   0.00000  Uiso   1.00
H1505  H     0.34761   0.90351   0.90792   0.00000  Uiso   1.00
H1506  H     0.15273   0.59678   0.75851   0.00000  Uiso   1.00
H1507  H     0.15244   0.59654   0.90792   0.00000  Uiso   1.00
H1508  H     0.34720   0.90315   0.75851   0.00000  Uiso   1.00
H1509  H     0.01801   0.64623   0.75248   0.00000  Uiso   1.00
H1510  H     0.02198   0.63561   0.69250   0.00000  Uiso   1.00
H1511  H     0.49800   0.56676   0.72765   0.00000  Uiso   1.00
H1512  H     0.09783   0.84634   0.90807   0.00000  Uiso   1.00
H1513  H     0.46158   0.59599   0.76465   0.00000  Uiso   1.00
H1514  H     0.45036   0.59131   0.70376   0.00000  Uiso   1.00
H1515  H     0.46685   0.85166   0.95030   0.00000  Uiso   1.00
H1516  H     0.49771   0.85253   0.89840   0.00000  Uiso   1.00
H1517  H     0.04851   0.90754   0.94372   0.00000  Uiso   1.00
H1518  H     0.00180   0.92680   0.91423   0.00000  Uiso   1.00
H1519  H     0.00036   0.91970   0.97508   0.00000  Uiso   1.00
H1520  H     0.48187   0.85373   0.75238   0.00000  Uiso   1.00
H1521  H     0.47808   0.86447   0.69242   0.00000  Uiso   1.00
H1522  H     0.00199   0.93324   0.72775   0.00000  Uiso   1.00
H1523  H     0.09845   0.84575   0.75878   0.00000  Uiso   1.00
H1524  H     0.03828   0.90393   0.76486   0.00000  Uiso   1.00
H1525  H     0.04970   0.90869   0.70402   0.00000  Uiso   1.00
H1526  H     0.03319   0.64840   0.95030   0.00000  Uiso   1.00
H1527  H     0.00230   0.64744   0.89842   0.00000  Uiso   1.00
H1528  H     0.45159   0.59247   0.94432   0.00000  Uiso   1.00
H1529  H     0.49793   0.57323   0.91415   0.00000  Uiso   1.00
H1530  H     0.00009   0.58023   0.97500   0.00000  Uiso   1.00
H1531  H     0.26798   0.89622   0.75250   0.00000  Uiso   1.00
H1532  H     0.27199   0.88562   0.69251   0.00000  Uiso   1.00
H1533  H     0.24800   0.81676   0.72762   0.00000  Uiso   1.00
H1534  H     0.40228   0.65352   0.90807   0.00000  Uiso   1.00
H1535  H     0.21155   0.84597   0.76462   0.00000  Uiso   1.00
H1536  H     0.20036   0.84131   0.70372   0.00000  Uiso   1.00
H1537  H     0.21684   0.60166   0.95030   0.00000  Uiso   1.00
H1538  H     0.24771   0.60253   0.89840   0.00000  Uiso   1.00
H1539  H     0.29850   0.65754   0.94373   0.00000  Uiso   1.00
H1540  H     0.25180   0.67680   0.91423   0.00000  Uiso   1.00
H1541  H     0.25036   0.66970   0.97508   0.00000  Uiso   1.00
H1542  H     0.23188   0.60373   0.75239   0.00000  Uiso   1.00
H1543  H     0.22808   0.61446   0.69243   0.00000  Uiso   1.00
H1544  H     0.25200   0.68324   0.72775   0.00000  Uiso   1.00
H1545  H     0.09761   0.65350   0.90792   0.00000  Uiso   1.00
H1546  H     0.28829   0.65393   0.76486   0.00000  Uiso   1.00
H1547  H     0.29971   0.65869   0.70401   0.00000  Uiso   1.00
H1548  H     0.28320   0.89842   0.95030   0.00000  Uiso   1.00
H1549  H     0.25231   0.89744   0.89842   0.00000  Uiso   1.00
H1550  H     0.20160   0.84247   0.94440   0.00000  Uiso   1.00
H1551  H     0.24791   0.82324   0.91415   0.00000  Uiso   1.00
H1552  H     0.25016   0.83023   0.97499   0.00000  Uiso   1.00
H1553  H     0.40272   0.84677   0.75851   0.00000  Uiso   1.00
H1554  H     0.40245   0.84655   0.90792   0.00000  Uiso   1.00
H1555  H     0.09721   0.65316   0.75851   0.00000  Uiso   1.00
H1556  H     0.15149   0.90431   0.75878   0.00000  Uiso   1.00
N1557  N     0.00000   0.75000   0.95069   0.00000  Uiso   1.00
N1558  N     0.00000   0.75000   0.71598   0.00000  Uiso   1.00
N1559  N     0.25000   0.50000   0.95069   0.00000  Uiso   1.00
N1560  N     0.25000   0.50000   0.71598   0.00000  Uiso   1.00
O1561  O     0.04509   0.70491   0.87291   0.00000  Uiso   1.00
O1562  O     0.20492   0.54509   0.79375   0.00000  Uiso   1.00
O1563  O     0.20492   0.54509   0.87291   0.00000  Uiso   1.00
O1564  O     0.29509   0.95491   0.79375   0.00000  Uiso   1.00
O1565  O     0.20492   0.95491   0.79375   0.00000  Uiso   1.00
O1566  O     0.29509   0.54509   0.87291   0.00000  Uiso   1.00
O1567  O     0.29509   0.54509   0.79375   0.00000  Uiso   1.00
O1568  O     0.20492   0.95491   0.87291   0.00000  Uiso   1.00
O1569  O     0.47012   0.67562   0.71400   0.00000  Uiso   1.00
O1570  O     0.02961   0.82545   0.95385   0.00000  Uiso   1.00
O1571  O     0.02986   0.82438   0.71400   0.00000  Uiso   1.00
O1572  O     0.45492   0.79509   0.79375   0.00000  Uiso   1.00
O1573  O     0.47041   0.67455   0.95385   0.00000  Uiso   1.00
O1574  O     0.22012   0.92562   0.71400   0.00000  Uiso   1.00
O1575  O     0.27961   0.57545   0.95385   0.00000  Uiso   1.00
O1576  O     0.27986   0.57438   0.71400   0.00000  Uiso   1.00
O1577  O     0.22041   0.92454   0.95384   0.00000  Uiso   1.00
O1578  O     0.45492   0.79509   0.87291   0.00000  Uiso   1.00
O1579  O     0.04509   0.70491   0.79375   0.00000  Uiso   1.00
O1580  O     0.45492   0.70491   0.79375   0.00000  Uiso   1.00
O1581  O     0.04509   0.79509   0.87291   0.00000  Uiso   1.00
O1582  O     0.04509   0.79509   0.79375   0.00000  Uiso   1.00
O1583  O     0.45492   0.70491   0.87291   0.00000  Uiso   1.00
O1584  O     0.29509   0.95491   0.87291   0.00000  Uiso   1.00
C1585  C     0.55944   0.69071   0.83332   0.00000  Uiso   1.00
C1586  C     0.51107   0.78841   0.97545   0.00000  Uiso   1.00
C1587  C     0.51123   0.78818   0.69145   0.00000  Uiso   1.00
C1588  C     0.98893   0.71160   0.97545   0.00000  Uiso   1.00
C1589  C     0.73876   0.96182   0.69145   0.00000  Uiso   1.00
C1590  C     0.76107   0.53841   0.97545   0.00000  Uiso   1.00
C1591  C     0.76123   0.53818   0.69145   0.00000  Uiso   1.00
C1592  C     0.73893   0.96160   0.97545   0.00000  Uiso   1.00
C1593  C     0.89034   0.64163   0.79158   0.00000  Uiso   1.00
C1594  C     0.60937   0.85866   0.87529   0.00000  Uiso   1.00
C1595  C     0.60965   0.85838   0.79158   0.00000  Uiso   1.00
C1596  C     0.94055   0.80929   0.83331   0.00000  Uiso   1.00
C1597  C     0.89071   0.64125   0.87529   0.00000  Uiso   1.00
C1598  C     0.60921   0.64117   0.87513   0.00000  Uiso   1.00
C1599  C     0.89088   0.85890   0.79132   0.00000  Uiso   1.00
C1600  C     0.89082   0.85885   0.87513   0.00000  Uiso   1.00
C1601  C     0.60908   0.64106   0.79132   0.00000  Uiso   1.00
C1602  C     0.64033   0.89164   0.79159   0.00000  Uiso   1.00
C1603  C     0.85936   0.60867   0.87529   0.00000  Uiso   1.00
C1604  C     0.85966   0.60838   0.79158   0.00000  Uiso   1.00
C1605  C     0.64072   0.89124   0.87529   0.00000  Uiso   1.00
C1606  C     0.85921   0.89118   0.87513   0.00000  Uiso   1.00
C1607  C     0.94041   0.69087   0.83334   0.00000  Uiso   1.00
C1608  C     0.64088   0.60890   0.79132   0.00000  Uiso   1.00
C1609  C     0.64082   0.60885   0.87513   0.00000  Uiso   1.00
C1610  C     0.85907   0.89105   0.79132   0.00000  Uiso   1.00
C1611  C     0.59341   0.84231   0.83341   0.00000  Uiso   1.00
C1612  C     0.90661   0.65766   0.83341   0.00000  Uiso   1.00
C1613  C     0.90697   0.84273   0.83325   0.00000  Uiso   1.00
C1614  C     0.59302   0.65726   0.83325   0.00000  Uiso   1.00
C1615  C     0.84341   0.59231   0.83341   0.00000  Uiso   1.00
C1616  C     0.65662   0.90766   0.83341   0.00000  Uiso   1.00
C1617  C     0.65697   0.59273   0.83325   0.00000  Uiso   1.00
C1618  C     0.55960   0.80912   0.83334   0.00000  Uiso   1.00
C1619  C     0.84302   0.90726   0.83325   0.00000  Uiso   1.00
C1620  C     0.99940   0.64007   0.72126   0.00000  Uiso   1.00
C1621  C     0.97578   0.59585   0.72969   0.00000  Uiso   1.00
C1622  C     0.99920   0.85627   0.93612   0.00000  Uiso   1.00
C1623  C     0.51356   0.90529   0.94300   0.00000  Uiso   1.00
C1624  C     0.50058   0.85993   0.72125   0.00000  Uiso   1.00
C1625  C     0.52420   0.90413   0.72984   0.00000  Uiso   1.00
C1626  C     0.50083   0.64373   0.93614   0.00000  Uiso   1.00
C1627  C     0.98653   0.59471   0.94312   0.00000  Uiso   1.00
C1628  C     0.74939   0.89007   0.72127   0.00000  Uiso   1.00
C1629  C     0.80944   0.94071   0.83332   0.00000  Uiso   1.00
C1630  C     0.72577   0.84584   0.72966   0.00000  Uiso   1.00
C1631  C     0.74920   0.60627   0.93612   0.00000  Uiso   1.00
C1632  C     0.76355   0.65529   0.94300   0.00000  Uiso   1.00
C1633  C     0.75059   0.60993   0.72125   0.00000  Uiso   1.00
C1634  C     0.77421   0.65413   0.72984   0.00000  Uiso   1.00
C1635  C     0.75084   0.89374   0.93615   0.00000  Uiso   1.00
C1636  C     0.73654   0.84470   0.94314   0.00000  Uiso   1.00
C1637  C     0.69055   0.55929   0.83331   0.00000  Uiso   1.00
C1638  C     0.69041   0.94087   0.83334   0.00000  Uiso   1.00
C1639  C     0.80960   0.55912   0.83334   0.00000  Uiso   1.00
C1640  C     0.98876   0.71182   0.69145   0.00000  Uiso   1.00
Cu1641 Cu    0.50000   0.75000   0.88022   0.00000  Uiso   1.00
Cu1642 Cu    0.50000   0.75000   0.78645   0.00000  Uiso   1.00
Cu1643 Cu    0.75000   0.50000   0.88022   0.00000  Uiso   1.00
Cu1644 Cu    0.75000   0.50000   0.78645   0.00000  Uiso   1.00
H1645  H     0.90150   0.65430   0.75878   0.00000  Uiso   1.00
H1646  H     0.84782   0.59635   0.90807   0.00000  Uiso   1.00
H1647  H     0.84846   0.59574   0.75878   0.00000  Uiso   1.00
H1648  H     0.65230   0.90350   0.90807   0.00000  Uiso   1.00
H1649  H     0.84761   0.90351   0.90792   0.00000  Uiso   1.00
H1650  H     0.65273   0.59678   0.75851   0.00000  Uiso   1.00
H1651  H     0.65244   0.59654   0.90792   0.00000  Uiso   1.00
H1652  H     0.84720   0.90315   0.75851   0.00000  Uiso   1.00
H1653  H     0.51801   0.64623   0.75248   0.00000  Uiso   1.00
H1654  H     0.52198   0.63561   0.69250   0.00000  Uiso   1.00
H1655  H     0.99800   0.56676   0.72765   0.00000  Uiso   1.00
H1656  H     0.59783   0.84634   0.90807   0.00000  Uiso   1.00
H1657  H     0.96158   0.59599   0.76465   0.00000  Uiso   1.00
H1658  H     0.95036   0.59131   0.70376   0.00000  Uiso   1.00
H1659  H     0.96685   0.85166   0.95030   0.00000  Uiso   1.00
H1660  H     0.99771   0.85253   0.89840   0.00000  Uiso   1.00
H1661  H     0.54851   0.90754   0.94372   0.00000  Uiso   1.00
H1662  H     0.50180   0.92680   0.91423   0.00000  Uiso   1.00
H1663  H     0.50036   0.91970   0.97508   0.00000  Uiso   1.00
H1664  H     0.98187   0.85373   0.75238   0.00000  Uiso   1.00
H1665  H     0.97808   0.86447   0.69242   0.00000  Uiso   1.00
H1666  H     0.50199   0.93324   0.72775   0.00000  Uiso   1.00
H1667  H     0.59845   0.84575   0.75878   0.00000  Uiso   1.00
H1668  H     0.53828   0.90393   0.76486   0.00000  Uiso   1.00
H1669  H     0.54970   0.90869   0.70402   0.00000  Uiso   1.00
H1670  H     0.53319   0.64840   0.95030   0.00000  Uiso   1.00
H1671  H     0.50230   0.64744   0.89842   0.00000  Uiso   1.00
H1672  H     0.95159   0.59247   0.94432   0.00000  Uiso   1.00
H1673  H     0.99793   0.57323   0.91415   0.00000  Uiso   1.00
H1674  H     0.50009   0.58023   0.97500   0.00000  Uiso   1.00
H1675  H     0.76798   0.89622   0.75250   0.00000  Uiso   1.00
H1676  H     0.77199   0.88562   0.69251   0.00000  Uiso   1.00
H1677  H     0.74800   0.81676   0.72762   0.00000  Uiso   1.00
H1678  H     0.90228   0.65352   0.90807   0.00000  Uiso   1.00
H1679  H     0.71155   0.84597   0.76462   0.00000  Uiso   1.00
H1680  H     0.70036   0.84131   0.70372   0.00000  Uiso   1.00
H1681  H     0.71684   0.60166   0.95030   0.00000  Uiso   1.00
H1682  H     0.74771   0.60253   0.89840   0.00000  Uiso   1.00
H1683  H     0.79850   0.65754   0.94373   0.00000  Uiso   1.00
H1684  H     0.75180   0.67680   0.91423   0.00000  Uiso   1.00
H1685  H     0.75036   0.66970   0.97508   0.00000  Uiso   1.00
H1686  H     0.73188   0.60373   0.75239   0.00000  Uiso   1.00
H1687  H     0.72808   0.61446   0.69243   0.00000  Uiso   1.00
H1688  H     0.75200   0.68324   0.72775   0.00000  Uiso   1.00
H1689  H     0.59761   0.65350   0.90792   0.00000  Uiso   1.00
H1690  H     0.78829   0.65393   0.76486   0.00000  Uiso   1.00
H1691  H     0.79971   0.65869   0.70401   0.00000  Uiso   1.00
H1692  H     0.78320   0.89842   0.95030   0.00000  Uiso   1.00
H1693  H     0.75231   0.89744   0.89842   0.00000  Uiso   1.00
H1694  H     0.70160   0.84247   0.94440   0.00000  Uiso   1.00
H1695  H     0.74791   0.82324   0.91415   0.00000  Uiso   1.00
H1696  H     0.75016   0.83023   0.97499   0.00000  Uiso   1.00
H1697  H     0.90272   0.84677   0.75851   0.00000  Uiso   1.00
H1698  H     0.90245   0.84655   0.90792   0.00000  Uiso   1.00
H1699  H     0.59721   0.65316   0.75851   0.00000  Uiso   1.00
H1700  H     0.65149   0.90431   0.75878   0.00000  Uiso   1.00
N1701  N     0.50000   0.75000   0.95069   0.00000  Uiso   1.00
N1702  N     0.50000   0.75000   0.71598   0.00000  Uiso   1.00
N1703  N     0.75000   0.50000   0.95069   0.00000  Uiso   1.00
N1704  N     0.75000   0.50000   0.71598   0.00000  Uiso   1.00
O1705  O     0.54509   0.70491   0.87291   0.00000  Uiso   1.00
O1706  O     0.70492   0.54509   0.79375   0.00000  Uiso   1.00
O1707  O     0.70492   0.54509   0.87291   0.00000  Uiso   1.00
O1708  O     0.79509   0.95491   0.79375   0.00000  Uiso   1.00
O1709  O     0.70492   0.95491   0.79375   0.00000  Uiso   1.00
O1710  O     0.79509   0.54509   0.87291   0.00000  Uiso   1.00
O1711  O     0.79509   0.54509   0.79375   0.00000  Uiso   1.00
O1712  O     0.70492   0.95491   0.87291   0.00000  Uiso   1.00
O1713  O     0.97012   0.67562   0.71400   0.00000  Uiso   1.00
O1714  O     0.52961   0.82545   0.95385   0.00000  Uiso   1.00
O1715  O     0.52986   0.82438   0.71400   0.00000  Uiso   1.00
O1716  O     0.95492   0.79509   0.79375   0.00000  Uiso   1.00
O1717  O     0.97041   0.67455   0.95385   0.00000  Uiso   1.00
O1718  O     0.72012   0.92562   0.71400   0.00000  Uiso   1.00
O1719  O     0.77961   0.57545   0.95385   0.00000  Uiso   1.00
O1720  O     0.77986   0.57438   0.71400   0.00000  Uiso   1.00
O1721  O     0.72041   0.92454   0.95384   0.00000  Uiso   1.00
O1722  O     0.95492   0.79509   0.87291   0.00000  Uiso   1.00
O1723  O     0.54509   0.70491   0.79375   0.00000  Uiso   1.00
O1724  O     0.95492   0.70491   0.79375   0.00000  Uiso   1.00
O1725  O     0.54509   0.79509   0.87291   0.00000  Uiso   1.00
O1726  O     0.54509   0.79509   0.79375   0.00000  Uiso   1.00
O1727  O     0.95492   0.70491   0.87291   0.00000  Uiso   1.00
O1728  O     0.79509   0.95491   0.87291   0.00000  Uiso   1.00
loop_
_geom_bond_atom_site_label_1
_geom_bond_atom_site_label_2
_geom_bond_distance
_geom_bond_site_symmetry_2
_ccdc_geom_bond_type
C1     O139    1.303   .     A
C1     C30     1.450   .     S
C1     O121    1.304   .     A
C2     O130    1.390   .     S
C2     C579    1.430   .     S
C2     N117    1.386   .     S
C3     O131    1.384   .     S
C3     C1154   1.430   1_554 S
C3     N118    1.378   .     S
C4     N261    1.386   .     A
C4     O133    1.390   .     S
C4     C632    1.430   .     S
C5     O134    1.384   .     S
C5     C1160   1.430   1_554 S
C5     N408    1.378   .     S
C6     O135    1.390   .     S
C6     N119    1.386   .     A
C6     C583    1.430   .     S
C7     N120    1.378   .     A
C7     O136    1.384   .     S
C7     C1158   1.430   1_554 S
C8     O137    1.390   .     S
C8     C581    1.430   .     S
C8     N407    1.386   .     S
C9     C20     1.382   .     A
C9     H61     1.081   .     S
C9     C28     1.400   .     A
C10    C27     1.401   .     A
C10    C21     1.383   .     A
C10    H72     1.081   .     S
C11    C18     1.382   .     A
C11    C27     1.400   .     A
C11    H83     1.081   .     S
C12    C29     1.450   .     S
C12    O132    1.303   .     A
C12    O138    1.304   .     A
C13    C28     1.401   .     A
C13    C19     1.383   .     A
C13    H94     1.081   .     S
C14    H105    1.082   .     S
C14    C30     1.400   .     A
C14    C25     1.382   .     A
C15    H113    1.083   .     S
C15    C29     1.401   .     A
C15    C26     1.383   .     A
C16    C22     1.382   .     A
C16    H114    1.082   .     S
C16    C29     1.400   .     A
C17    C30     1.401   .     A
C17    C24     1.383   .     A
C17    H115    1.083   .     S
C18    H116    1.081   .     S
C18    C32     1.400   .     A
C19    C31     1.401   .     A
C19    H62     1.081   .     S
C20    H63     1.081   .     S
C20    C31     1.400   .     A
C21    H64     1.081   .     S
C21    C32     1.401   .     A
C22    C35     1.400   .     A
C22    H65     1.082   .     S
C23    O143    1.303   .     A
C23    O140    1.304   .     A
C23    C28     1.452   .     S
C24    H66     1.083   .     S
C24    C33     1.401   .     A
C25    H67     1.082   .     S
C25    C33     1.400   .     A
C26    H68     1.083   .     S
C26    C35     1.401   .     A
C27    C34     1.452   .     S
C31    C55     1.452   .     S
C32    C54     1.452   .     S
C33    C53     1.450   .     S
C34    O141    1.303   .     A
C34    O142    1.304   .     A
C35    C45     1.450   .     S
C36    O129    1.414   .     S
C36    C37     1.524   .     S
C36    H213    1.096   .     S
C36    H214    1.107   .     S
C37    H74     1.110   .     S
C37    H71     1.111   .     S
C37    H73     1.109   .     S
C38    H76     1.100   .     S
C38    H75     1.114   .     S
C38    C183    1.528   .     S
C38    O274    1.420   .     S
C39    H77     1.111   .     S
C39    H78     1.112   .     S
C39    H79     1.104   .     S
C39    C182    1.528   1_455 S
C40    C41     1.524   .     S
C40    O131    1.414   .     S
C40    H224    1.096   1_455 S
C40    H225    1.107   1_455 S
C41    H84     1.109   .     S
C41    H85     1.110   .     S
C41    H82     1.111   .     S
C42    H86     1.114   .     S
C42    H87     1.100   .     S
C42    C187    1.528   1_455 S
C42    O277    1.420   1_455 S
C43    H89     1.112   .     S
C43    H88     1.111   .     S
C43    C186    1.528   .     S
C43    H234    1.105   .     S
C44    C46     1.524   .     S
C44    O134    1.414   .     S
C44    H91     1.096   .     S
C44    H92     1.107   .     S
C45    O144    1.304   .     A
C45    O124    1.303   .     A
C46    H95     1.109   .     S
C46    H93     1.111   .     S
C46    H96     1.110   .     S
C47    H98     1.100   .     S
C47    C48     1.528   .     S
C47    O135    1.420   .     S
C47    H97     1.114   .     S
C48    H100    1.112   .     S
C48    H99     1.111   .     S
C48    H101    1.104   .     S
C49    H102    1.096   .     S
C49    O136    1.414   .     S
C49    H103    1.107   .     S
C49    C50     1.524   .     S
C50    H104    1.111   .     S
C50    H107    1.110   .     S
C50    H106    1.109   .     S
C51    H108    1.114   .     S
C51    C52     1.528   .     S
C51    O137    1.420   .     S
C51    H109    1.100   .     S
C52    H112    1.105   .     S
C52    H111    1.112   .     S
C52    H110    1.111   .     S
C53    O122    1.303   .     A
C53    O123    1.304   .     A
C54    O125    1.304   .     A
C54    O128    1.303   .     A
C55    O126    1.303   .     A
C55    O127    1.304   .     A
C56    O129    1.384   .     S
C56    N262    1.378   .     A
C56    C1156   1.430   1_554 S
Cu57   O287    1.965   1_455 S
Cu57   N117    2.043   .     S
Cu57   Cu58    2.718   .     S
Cu57   O282    1.962   1_455 S
Cu57   O121    1.962   .     S
Cu57   O141    1.965   .     S
Cu58   N118    2.043   .     S
Cu58   O284    1.965   1_455 S
Cu58   O276    1.962   1_455 S
Cu58   O139    1.962   .     S
Cu58   O142    1.965   .     S
Cu59   O126    1.965   .     S
Cu59   Cu60    2.718   .     S
Cu59   O123    1.962   .     S
Cu59   N119    2.043   .     S
Cu59   O416    1.965   1_545 S
Cu59   O432    1.962   1_545 S
Cu60   O122    1.962   .     S
Cu60   O127    1.965   .     S
Cu60   N120    2.043   .     S
Cu60   O412    1.962   1_545 S
Cu60   O413    1.965   1_545 S
H69    C180    1.096   1_455 S
H70    C180    1.107   1_455 S
H80    C184    1.096   .     S
H81    C184    1.107   .     S
H90    C187    1.105   1_455 S
N117   C148    1.386   1_455 A
N118   C200    1.378   1_455 A
N119   C296    1.386   1_545 S
N120   C293    1.378   1_545 S
O124   Cu348   1.962   .     S
O125   Cu348   1.965   .     S
O128   Cu347   1.965   .     S
O130   C182    1.420   1_455 S
O132   Cu202   1.962   .     S
O133   C186    1.420   .     S
O138   Cu201   1.962   .     S
O140   Cu202   1.965   .     S
O143   Cu201   1.965   .     S
O144   Cu347   1.962   .     S
C145   O283    1.303   .     A
C145   C174    1.450   .     S
C145   O265    1.304   .     A
C146   O274    1.390   .     S
C146   C723    1.430   .     S
C146   N261    1.386   .     S
C147   O275    1.384   .     S
C147   C1298   1.430   1_554 S
C147   N262    1.378   .     S
C148   N117    1.386   1_655 A
C148   O277    1.390   .     S
C148   C776    1.430   .     S
C149   O278    1.384   .     S
C149   C1304   1.430   1_554 S
C149   N552    1.378   .     S
C150   O279    1.390   .     S
C150   N263    1.386   .     A
C150   C727    1.430   .     S
C151   N264    1.378   .     A
C151   O280    1.384   .     S
C151   C1302   1.430   1_554 S
C152   O281    1.390   .     S
C152   C725    1.430   .     S
C152   N551    1.386   .     S
C153   C164    1.382   .     A
C153   H205    1.081   .     S
C153   C172    1.400   .     A
C154   C171    1.401   .     A
C154   C165    1.383   .     A
C154   H216    1.081   .     S
C155   C162    1.382   .     A
C155   C171    1.400   .     A
C155   H227    1.081   .     S
C156   C173    1.450   .     S
C156   O276    1.303   .     A
C156   O282    1.304   .     A
C157   C172    1.401   .     A
C157   C163    1.383   .     A
C157   H238    1.081   .     S
C158   H249    1.082   .     S
C158   C174    1.400   .     A
C158   C169    1.382   .     A
C159   H257    1.083   .     S
C159   C173    1.401   .     A
C159   C170    1.383   .     A
C160   C166    1.382   .     A
C160   H258    1.082   .     S
C160   C173    1.400   .     A
C161   C174    1.401   .     A
C161   C168    1.383   .     A
C161   H259    1.083   .     S
C162   H260    1.081   .     S
C162   C176    1.400   .     A
C163   C175    1.401   .     A
C163   H206    1.081   .     S
C164   H207    1.081   .     S
C164   C175    1.400   .     A
C165   H208    1.081   .     S
C165   C176    1.401   .     A
C166   C179    1.400   .     A
C166   H209    1.082   .     S
C167   O287    1.303   .     A
C167   O284    1.304   .     A
C167   C172    1.452   .     S
C168   H210    1.083   .     S
C168   C177    1.401   .     A
C169   H211    1.082   .     S
C169   C177    1.400   .     A
C170   H212    1.083   .     S
C170   C179    1.401   .     A
C171   C178    1.452   .     S
C175   C199    1.452   .     S
C176   C198    1.452   .     S
C177   C197    1.450   .     S
C178   O285    1.303   .     A
C178   O286    1.304   .     A
C179   C189    1.450   .     S
C180   O273    1.414   .     S
C180   C181    1.524   .     S
C180   H69     1.096   1_655 S
C180   H70     1.107   1_655 S
C181   H218    1.110   .     S
C181   H215    1.111   .     S
C181   H217    1.109   .     S
C182   H220    1.100   .     S
C182   H219    1.114   .     S
C182   C39     1.528   1_655 S
C182   O130    1.420   1_655 S
C183   H221    1.111   .     S
C183   H222    1.112   .     S
C183   H223    1.104   .     S
C184   C185    1.524   .     S
C184   O275    1.414   .     S
C185   H228    1.109   .     S
C185   H229    1.110   .     S
C185   H226    1.111   .     S
C186   H230    1.114   .     S
C186   H231    1.100   .     S
C187   H233    1.112   .     S
C187   H232    1.111   .     S
C187   C42     1.528   1_655 S
C187   H90     1.105   1_655 S
C188   C190    1.524   .     S
C188   O278    1.414   .     S
C188   H235    1.096   .     S
C188   H236    1.107   .     S
C189   O288    1.304   .     A
C189   O268    1.303   .     A
C190   H239    1.109   .     S
C190   H237    1.111   .     S
C190   H240    1.110   .     S
C191   H242    1.100   .     S
C191   C192    1.528   .     S
C191   O279    1.420   .     S
C191   H241    1.114   .     S
C192   H244    1.112   .     S
C192   H243    1.111   .     S
C192   H245    1.104   .     S
C193   H246    1.096   .     S
C193   O280    1.414   .     S
C193   H247    1.107   .     S
C193   C194    1.524   .     S
C194   H248    1.111   .     S
C194   H251    1.110   .     S
C194   H250    1.109   .     S
C195   H252    1.114   .     S
C195   C196    1.528   .     S
C195   O281    1.420   .     S
C195   H253    1.100   .     S
C196   H256    1.105   .     S
C196   H255    1.112   .     S
C196   H254    1.111   .     S
C197   O266    1.303   .     A
C197   O267    1.304   .     A
C198   O269    1.304   .     A
C198   O272    1.303   .     A
C199   O270    1.303   .     A
C199   O271    1.304   .     A
C200   O273    1.384   .     S
C200   N118    1.378   1_655 A
C200   C1300   1.430   1_554 S
Cu201  N261    2.043   .     S
Cu201  Cu202   2.718   .     S
Cu201  O265    1.962   .     S
Cu201  O285    1.965   .     S
Cu202  N262    2.043   .     S
Cu202  O283    1.962   .     S
Cu202  O286    1.965   .     S
Cu203  O270    1.965   .     S
Cu203  Cu204   2.718   .     S
Cu203  O267    1.962   .     S
Cu203  N263    2.043   .     S
Cu203  O560    1.965   1_545 S
Cu203  O576    1.962   1_545 S
Cu204  O266    1.962   .     S
Cu204  O271    1.965   .     S
Cu204  N264    2.043   .     S
Cu204  O556    1.962   1_545 S
Cu204  O557    1.965   1_545 S
H224   C40     1.096   1_655 S
H225   C40     1.107   1_655 S
N263   C440    1.386   1_545 S
N264   C437    1.378   1_545 S
O268   Cu492   1.962   .     S
O269   Cu492   1.965   .     S
O272   Cu491   1.965   .     S
O276   Cu58    1.962   1_655 S
O277   C42     1.420   1_655 S
O282   Cu57    1.962   1_655 S
O284   Cu58    1.965   1_655 S
O287   Cu57    1.965   1_655 S
O288   Cu491   1.962   .     S
C289   O427    1.303   .     A
C289   C318    1.450   .     S
C289   O409    1.304   .     A
C290   O418    1.390   .     S
C290   C867    1.430   .     S
C290   N405    1.386   .     S
C291   O419    1.384   .     S
C291   C1442   1.430   1_554 S
C291   N406    1.378   .     S
C292   N549    1.386   .     A
C292   O421    1.390   .     S
C292   C920    1.430   .     S
C293   O422    1.384   .     S
C293   C1448   1.430   1_554 S
C293   N120    1.378   1_565 S
C294   O423    1.390   .     S
C294   N407    1.386   .     A
C294   C871    1.430   .     S
C295   N408    1.378   .     A
C295   O424    1.384   .     S
C295   C1446   1.430   1_554 S
C296   O425    1.390   .     S
C296   C869    1.430   .     S
C296   N119    1.386   1_565 S
C297   C308    1.382   .     A
C297   H349    1.081   .     S
C297   C316    1.400   .     A
C298   C315    1.401   .     A
C298   C309    1.383   .     A
C298   H360    1.081   .     S
C299   C306    1.382   .     A
C299   C315    1.400   .     A
C299   H371    1.081   .     S
C300   C317    1.450   .     S
C300   O420    1.303   .     A
C300   O426    1.304   .     A
C301   C316    1.401   .     A
C301   C307    1.383   .     A
C301   H382    1.081   .     S
C302   H393    1.082   .     S
C302   C318    1.400   .     A
C302   C313    1.382   .     A
C303   H401    1.083   .     S
C303   C317    1.401   .     A
C303   C314    1.383   .     A
C304   C310    1.382   .     A
C304   H402    1.082   .     S
C304   C317    1.400   .     A
C305   C318    1.401   .     A
C305   C312    1.383   .     A
C305   H403    1.083   .     S
C306   H404    1.081   .     S
C306   C320    1.400   .     A
C307   C319    1.401   .     A
C307   H350    1.081   .     S
C308   H351    1.081   .     S
C308   C319    1.400   .     A
C309   H352    1.081   .     S
C309   C320    1.401   .     A
C310   C323    1.400   .     A
C310   H353    1.082   .     S
C311   O431    1.303   .     A
C311   O428    1.304   .     A
C311   C316    1.452   .     S
C312   H354    1.083   .     S
C312   C321    1.401   .     A
C313   H355    1.082   .     S
C313   C321    1.400   .     A
C314   H356    1.083   .     S
C314   C323    1.401   .     A
C315   C322    1.452   .     S
C319   C343    1.452   .     S
C320   C342    1.452   .     S
C321   C341    1.450   .     S
C322   O429    1.303   .     A
C322   O430    1.304   .     A
C323   C333    1.450   .     S
C324   O417    1.414   .     S
C324   C325    1.524   .     S
C324   H501    1.096   .     S
C324   H502    1.107   .     S
C325   H362    1.110   .     S
C325   H359    1.111   .     S
C325   H361    1.109   .     S
C326   H364    1.100   .     S
C326   H363    1.114   .     S
C326   C471    1.528   .     S
C326   O562    1.420   .     S
C327   H365    1.111   .     S
C327   H366    1.112   .     S
C327   H367    1.104   .     S
C327   C470    1.528   1_455 S
C328   C329    1.524   .     S
C328   O419    1.414   .     S
C328   H512    1.096   1_455 S
C328   H513    1.107   1_455 S
C329   H372    1.109   .     S
C329   H373    1.110   .     S
C329   H370    1.111   .     S
C330   H374    1.114   .     S
C330   H375    1.100   .     S
C330   C475    1.528   1_455 S
C330   O565    1.420   1_455 S
C331   H377    1.112   .     S
C331   H376    1.111   .     S
C331   C474    1.528   .     S
C331   H522    1.105   .     S
C332   C334    1.524   .     S
C332   O422    1.414   .     S
C332   H379    1.096   .     S
C332   H380    1.107   .     S
C333   O432    1.304   .     A
C333   O412    1.303   .     A
C334   H383    1.109   .     S
C334   H381    1.111   .     S
C334   H384    1.110   .     S
C335   H386    1.100   .     S
C335   C336    1.528   .     S
C335   O423    1.420   .     S
C335   H385    1.114   .     S
C336   H388    1.112   .     S
C336   H387    1.111   .     S
C336   H389    1.104   .     S
C337   H390    1.096   .     S
C337   O424    1.414   .     S
C337   H391    1.107   .     S
C337   C338    1.524   .     S
C338   H392    1.111   .     S
C338   H395    1.110   .     S
C338   H394    1.109   .     S
C339   H396    1.114   .     S
C339   C340    1.528   .     S
C339   O425    1.420   .     S
C339   H397    1.100   .     S
C340   H400    1.105   .     S
C340   H399    1.112   .     S
C340   H398    1.111   .     S
C341   O410    1.303   .     A
C341   O411    1.304   .     A
C342   O413    1.304   .     A
C342   O416    1.303   .     A
C343   O414    1.303   .     A
C343   O415    1.304   .     A
C344   O417    1.384   .     S
C344   N550    1.378   .     A
C344   C1444   1.430   1_554 S
Cu345  O575    1.965   1_455 S
Cu345  N405    2.043   .     S
Cu345  Cu346   2.718   .     S
Cu345  O570    1.962   1_455 S
Cu345  O409    1.962   .     S
Cu345  O429    1.965   .     S
Cu346  N406    2.043   .     S
Cu346  O572    1.965   1_455 S
Cu346  O564    1.962   1_455 S
Cu346  O427    1.962   .     S
Cu346  O430    1.965   .     S
Cu347  O414    1.965   .     S
Cu347  Cu348   2.718   .     S
Cu347  O411    1.962   .     S
Cu347  N407    2.043   .     S
Cu348  O410    1.962   .     S
Cu348  O415    1.965   .     S
Cu348  N408    2.043   .     S
H357   C468    1.096   1_455 S
H358   C468    1.107   1_455 S
H368   C472    1.096   .     S
H369   C472    1.107   .     S
H378   C475    1.105   1_455 S
N405   C436    1.386   1_455 A
N406   C488    1.378   1_455 A
O412   Cu60    1.962   1_565 S
O413   Cu60    1.965   1_565 S
O416   Cu59    1.965   1_565 S
O418   C470    1.420   1_455 S
O420   Cu490   1.962   .     S
O421   C474    1.420   .     S
O426   Cu489   1.962   .     S
O428   Cu490   1.965   .     S
O431   Cu489   1.965   .     S
O432   Cu59    1.962   1_565 S
C433   O571    1.303   .     A
C433   C462    1.450   .     S
C433   O553    1.304   .     A
C434   O562    1.390   .     S
C434   C1011   1.430   .     S
C434   N549    1.386   .     S
C435   O563    1.384   .     S
C435   C1586   1.430   1_554 S
C435   N550    1.378   .     S
C436   N405    1.386   1_655 A
C436   O565    1.390   .     S
C436   C1064   1.430   .     S
C437   O566    1.384   .     S
C437   C1592   1.430   1_554 S
C437   N264    1.378   1_565 S
C438   O567    1.390   .     S
C438   N551    1.386   .     A
C438   C1015   1.430   .     S
C439   N552    1.378   .     A
C439   O568    1.384   .     S
C439   C1590   1.430   1_554 S
C440   O569    1.390   .     S
C440   C1013   1.430   .     S
C440   N263    1.386   1_565 S
C441   C452    1.382   .     A
C441   H493    1.081   .     S
C441   C460    1.400   .     A
C442   C459    1.401   .     A
C442   C453    1.383   .     A
C442   H504    1.081   .     S
C443   C450    1.382   .     A
C443   C459    1.400   .     A
C443   H515    1.081   .     S
C444   C461    1.450   .     S
C444   O564    1.303   .     A
C444   O570    1.304   .     A
C445   C460    1.401   .     A
C445   C451    1.383   .     A
C445   H526    1.081   .     S
C446   H537    1.082   .     S
C446   C462    1.400   .     A
C446   C457    1.382   .     A
C447   H545    1.083   .     S
C447   C461    1.401   .     A
C447   C458    1.383   .     A
C448   C454    1.382   .     A
C448   H546    1.082   .     S
C448   C461    1.400   .     A
C449   C462    1.401   .     A
C449   C456    1.383   .     A
C449   H547    1.083   .     S
C450   H548    1.081   .     S
C450   C464    1.400   .     A
C451   C463    1.401   .     A
C451   H494    1.081   .     S
C452   H495    1.081   .     S
C452   C463    1.400   .     A
C453   H496    1.081   .     S
C453   C464    1.401   .     A
C454   C467    1.400   .     A
C454   H497    1.082   .     S
C455   O575    1.303   .     A
C455   O572    1.304   .     A
C455   C460    1.452   .     S
C456   H498    1.083   .     S
C456   C465    1.401   .     A
C457   H499    1.082   .     S
C457   C465    1.400   .     A
C458   H500    1.083   .     S
C458   C467    1.401   .     A
C459   C466    1.452   .     S
C463   C487    1.452   .     S
C464   C486    1.452   .     S
C465   C485    1.450   .     S
C466   O573    1.303   .     A
C466   O574    1.304   .     A
C467   C477    1.450   .     S
C468   O561    1.414   .     S
C468   C469    1.524   .     S
C468   H357    1.096   1_655 S
C468   H358    1.107   1_655 S
C469   H506    1.110   .     S
C469   H503    1.111   .     S
C469   H505    1.109   .     S
C470   H508    1.100   .     S
C470   H507    1.114   .     S
C470   C327    1.528   1_655 S
C470   O418    1.420   1_655 S
C471   H509    1.111   .     S
C471   H510    1.112   .     S
C471   H511    1.104   .     S
C472   C473    1.524   .     S
C472   O563    1.414   .     S
C473   H516    1.109   .     S
C473   H517    1.110   .     S
C473   H514    1.111   .     S
C474   H518    1.114   .     S
C474   H519    1.100   .     S
C475   H521    1.112   .     S
C475   H520    1.111   .     S
C475   C330    1.528   1_655 S
C475   H378    1.105   1_655 S
C476   C478    1.524   .     S
C476   O566    1.414   .     S
C476   H523    1.096   .     S
C476   H524    1.107   .     S
C477   O576    1.304   .     A
C477   O556    1.303   .     A
C478   H527    1.109   .     S
C478   H525    1.111   .     S
C478   H528    1.110   .     S
C479   H530    1.100   .     S
C479   C480    1.528   .     S
C479   O567    1.420   .     S
C479   H529    1.114   .     S
C480   H532    1.112   .     S
C480   H531    1.111   .     S
C480   H533    1.104   .     S
C481   H534    1.096   .     S
C481   O568    1.414   .     S
C481   H535    1.107   .     S
C481   C482    1.524   .     S
C482   H536    1.111   .     S
C482   H539    1.110   .     S
C482   H538    1.109   .     S
C483   H540    1.114   .     S
C483   C484    1.528   .     S
C483   O569    1.420   .     S
C483   H541    1.100   .     S
C484   H544    1.105   .     S
C484   H543    1.112   .     S
C484   H542    1.111   .     S
C485   O554    1.303   .     A
C485   O555    1.304   .     A
C486   O557    1.304   .     A
C486   O560    1.303   .     A
C487   O558    1.303   .     A
C487   O559    1.304   .     A
C488   O561    1.384   .     S
C488   N406    1.378   1_655 A
C488   C1588   1.430   1_554 S
Cu489  N549    2.043   .     S
Cu489  Cu490   2.718   .     S
Cu489  O553    1.962   .     S
Cu489  O573    1.965   .     S
Cu490  N550    2.043   .     S
Cu490  O571    1.962   .     S
Cu490  O574    1.965   .     S
Cu491  O558    1.965   .     S
Cu491  Cu492   2.718   .     S
Cu491  O555    1.962   .     S
Cu491  N551    2.043   .     S
Cu492  O554    1.962   .     S
Cu492  O559    1.965   .     S
Cu492  N552    2.043   .     S
H512   C328    1.096   1_655 S
H513   C328    1.107   1_655 S
O556   Cu204   1.962   1_565 S
O557   Cu204   1.965   1_565 S
O560   Cu203   1.965   1_565 S
O564   Cu346   1.962   1_655 S
O565   C330    1.420   1_655 S
O570   Cu345   1.962   1_655 S
O572   Cu346   1.965   1_655 S
O575   Cu345   1.965   1_655 S
O576   Cu203   1.962   1_565 S
C577   O715    1.303   .     A
C577   C606    1.450   .     S
C577   O697    1.304   .     A
C578   O706    1.390   .     S
C578   C1155   1.430   .     S
C578   N693    1.386   .     S
C579   O707    1.384   .     S
C579   N694    1.378   .     S
C580   N837    1.386   .     A
C580   O709    1.390   .     S
C580   C1208   1.430   .     S
C581   O710    1.384   .     S
C581   N984    1.378   .     S
C582   O711    1.390   .     S
C582   N695    1.386   .     A
C582   C1159   1.430   .     S
C583   N696    1.378   .     A
C583   O712    1.384   .     S
C584   O713    1.390   .     S
C584   C1157   1.430   .     S
C584   N983    1.386   .     S
C585   C596    1.382   .     A
C585   H637    1.081   .     S
C585   C604    1.400   .     A
C586   C603    1.401   .     A
C586   C597    1.383   .     A
C586   H648    1.081   .     S
C587   C594    1.382   .     A
C587   C603    1.400   .     A
C587   H659    1.081   .     S
C588   C605    1.450   .     S
C588   O708    1.303   .     A
C588   O714    1.304   .     A
C589   C604    1.401   .     A
C589   C595    1.383   .     A
C589   H670    1.081   .     S
C590   H681    1.082   .     S
C590   C606    1.400   .     A
C590   C601    1.382   .     A
C591   H689    1.083   .     S
C591   C605    1.401   .     A
C591   C602    1.383   .     A
C592   C598    1.382   .     A
C592   H690    1.082   .     S
C592   C605    1.400   .     A
C593   C606    1.401   .     A
C593   C600    1.383   .     A
C593   H691    1.083   .     S
C594   H692    1.081   .     S
C594   C608    1.400   .     A
C595   C607    1.401   .     A
C595   H638    1.081   .     S
C596   H639    1.081   .     S
C596   C607    1.400   .     A
C597   H640    1.081   .     S
C597   C608    1.401   .     A
C598   C611    1.400   .     A
C598   H641    1.082   .     S
C599   O719    1.303   .     A
C599   O716    1.304   .     A
C599   C604    1.452   .     S
C600   H642    1.083   .     S
C600   C609    1.401   .     A
C601   H643    1.082   .     S
C601   C609    1.400   .     A
C602   H644    1.083   .     S
C602   C611    1.401   .     A
C603   C610    1.452   .     S
C607   C631    1.452   .     S
C608   C630    1.452   .     S
C609   C629    1.450   .     S
C610   O717    1.303   .     A
C610   O718    1.304   .     A
C611   C621    1.450   .     S
C612   O705    1.414   .     S
C612   C613    1.524   .     S
C612   H789    1.096   .     S
C612   H790    1.107   .     S
C613   H650    1.110   .     S
C613   H647    1.111   .     S
C613   H649    1.109   .     S
C614   H652    1.100   .     S
C614   H651    1.114   .     S
C614   C759    1.528   .     S
C614   O850    1.420   .     S
C615   H653    1.111   .     S
C615   H654    1.112   .     S
C615   H655    1.104   .     S
C615   C758    1.528   1_455 S
C616   C617    1.524   .     S
C616   O707    1.414   .     S
C616   H800    1.096   1_455 S
C616   H801    1.107   1_455 S
C617   H660    1.109   .     S
C617   H661    1.110   .     S
C617   H658    1.111   .     S
C618   H662    1.114   .     S
C618   H663    1.100   .     S
C618   C763    1.528   1_455 S
C618   O853    1.420   1_455 S
C619   H665    1.112   .     S
C619   H664    1.111   .     S
C619   C762    1.528   .     S
C619   H810    1.105   .     S
C620   C622    1.524   .     S
C620   O710    1.414   .     S
C620   H667    1.096   .     S
C620   H668    1.107   .     S
C621   O720    1.304   .     A
C621   O700    1.303   .     A
C622   H671    1.109   .     S
C622   H669    1.111   .     S
C622   H672    1.110   .     S
C623   H674    1.100   .     S
C623   C624    1.528   .     S
C623   O711    1.420   .     S
C623   H673    1.114   .     S
C624   H676    1.112   .     S
C624   H675    1.111   .     S
C624   H677    1.104   .     S
C625   H678    1.096   .     S
C625   O712    1.414   .     S
C625   H679    1.107   .     S
C625   C626    1.524   .     S
C626   H680    1.111   .     S
C626   H683    1.110   .     S
C626   H682    1.109   .     S
C627   H684    1.114   .     S
C627   C628    1.528   .     S
C627   O713    1.420   .     S
C627   H685    1.100   .     S
C628   H688    1.105   .     S
C628   H687    1.112   .     S
C628   H686    1.111   .     S
C629   O698    1.303   .     A
C629   O699    1.304   .     A
C630   O701    1.304   .     A
C630   O704    1.303   .     A
C631   O702    1.303   .     A
C631   O703    1.304   .     A
C632   O705    1.384   .     S
C632   N838    1.378   .     A
Cu633  O863    1.965   1_455 S
Cu633  N693    2.043   .     S
Cu633  Cu634   2.718   .     S
Cu633  O858    1.962   1_455 S
Cu633  O697    1.962   .     S
Cu633  O717    1.965   .     S
Cu634  N694    2.043   .     S
Cu634  O860    1.965   1_455 S
Cu634  O852    1.962   1_455 S
Cu634  O715    1.962   .     S
Cu634  O718    1.965   .     S
Cu635  O702    1.965   .     S
Cu635  Cu636   2.718   .     S
Cu635  O699    1.962   .     S
Cu635  N695    2.043   .     S
Cu635  O992    1.965   1_545 S
Cu635  O1008   1.962   1_545 S
Cu636  O698    1.962   .     S
Cu636  O703    1.965   .     S
Cu636  N696    2.043   .     S
Cu636  O988    1.962   1_545 S
Cu636  O989    1.965   1_545 S
H645   C756    1.096   1_455 S
H646   C756    1.107   1_455 S
H656   C760    1.096   .     S
H657   C760    1.107   .     S
H666   C763    1.105   1_455 S
N693   C724    1.386   1_455 A
N694   C776    1.378   1_455 A
N695   C872    1.386   1_545 S
N696   C869    1.378   1_545 S
O700   Cu924   1.962   .     S
O701   Cu924   1.965   .     S
O704   Cu923   1.965   .     S
O706   C758    1.420   1_455 S
O708   Cu778   1.962   .     S
O709   C762    1.420   .     S
O714   Cu777   1.962   .     S
O716   Cu778   1.965   .     S
O719   Cu777   1.965   .     S
O720   Cu923   1.962   .     S
C721   O859    1.303   .     A
C721   C750    1.450   .     S
C721   O841    1.304   .     A
C722   O850    1.390   .     S
C722   C1299   1.430   .     S
C722   N837    1.386   .     S
C723   O851    1.384   .     S
C723   N838    1.378   .     S
C724   N693    1.386   1_655 A
C724   O853    1.390   .     S
C724   C1352   1.430   .     S
C725   O854    1.384   .     S
C725   N1128   1.378   .     S
C726   O855    1.390   .     S
C726   N839    1.386   .     A
C726   C1303   1.430   .     S
C727   N840    1.378   .     A
C727   O856    1.384   .     S
C728   O857    1.390   .     S
C728   C1301   1.430   .     S
C728   N1127   1.386   .     S
C729   C740    1.382   .     A
C729   H781    1.081   .     S
C729   C748    1.400   .     A
C730   C747    1.401   .     A
C730   C741    1.383   .     A
C730   H792    1.081   .     S
C731   C738    1.382   .     A
C731   C747    1.400   .     A
C731   H803    1.081   .     S
C732   C749    1.450   .     S
C732   O852    1.303   .     A
C732   O858    1.304   .     A
C733   C748    1.401   .     A
C733   C739    1.383   .     A
C733   H814    1.081   .     S
C734   H825    1.082   .     S
C734   C750    1.400   .     A
C734   C745    1.382   .     A
C735   H833    1.083   .     S
C735   C749    1.401   .     A
C735   C746    1.383   .     A
C736   C742    1.382   .     A
C736   H834    1.082   .     S
C736   C749    1.400   .     A
C737   C750    1.401   .     A
C737   C744    1.383   .     A
C737   H835    1.083   .     S
C738   H836    1.081   .     S
C738   C752    1.400   .     A
C739   C751    1.401   .     A
C739   H782    1.081   .     S
C740   H783    1.081   .     S
C740   C751    1.400   .     A
C741   H784    1.081   .     S
C741   C752    1.401   .     A
C742   C755    1.400   .     A
C742   H785    1.082   .     S
C743   O863    1.303   .     A
C743   O860    1.304   .     A
C743   C748    1.452   .     S
C744   H786    1.083   .     S
C744   C753    1.401   .     A
C745   H787    1.082   .     S
C745   C753    1.400   .     A
C746   H788    1.083   .     S
C746   C755    1.401   .     A
C747   C754    1.452   .     S
C751   C775    1.452   .     S
C752   C774    1.452   .     S
C753   C773    1.450   .     S
C754   O861    1.303   .     A
C754   O862    1.304   .     A
C755   C765    1.450   .     S
C756   O849    1.414   .     S
C756   C757    1.524   .     S
C756   H645    1.096   1_655 S
C756   H646    1.107   1_655 S
C757   H794    1.110   .     S
C757   H791    1.111   .     S
C757   H793    1.109   .     S
C758   H796    1.100   .     S
C758   H795    1.114   .     S
C758   C615    1.528   1_655 S
C758   O706    1.420   1_655 S
C759   H797    1.111   .     S
C759   H798    1.112   .     S
C759   H799    1.104   .     S
C760   C761    1.524   .     S
C760   O851    1.414   .     S
C761   H804    1.109   .     S
C761   H805    1.110   .     S
C761   H802    1.111   .     S
C762   H806    1.114   .     S
C762   H807    1.100   .     S
C763   H809    1.112   .     S
C763   H808    1.111   .     S
C763   C618    1.528   1_655 S
C763   H666    1.105   1_655 S
C764   C766    1.524   .     S
C764   O854    1.414   .     S
C764   H811    1.096   .     S
C764   H812    1.107   .     S
C765   O864    1.304   .     A
C765   O844    1.303   .     A
C766   H815    1.109   .     S
C766   H813    1.111   .     S
C766   H816    1.110   .     S
C767   H818    1.100   .     S
C767   C768    1.528   .     S
C767   O855    1.420   .     S
C767   H817    1.114   .     S
C768   H820    1.112   .     S
C768   H819    1.111   .     S
C768   H821    1.104   .     S
C769   H822    1.096   .     S
C769   O856    1.414   .     S
C769   H823    1.107   .     S
C769   C770    1.524   .     S
C770   H824    1.111   .     S
C770   H827    1.110   .     S
C770   H826    1.109   .     S
C771   H828    1.114   .     S
C771   C772    1.528   .     S
C771   O857    1.420   .     S
C771   H829    1.100   .     S
C772   H832    1.105   .     S
C772   H831    1.112   .     S
C772   H830    1.111   .     S
C773   O842    1.303   .     A
C773   O843    1.304   .     A
C774   O845    1.304   .     A
C774   O848    1.303   .     A
C775   O846    1.303   .     A
C775   O847    1.304   .     A
C776   O849    1.384   .     S
C776   N694    1.378   1_655 A
Cu777  N837    2.043   .     S
Cu777  Cu778   2.718   .     S
Cu777  O841    1.962   .     S
Cu777  O861    1.965   .     S
Cu778  N838    2.043   .     S
Cu778  O859    1.962   .     S
Cu778  O862    1.965   .     S
Cu779  O846    1.965   .     S
Cu779  Cu780   2.718   .     S
Cu779  O843    1.962   .     S
Cu779  N839    2.043   .     S
Cu779  O1136   1.965   1_545 S
Cu779  O1152   1.962   1_545 S
Cu780  O842    1.962   .     S
Cu780  O847    1.965   .     S
Cu780  N840    2.043   .     S
Cu780  O1132   1.962   1_545 S
Cu780  O1133   1.965   1_545 S
H800   C616    1.096   1_655 S
H801   C616    1.107   1_655 S
N839   C1016   1.386   1_545 S
N840   C1013   1.378   1_545 S
O844   Cu1068  1.962   .     S
O845   Cu1068  1.965   .     S
O848   Cu1067  1.965   .     S
O852   Cu634   1.962   1_655 S
O853   C618    1.420   1_655 S
O858   Cu633   1.962   1_655 S
O860   Cu634   1.965   1_655 S
O863   Cu633   1.965   1_655 S
O864   Cu1067  1.962   .     S
C865   O1003   1.303   .     A
C865   C894    1.450   .     S
C865   O985    1.304   .     A
C866   O994    1.390   .     S
C866   C1443   1.430   .     S
C866   N981    1.386   .     S
C867   O995    1.384   .     S
C867   N982    1.378   .     S
C868   N1125   1.386   .     A
C868   O997    1.390   .     S
C868   C1496   1.430   .     S
C869   O998    1.384   .     S
C869   N696    1.378   1_565 S
C870   O999    1.390   .     S
C870   N983    1.386   .     A
C870   C1447   1.430   .     S
C871   N984    1.378   .     A
C871   O1000   1.384   .     S
C872   O1001   1.390   .     S
C872   C1445   1.430   .     S
C872   N695    1.386   1_565 S
C873   C884    1.382   .     A
C873   H925    1.081   .     S
C873   C892    1.400   .     A
C874   C891    1.401   .     A
C874   C885    1.383   .     A
C874   H936    1.081   .     S
C875   C882    1.382   .     A
C875   C891    1.400   .     A
C875   H947    1.081   .     S
C876   C893    1.450   .     S
C876   O996    1.303   .     A
C876   O1002   1.304   .     A
C877   C892    1.401   .     A
C877   C883    1.383   .     A
C877   H958    1.081   .     S
C878   H969    1.082   .     S
C878   C894    1.400   .     A
C878   C889    1.382   .     A
C879   H977    1.083   .     S
C879   C893    1.401   .     A
C879   C890    1.383   .     A
C880   C886    1.382   .     A
C880   H978    1.082   .     S
C880   C893    1.400   .     A
C881   C894    1.401   .     A
C881   C888    1.383   .     A
C881   H979    1.083   .     S
C882   H980    1.081   .     S
C882   C896    1.400   .     A
C883   C895    1.401   .     A
C883   H926    1.081   .     S
C884   H927    1.081   .     S
C884   C895    1.400   .     A
C885   H928    1.081   .     S
C885   C896    1.401   .     A
C886   C899    1.400   .     A
C886   H929    1.082   .     S
C887   O1007   1.303   .     A
C887   O1004   1.304   .     A
C887   C892    1.452   .     S
C888   H930    1.083   .     S
C888   C897    1.401   .     A
C889   H931    1.082   .     S
C889   C897    1.400   .     A
C890   H932    1.083   .     S
C890   C899    1.401   .     A
C891   C898    1.452   .     S
C895   C919    1.452   .     S
C896   C918    1.452   .     S
C897   C917    1.450   .     S
C898   O1005   1.303   .     A
C898   O1006   1.304   .     A
C899   C909    1.450   .     S
C900   O993    1.414   .     S
C900   C901    1.524   .     S
C900   H1077   1.096   .     S
C900   H1078   1.107   .     S
C901   H938    1.110   .     S
C901   H935    1.111   .     S
C901   H937    1.109   .     S
C902   H940    1.100   .     S
C902   H939    1.114   .     S
C902   C1047   1.528   .     S
C902   O1138   1.420   .     S
C903   H941    1.111   .     S
C903   H942    1.112   .     S
C903   H943    1.104   .     S
C903   C1046   1.528   1_455 S
C904   C905    1.524   .     S
C904   O995    1.414   .     S
C904   H1088   1.096   1_455 S
C904   H1089   1.107   1_455 S
C905   H948    1.109   .     S
C905   H949    1.110   .     S
C905   H946    1.111   .     S
C906   H950    1.114   .     S
C906   H951    1.100   .     S
C906   C1051   1.528   1_455 S
C906   O1141   1.420   1_455 S
C907   H953    1.112   .     S
C907   H952    1.111   .     S
C907   C1050   1.528   .     S
C907   H1098   1.105   .     S
C908   C910    1.524   .     S
C908   O998    1.414   .     S
C908   H955    1.096   .     S
C908   H956    1.107   .     S
C909   O1008   1.304   .     A
C909   O988    1.303   .     A
C910   H959    1.109   .     S
C910   H957    1.111   .     S
C910   H960    1.110   .     S
C911   H962    1.100   .     S
C911   C912    1.528   .     S
C911   O999    1.420   .     S
C911   H961    1.114   .     S
C912   H964    1.112   .     S
C912   H963    1.111   .     S
C912   H965    1.104   .     S
C913   H966    1.096   .     S
C913   O1000   1.414   .     S
C913   H967    1.107   .     S
C913   C914    1.524   .     S
C914   H968    1.111   .     S
C914   H971    1.110   .     S
C914   H970    1.109   .     S
C915   H972    1.114   .     S
C915   C916    1.528   .     S
C915   O1001   1.420   .     S
C915   H973    1.100   .     S
C916   H976    1.105   .     S
C916   H975    1.112   .     S
C916   H974    1.111   .     S
C917   O986    1.303   .     A
C917   O987    1.304   .     A
C918   O989    1.304   .     A
C918   O992    1.303   .     A
C919   O990    1.303   .     A
C919   O991    1.304   .     A
C920   O993    1.384   .     S
C920   N1126   1.378   .     A
Cu921  O1151   1.965   1_455 S
Cu921  N981    2.043   .     S
Cu921  Cu922   2.718   .     S
Cu921  O1146   1.962   1_455 S
Cu921  O985    1.962   .     S
Cu921  O1005   1.965   .     S
Cu922  N982    2.043   .     S
Cu922  O1148   1.965   1_455 S
Cu922  O1140   1.962   1_455 S
Cu922  O1003   1.962   .     S
Cu922  O1006   1.965   .     S
Cu923  O990    1.965   .     S
Cu923  Cu924   2.718   .     S
Cu923  O987    1.962   .     S
Cu923  N983    2.043   .     S
Cu924  O986    1.962   .     S
Cu924  O991    1.965   .     S
Cu924  N984    2.043   .     S
H933   C1044   1.096   1_455 S
H934   C1044   1.107   1_455 S
H944   C1048   1.096   .     S
H945   C1048   1.107   .     S
H954   C1051   1.105   1_455 S
N981   C1012   1.386   1_455 A
N982   C1064   1.378   1_455 A
O988   Cu636   1.962   1_565 S
O989   Cu636   1.965   1_565 S
O992   Cu635   1.965   1_565 S
O994   C1046   1.420   1_455 S
O996   Cu1066  1.962   .     S
O997   C1050   1.420   .     S
O1002  Cu1065  1.962   .     S
O1004  Cu1066  1.965   .     S
O1007  Cu1065  1.965   .     S
O1008  Cu635   1.962   1_565 S
C1009  O1147   1.303   .     A
C1009  C1038   1.450   .     S
C1009  O1129   1.304   .     A
C1010  O1138   1.390   .     S
C1010  C1587   1.430   .     S
C1010  N1125   1.386   .     S
C1011  O1139   1.384   .     S
C1011  N1126   1.378   .     S
C1012  N981    1.386   1_655 A
C1012  O1141   1.390   .     S
C1012  C1640   1.430   .     S
C1013  O1142   1.384   .     S
C1013  N840    1.378   1_565 S
C1014  O1143   1.390   .     S
C1014  N1127   1.386   .     A
C1014  C1591   1.430   .     S
C1015  N1128   1.378   .     A
C1015  O1144   1.384   .     S
C1016  O1145   1.390   .     S
C1016  C1589   1.430   .     S
C1016  N839    1.386   1_565 S
C1017  C1028   1.382   .     A
C1017  H1069   1.081   .     S
C1017  C1036   1.400   .     A
C1018  C1035   1.401   .     A
C1018  C1029   1.383   .     A
C1018  H1080   1.081   .     S
C1019  C1026   1.382   .     A
C1019  C1035   1.400   .     A
C1019  H1091   1.081   .     S
C1020  C1037   1.450   .     S
C1020  O1140   1.303   .     A
C1020  O1146   1.304   .     A
C1021  C1036   1.401   .     A
C1021  C1027   1.383   .     A
C1021  H1102   1.081   .     S
C1022  H1113   1.082   .     S
C1022  C1038   1.400   .     A
C1022  C1033   1.382   .     A
C1023  H1121   1.083   .     S
C1023  C1037   1.401   .     A
C1023  C1034   1.383   .     A
C1024  C1030   1.382   .     A
C1024  H1122   1.082   .     S
C1024  C1037   1.400   .     A
C1025  C1038   1.401   .     A
C1025  C1032   1.383   .     A
C1025  H1123   1.083   .     S
C1026  H1124   1.081   .     S
C1026  C1040   1.400   .     A
C1027  C1039   1.401   .     A
C1027  H1070   1.081   .     S
C1028  H1071   1.081   .     S
C1028  C1039   1.400   .     A
C1029  H1072   1.081   .     S
C1029  C1040   1.401   .     A
C1030  C1043   1.400   .     A
C1030  H1073   1.082   .     S
C1031  O1151   1.303   .     A
C1031  O1148   1.304   .     A
C1031  C1036   1.452   .     S
C1032  H1074   1.083   .     S
C1032  C1041   1.401   .     A
C1033  H1075   1.082   .     S
C1033  C1041   1.400   .     A
C1034  H1076   1.083   .     S
C1034  C1043   1.401   .     A
C1035  C1042   1.452   .     S
C1039  C1063   1.452   .     S
C1040  C1062   1.452   .     S
C1041  C1061   1.450   .     S
C1042  O1149   1.303   .     A
C1042  O1150   1.304   .     A
C1043  C1053   1.450   .     S
C1044  O1137   1.414   .     S
C1044  C1045   1.524   .     S
C1044  H933    1.096   1_655 S
C1044  H934    1.107   1_655 S
C1045  H1082   1.110   .     S
C1045  H1079   1.111   .     S
C1045  H1081   1.109   .     S
C1046  H1084   1.100   .     S
C1046  H1083   1.114   .     S
C1046  C903    1.528   1_655 S
C1046  O994    1.420   1_655 S
C1047  H1085   1.111   .     S
C1047  H1086   1.112   .     S
C1047  H1087   1.104   .     S
C1048  C1049   1.524   .     S
C1048  O1139   1.414   .     S
C1049  H1092   1.109   .     S
C1049  H1093   1.110   .     S
C1049  H1090   1.111   .     S
C1050  H1094   1.114   .     S
C1050  H1095   1.100   .     S
C1051  H1097   1.112   .     S
C1051  H1096   1.111   .     S
C1051  C906    1.528   1_655 S
C1051  H954    1.105   1_655 S
C1052  C1054   1.524   .     S
C1052  O1142   1.414   .     S
C1052  H1099   1.096   .     S
C1052  H1100   1.107   .     S
C1053  O1152   1.304   .     A
C1053  O1132   1.303   .     A
C1054  H1103   1.109   .     S
C1054  H1101   1.111   .     S
C1054  H1104   1.110   .     S
C1055  H1106   1.100   .     S
C1055  C1056   1.528   .     S
C1055  O1143   1.420   .     S
C1055  H1105   1.114   .     S
C1056  H1108   1.112   .     S
C1056  H1107   1.111   .     S
C1056  H1109   1.104   .     S
C1057  H1110   1.096   .     S
C1057  O1144   1.414   .     S
C1057  H1111   1.107   .     S
C1057  C1058   1.524   .     S
C1058  H1112   1.111   .     S
C1058  H1115   1.110   .     S
C1058  H1114   1.109   .     S
C1059  H1116   1.114   .     S
C1059  C1060   1.528   .     S
C1059  O1145   1.420   .     S
C1059  H1117   1.100   .     S
C1060  H1120   1.105   .     S
C1060  H1119   1.112   .     S
C1060  H1118   1.111   .     S
C1061  O1130   1.303   .     A
C1061  O1131   1.304   .     A
C1062  O1133   1.304   .     A
C1062  O1136   1.303   .     A
C1063  O1134   1.303   .     A
C1063  O1135   1.304   .     A
C1064  O1137   1.384   .     S
C1064  N982    1.378   1_655 A
Cu1065 N1125   2.043   .     S
Cu1065 Cu1066  2.718   .     S
Cu1065 O1129   1.962   .     S
Cu1065 O1149   1.965   .     S
Cu1066 N1126   2.043   .     S
Cu1066 O1147   1.962   .     S
Cu1066 O1150   1.965   .     S
Cu1067 O1134   1.965   .     S
Cu1067 Cu1068  2.718   .     S
Cu1067 O1131   1.962   .     S
Cu1067 N1127   2.043   .     S
Cu1068 O1130   1.962   .     S
Cu1068 O1135   1.965   .     S
Cu1068 N1128   2.043   .     S
H1088  C904    1.096   1_655 S
H1089  C904    1.107   1_655 S
O1132  Cu780   1.962   1_565 S
O1133  Cu780   1.965   1_565 S
O1136  Cu779   1.965   1_565 S
O1140  Cu922   1.962   1_655 S
O1141  C906    1.420   1_655 S
O1146  Cu921   1.962   1_655 S
O1148  Cu922   1.965   1_655 S
O1151  Cu921   1.965   1_655 S
O1152  Cu779   1.962   1_565 S
C1153  O1291   1.303   .     A
C1153  C1182   1.450   .     S
C1153  O1273   1.304   .     A
C1154  O1282   1.390   .     S
C1154  C3      1.430   1_556 S
C1154  N1269   1.386   .     S
C1155  O1283   1.384   .     S
C1155  N1270   1.378   .     S
C1156  N1413   1.386   .     A
C1156  O1285   1.390   .     S
C1156  C56     1.430   1_556 S
C1157  O1286   1.384   .     S
C1157  N1560   1.378   .     S
C1158  O1287   1.390   .     S
C1158  N1271   1.386   .     A
C1158  C7      1.430   1_556 S
C1159  N1272   1.378   .     A
C1159  O1288   1.384   .     S
C1160  O1289   1.390   .     S
C1160  C5      1.430   1_556 S
C1160  N1559   1.386   .     S
C1161  C1172   1.382   .     A
C1161  H1213   1.081   .     S
C1161  C1180   1.400   .     A
C1162  C1179   1.401   .     A
C1162  C1173   1.383   .     A
C1162  H1224   1.081   .     S
C1163  C1170   1.382   .     A
C1163  C1179   1.400   .     A
C1163  H1235   1.081   .     S
C1164  C1181   1.450   .     S
C1164  O1284   1.303   .     A
C1164  O1290   1.304   .     A
C1165  C1180   1.401   .     A
C1165  C1171   1.383   .     A
C1165  H1246   1.081   .     S
C1166  H1257   1.082   .     S
C1166  C1182   1.400   .     A
C1166  C1177   1.382   .     A
C1167  H1265   1.083   .     S
C1167  C1181   1.401   .     A
C1167  C1178   1.383   .     A
C1168  C1174   1.382   .     A
C1168  H1266   1.082   .     S
C1168  C1181   1.400   .     A
C1169  C1182   1.401   .     A
C1169  C1176   1.383   .     A
C1169  H1267   1.083   .     S
C1170  H1268   1.081   .     S
C1170  C1184   1.400   .     A
C1171  C1183   1.401   .     A
C1171  H1214   1.081   .     S
C1172  H1215   1.081   .     S
C1172  C1183   1.400   .     A
C1173  H1216   1.081   .     S
C1173  C1184   1.401   .     A
C1174  C1187   1.400   .     A
C1174  H1217   1.082   .     S
C1175  O1295   1.303   .     A
C1175  O1292   1.304   .     A
C1175  C1180   1.452   .     S
C1176  H1218   1.083   .     S
C1176  C1185   1.401   .     A
C1177  H1219   1.082   .     S
C1177  C1185   1.400   .     A
C1178  H1220   1.083   .     S
C1178  C1187   1.401   .     A
C1179  C1186   1.452   .     S
C1183  C1207   1.452   .     S
C1184  C1206   1.452   .     S
C1185  C1205   1.450   .     S
C1186  O1293   1.303   .     A
C1186  O1294   1.304   .     A
C1187  C1197   1.450   .     S
C1188  O1281   1.414   .     S
C1188  C1189   1.524   .     S
C1188  H1365   1.096   .     S
C1188  H1366   1.107   .     S
C1189  H1226   1.110   .     S
C1189  H1223   1.111   .     S
C1189  H1225   1.109   .     S
C1190  H1228   1.100   .     S
C1190  H1227   1.114   .     S
C1190  C1335   1.528   .     S
C1190  O1426   1.420   .     S
C1191  H1229   1.111   .     S
C1191  H1230   1.112   .     S
C1191  H1231   1.104   .     S
C1191  C1334   1.528   1_455 S
C1192  C1193   1.524   .     S
C1192  O1283   1.414   .     S
C1192  H1376   1.096   1_455 S
C1192  H1377   1.107   1_455 S
C1193  H1236   1.109   .     S
C1193  H1237   1.110   .     S
C1193  H1234   1.111   .     S
C1194  H1238   1.114   .     S
C1194  H1239   1.100   .     S
C1194  C1339   1.528   1_455 S
C1194  O1429   1.420   1_455 S
C1195  H1241   1.112   .     S
C1195  H1240   1.111   .     S
C1195  C1338   1.528   .     S
C1195  H1386   1.105   .     S
C1196  C1198   1.524   .     S
C1196  O1286   1.414   .     S
C1196  H1243   1.096   .     S
C1196  H1244   1.107   .     S
C1197  O1296   1.304   .     A
C1197  O1276   1.303   .     A
C1198  H1247   1.109   .     S
C1198  H1245   1.111   .     S
C1198  H1248   1.110   .     S
C1199  H1250   1.100   .     S
C1199  C1200   1.528   .     S
C1199  O1287   1.420   .     S
C1199  H1249   1.114   .     S
C1200  H1252   1.112   .     S
C1200  H1251   1.111   .     S
C1200  H1253   1.104   .     S
C1201  H1254   1.096   .     S
C1201  O1288   1.414   .     S
C1201  H1255   1.107   .     S
C1201  C1202   1.524   .     S
C1202  H1256   1.111   .     S
C1202  H1259   1.110   .     S
C1202  H1258   1.109   .     S
C1203  H1260   1.114   .     S
C1203  C1204   1.528   .     S
C1203  O1289   1.420   .     S
C1203  H1261   1.100   .     S
C1204  H1264   1.105   .     S
C1204  H1263   1.112   .     S
C1204  H1262   1.111   .     S
C1205  O1274   1.303   .     A
C1205  O1275   1.304   .     A
C1206  O1277   1.304   .     A
C1206  O1280   1.303   .     A
C1207  O1278   1.303   .     A
C1207  O1279   1.304   .     A
C1208  O1281   1.384   .     S
C1208  N1414   1.378   .     A
Cu1209 O1439   1.965   1_455 S
Cu1209 N1269   2.043   .     S
Cu1209 Cu1210  2.718   .     S
Cu1209 O1434   1.962   1_455 S
Cu1209 O1273   1.962   .     S
Cu1209 O1293   1.965   .     S
Cu1210 N1270   2.043   .     S
Cu1210 O1436   1.965   1_455 S
Cu1210 O1428   1.962   1_455 S
Cu1210 O1291   1.962   .     S
Cu1210 O1294   1.965   .     S
Cu1211 O1278   1.965   .     S
Cu1211 Cu1212  2.718   .     S
Cu1211 O1275   1.962   .     S
Cu1211 N1271   2.043   .     S
Cu1211 O1568   1.965   1_545 S
Cu1211 O1584   1.962   1_545 S
Cu1212 O1274   1.962   .     S
Cu1212 O1279   1.965   .     S
Cu1212 N1272   2.043   .     S
Cu1212 O1564   1.962   1_545 S
Cu1212 O1565   1.965   1_545 S
H1221  C1332   1.096   1_455 S
H1222  C1332   1.107   1_455 S
H1232  C1336   1.096   .     S
H1233  C1336   1.107   .     S
H1242  C1339   1.105   1_455 S
N1269  C1300   1.386   1_455 A
N1270  C1352   1.378   1_455 A
N1271  C1448   1.386   1_545 S
N1272  C1445   1.378   1_545 S
O1276  Cu1500  1.962   .     S
O1277  Cu1500  1.965   .     S
O1280  Cu1499  1.965   .     S
O1282  C1334   1.420   1_455 S
O1284  Cu1354  1.962   .     S
O1285  C1338   1.420   .     S
O1290  Cu1353  1.962   .     S
O1292  Cu1354  1.965   .     S
O1295  Cu1353  1.965   .     S
O1296  Cu1499  1.962   .     S
C1297  O1435   1.303   .     A
C1297  C1326   1.450   .     S
C1297  O1417   1.304   .     A
C1298  O1426   1.390   .     S
C1298  C147    1.430   1_556 S
C1298  N1413   1.386   .     S
C1299  O1427   1.384   .     S
C1299  N1414   1.378   .     S
C1300  N1269   1.386   1_655 A
C1300  O1429   1.390   .     S
C1300  C200    1.430   1_556 S
C1301  O1430   1.384   .     S
C1301  N1704   1.378   .     S
C1302  O1431   1.390   .     S
C1302  N1415   1.386   .     A
C1302  C151    1.430   1_556 S
C1303  N1416   1.378   .     A
C1303  O1432   1.384   .     S
C1304  O1433   1.390   .     S
C1304  C149    1.430   1_556 S
C1304  N1703   1.386   .     S
C1305  C1316   1.382   .     A
C1305  H1357   1.081   .     S
C1305  C1324   1.400   .     A
C1306  C1323   1.401   .     A
C1306  C1317   1.383   .     A
C1306  H1368   1.081   .     S
C1307  C1314   1.382   .     A
C1307  C1323   1.400   .     A
C1307  H1379   1.081   .     S
C1308  C1325   1.450   .     S
C1308  O1428   1.303   .     A
C1308  O1434   1.304   .     A
C1309  C1324   1.401   .     A
C1309  C1315   1.383   .     A
C1309  H1390   1.081   .     S
C1310  H1401   1.082   .     S
C1310  C1326   1.400   .     A
C1310  C1321   1.382   .     A
C1311  H1409   1.083   .     S
C1311  C1325   1.401   .     A
C1311  C1322   1.383   .     A
C1312  C1318   1.382   .     A
C1312  H1410   1.082   .     S
C1312  C1325   1.400   .     A
C1313  C1326   1.401   .     A
C1313  C1320   1.383   .     A
C1313  H1411   1.083   .     S
C1314  H1412   1.081   .     S
C1314  C1328   1.400   .     A
C1315  C1327   1.401   .     A
C1315  H1358   1.081   .     S
C1316  H1359   1.081   .     S
C1316  C1327   1.400   .     A
C1317  H1360   1.081   .     S
C1317  C1328   1.401   .     A
C1318  C1331   1.400   .     A
C1318  H1361   1.082   .     S
C1319  O1439   1.303   .     A
C1319  O1436   1.304   .     A
C1319  C1324   1.452   .     S
C1320  H1362   1.083   .     S
C1320  C1329   1.401   .     A
C1321  H1363   1.082   .     S
C1321  C1329   1.400   .     A
C1322  H1364   1.083   .     S
C1322  C1331   1.401   .     A
C1323  C1330   1.452   .     S
C1327  C1351   1.452   .     S
C1328  C1350   1.452   .     S
C1329  C1349   1.450   .     S
C1330  O1437   1.303   .     A
C1330  O1438   1.304   .     A
C1331  C1341   1.450   .     S
C1332  O1425   1.414   .     S
C1332  C1333   1.524   .     S
C1332  H1221   1.096   1_655 S
C1332  H1222   1.107   1_655 S
C1333  H1370   1.110   .     S
C1333  H1367   1.111   .     S
C1333  H1369   1.109   .     S
C1334  H1372   1.100   .     S
C1334  H1371   1.114   .     S
C1334  C1191   1.528   1_655 S
C1334  O1282   1.420   1_655 S
C1335  H1373   1.111   .     S
C1335  H1374   1.112   .     S
C1335  H1375   1.104   .     S
C1336  C1337   1.524   .     S
C1336  O1427   1.414   .     S
C1337  H1380   1.109   .     S
C1337  H1381   1.110   .     S
C1337  H1378   1.111   .     S
C1338  H1382   1.114   .     S
C1338  H1383   1.100   .     S
C1339  H1385   1.112   .     S
C1339  H1384   1.111   .     S
C1339  C1194   1.528   1_655 S
C1339  H1242   1.105   1_655 S
C1340  C1342   1.524   .     S
C1340  O1430   1.414   .     S
C1340  H1387   1.096   .     S
C1340  H1388   1.107   .     S
C1341  O1440   1.304   .     A
C1341  O1420   1.303   .     A
C1342  H1391   1.109   .     S
C1342  H1389   1.111   .     S
C1342  H1392   1.110   .     S
C1343  H1394   1.100   .     S
C1343  C1344   1.528   .     S
C1343  O1431   1.420   .     S
C1343  H1393   1.114   .     S
C1344  H1396   1.112   .     S
C1344  H1395   1.111   .     S
C1344  H1397   1.104   .     S
C1345  H1398   1.096   .     S
C1345  O1432   1.414   .     S
C1345  H1399   1.107   .     S
C1345  C1346   1.524   .     S
C1346  H1400   1.111   .     S
C1346  H1403   1.110   .     S
C1346  H1402   1.109   .     S
C1347  H1404   1.114   .     S
C1347  C1348   1.528   .     S
C1347  O1433   1.420   .     S
C1347  H1405   1.100   .     S
C1348  H1408   1.105   .     S
C1348  H1407   1.112   .     S
C1348  H1406   1.111   .     S
C1349  O1418   1.303   .     A
C1349  O1419   1.304   .     A
C1350  O1421   1.304   .     A
C1350  O1424   1.303   .     A
C1351  O1422   1.303   .     A
C1351  O1423   1.304   .     A
C1352  O1425   1.384   .     S
C1352  N1270   1.378   1_655 A
Cu1353 N1413   2.043   .     S
Cu1353 Cu1354  2.718   .     S
Cu1353 O1417   1.962   .     S
Cu1353 O1437   1.965   .     S
Cu1354 N1414   2.043   .     S
Cu1354 O1435   1.962   .     S
Cu1354 O1438   1.965   .     S
Cu1355 O1422   1.965   .     S
Cu1355 Cu1356  2.718   .     S
Cu1355 O1419   1.962   .     S
Cu1355 N1415   2.043   .     S
Cu1355 O1712   1.965   1_545 S
Cu1355 O1728   1.962   1_545 S
Cu1356 O1418   1.962   .     S
Cu1356 O1423   1.965   .     S
Cu1356 N1416   2.043   .     S
Cu1356 O1708   1.962   1_545 S
Cu1356 O1709   1.965   1_545 S
H1376  C1192   1.096   1_655 S
H1377  C1192   1.107   1_655 S
N1415  C1592   1.386   1_545 S
N1416  C1589   1.378   1_545 S
O1420  Cu1644  1.962   .     S
O1421  Cu1644  1.965   .     S
O1424  Cu1643  1.965   .     S
O1428  Cu1210  1.962   1_655 S
O1429  C1194   1.420   1_655 S
O1434  Cu1209  1.962   1_655 S
O1436  Cu1210  1.965   1_655 S
O1439  Cu1209  1.965   1_655 S
O1440  Cu1643  1.962   .     S
C1441  O1579   1.303   .     A
C1441  C1470   1.450   .     S
C1441  O1561   1.304   .     A
C1442  O1570   1.390   .     S
C1442  C291    1.430   1_556 S
C1442  N1557   1.386   .     S
C1443  O1571   1.384   .     S
C1443  N1558   1.378   .     S
C1444  N1701   1.386   .     A
C1444  O1573   1.390   .     S
C1444  C344    1.430   1_556 S
C1445  O1574   1.384   .     S
C1445  N1272   1.378   1_565 S
C1446  O1575   1.390   .     S
C1446  N1559   1.386   .     A
C1446  C295    1.430   1_556 S
C1447  N1560   1.378   .     A
C1447  O1576   1.384   .     S
C1448  O1577   1.390   .     S
C1448  C293    1.430   1_556 S
C1448  N1271   1.386   1_565 S
C1449  C1460   1.382   .     A
C1449  H1501   1.081   .     S
C1449  C1468   1.400   .     A
C1450  C1467   1.401   .     A
C1450  C1461   1.383   .     A
C1450  H1512   1.081   .     S
C1451  C1458   1.382   .     A
C1451  C1467   1.400   .     A
C1451  H1523   1.081   .     S
C1452  C1469   1.450   .     S
C1452  O1572   1.303   .     A
C1452  O1578   1.304   .     A
C1453  C1468   1.401   .     A
C1453  C1459   1.383   .     A
C1453  H1534   1.081   .     S
C1454  H1545   1.082   .     S
C1454  C1470   1.400   .     A
C1454  C1465   1.382   .     A
C1455  H1553   1.083   .     S
C1455  C1469   1.401   .     A
C1455  C1466   1.383   .     A
C1456  C1462   1.382   .     A
C1456  H1554   1.082   .     S
C1456  C1469   1.400   .     A
C1457  C1470   1.401   .     A
C1457  C1464   1.383   .     A
C1457  H1555   1.083   .     S
C1458  H1556   1.081   .     S
C1458  C1472   1.400   .     A
C1459  C1471   1.401   .     A
C1459  H1502   1.081   .     S
C1460  H1503   1.081   .     S
C1460  C1471   1.400   .     A
C1461  H1504   1.081   .     S
C1461  C1472   1.401   .     A
C1462  C1475   1.400   .     A
C1462  H1505   1.082   .     S
C1463  O1583   1.303   .     A
C1463  O1580   1.304   .     A
C1463  C1468   1.452   .     S
C1464  H1506   1.083   .     S
C1464  C1473   1.401   .     A
C1465  H1507   1.082   .     S
C1465  C1473   1.400   .     A
C1466  H1508   1.083   .     S
C1466  C1475   1.401   .     A
C1467  C1474   1.452   .     S
C1471  C1495   1.452   .     S
C1472  C1494   1.452   .     S
C1473  C1493   1.450   .     S
C1474  O1581   1.303   .     A
C1474  O1582   1.304   .     A
C1475  C1485   1.450   .     S
C1476  O1569   1.414   .     S
C1476  C1477   1.524   .     S
C1476  H1653   1.096   .     S
C1476  H1654   1.107   .     S
C1477  H1514   1.110   .     S
C1477  H1511   1.111   .     S
C1477  H1513   1.109   .     S
C1478  H1516   1.100   .     S
C1478  H1515   1.114   .     S
C1478  C1623   1.528   .     S
C1478  O1714   1.420   .     S
C1479  H1517   1.111   .     S
C1479  H1518   1.112   .     S
C1479  H1519   1.104   .     S
C1479  C1622   1.528   1_455 S
C1480  C1481   1.524   .     S
C1480  O1571   1.414   .     S
C1480  H1664   1.096   1_455 S
C1480  H1665   1.107   1_455 S
C1481  H1524   1.109   .     S
C1481  H1525   1.110   .     S
C1481  H1522   1.111   .     S
C1482  H1526   1.114   .     S
C1482  H1527   1.100   .     S
C1482  C1627   1.528   1_455 S
C1482  O1717   1.420   1_455 S
C1483  H1529   1.112   .     S
C1483  H1528   1.111   .     S
C1483  C1626   1.528   .     S
C1483  H1674   1.105   .     S
C1484  C1486   1.524   .     S
C1484  O1574   1.414   .     S
C1484  H1531   1.096   .     S
C1484  H1532   1.107   .     S
C1485  O1584   1.304   .     A
C1485  O1564   1.303   .     A
C1486  H1535   1.109   .     S
C1486  H1533   1.111   .     S
C1486  H1536   1.110   .     S
C1487  H1538   1.100   .     S
C1487  C1488   1.528   .     S
C1487  O1575   1.420   .     S
C1487  H1537   1.114   .     S
C1488  H1540   1.112   .     S
C1488  H1539   1.111   .     S
C1488  H1541   1.104   .     S
C1489  H1542   1.096   .     S
C1489  O1576   1.414   .     S
C1489  H1543   1.107   .     S
C1489  C1490   1.524   .     S
C1490  H1544   1.111   .     S
C1490  H1547   1.110   .     S
C1490  H1546   1.109   .     S
C1491  H1548   1.114   .     S
C1491  C1492   1.528   .     S
C1491  O1577   1.420   .     S
C1491  H1549   1.100   .     S
C1492  H1552   1.105   .     S
C1492  H1551   1.112   .     S
C1492  H1550   1.111   .     S
C1493  O1562   1.303   .     A
C1493  O1563   1.304   .     A
C1494  O1565   1.304   .     A
C1494  O1568   1.303   .     A
C1495  O1566   1.303   .     A
C1495  O1567   1.304   .     A
C1496  O1569   1.384   .     S
C1496  N1702   1.378   .     A
Cu1497 O1727   1.965   1_455 S
Cu1497 N1557   2.043   .     S
Cu1497 Cu1498  2.718   .     S
Cu1497 O1722   1.962   1_455 S
Cu1497 O1561   1.962   .     S
Cu1497 O1581   1.965   .     S
Cu1498 N1558   2.043   .     S
Cu1498 O1724   1.965   1_455 S
Cu1498 O1716   1.962   1_455 S
Cu1498 O1579   1.962   .     S
Cu1498 O1582   1.965   .     S
Cu1499 O1566   1.965   .     S
Cu1499 Cu1500  2.718   .     S
Cu1499 O1563   1.962   .     S
Cu1499 N1559   2.043   .     S
Cu1500 O1562   1.962   .     S
Cu1500 O1567   1.965   .     S
Cu1500 N1560   2.043   .     S
H1509  C1620   1.096   1_455 S
H1510  C1620   1.107   1_455 S
H1520  C1624   1.096   .     S
H1521  C1624   1.107   .     S
H1530  C1627   1.105   1_455 S
N1557  C1588   1.386   1_455 A
N1558  C1640   1.378   1_455 A
O1564  Cu1212  1.962   1_565 S
O1565  Cu1212  1.965   1_565 S
O1568  Cu1211  1.965   1_565 S
O1570  C1622   1.420   1_455 S
O1572  Cu1642  1.962   .     S
O1573  C1626   1.420   .     S
O1578  Cu1641  1.962   .     S
O1580  Cu1642  1.965   .     S
O1583  Cu1641  1.965   .     S
O1584  Cu1211  1.962   1_565 S
C1585  O1723   1.303   .     A
C1585  C1614   1.450   .     S
C1585  O1705   1.304   .     A
C1586  O1714   1.390   .     S
C1586  C435    1.430   1_556 S
C1586  N1701   1.386   .     S
C1587  O1715   1.384   .     S
C1587  N1702   1.378   .     S
C1588  N1557   1.386   1_655 A
C1588  O1717   1.390   .     S
C1588  C488    1.430   1_556 S
C1589  O1718   1.384   .     S
C1589  N1416   1.378   1_565 S
C1590  O1719   1.390   .     S
C1590  N1703   1.386   .     A
C1590  C439    1.430   1_556 S
C1591  N1704   1.378   .     A
C1591  O1720   1.384   .     S
C1592  O1721   1.390   .     S
C1592  C437    1.430   1_556 S
C1592  N1415   1.386   1_565 S
C1593  C1604   1.382   .     A
C1593  H1645   1.081   .     S
C1593  C1612   1.400   .     A
C1594  C1611   1.401   .     A
C1594  C1605   1.383   .     A
C1594  H1656   1.081   .     S
C1595  C1602   1.382   .     A
C1595  C1611   1.400   .     A
C1595  H1667   1.081   .     S
C1596  C1613   1.450   .     S
C1596  O1716   1.303   .     A
C1596  O1722   1.304   .     A
C1597  C1612   1.401   .     A
C1597  C1603   1.383   .     A
C1597  H1678   1.081   .     S
C1598  H1689   1.082   .     S
C1598  C1614   1.400   .     A
C1598  C1609   1.382   .     A
C1599  H1697   1.083   .     S
C1599  C1613   1.401   .     A
C1599  C1610   1.383   .     A
C1600  C1606   1.382   .     A
C1600  H1698   1.082   .     S
C1600  C1613   1.400   .     A
C1601  C1614   1.401   .     A
C1601  C1608   1.383   .     A
C1601  H1699   1.083   .     S
C1602  H1700   1.081   .     S
C1602  C1616   1.400   .     A
C1603  C1615   1.401   .     A
C1603  H1646   1.081   .     S
C1604  H1647   1.081   .     S
C1604  C1615   1.400   .     A
C1605  H1648   1.081   .     S
C1605  C1616   1.401   .     A
C1606  C1619   1.400   .     A
C1606  H1649   1.082   .     S
C1607  O1727   1.303   .     A
C1607  O1724   1.304   .     A
C1607  C1612   1.452   .     S
C1608  H1650   1.083   .     S
C1608  C1617   1.401   .     A
C1609  H1651   1.082   .     S
C1609  C1617   1.400   .     A
C1610  H1652   1.083   .     S
C1610  C1619   1.401   .     A
C1611  C1618   1.452   .     S
C1615  C1639   1.452   .     S
C1616  C1638   1.452   .     S
C1617  C1637   1.450   .     S
C1618  O1725   1.303   .     A
C1618  O1726   1.304   .     A
C1619  C1629   1.450   .     S
C1620  O1713   1.414   .     S
C1620  C1621   1.524   .     S
C1620  H1509   1.096   1_655 S
C1620  H1510   1.107   1_655 S
C1621  H1658   1.110   .     S
C1621  H1655   1.111   .     S
C1621  H1657   1.109   .     S
C1622  H1660   1.100   .     S
C1622  H1659   1.114   .     S
C1622  C1479   1.528   1_655 S
C1622  O1570   1.420   1_655 S
C1623  H1661   1.111   .     S
C1623  H1662   1.112   .     S
C1623  H1663   1.104   .     S
C1624  C1625   1.524   .     S
C1624  O1715   1.414   .     S
C1625  H1668   1.109   .     S
C1625  H1669   1.110   .     S
C1625  H1666   1.111   .     S
C1626  H1670   1.114   .     S
C1626  H1671   1.100   .     S
C1627  H1673   1.112   .     S
C1627  H1672   1.111   .     S
C1627  C1482   1.528   1_655 S
C1627  H1530   1.105   1_655 S
C1628  C1630   1.524   .     S
C1628  O1718   1.414   .     S
C1628  H1675   1.096   .     S
C1628  H1676   1.107   .     S
C1629  O1728   1.304   .     A
C1629  O1708   1.303   .     A
C1630  H1679   1.109   .     S
C1630  H1677   1.111   .     S
C1630  H1680   1.110   .     S
C1631  H1682   1.100   .     S
C1631  C1632   1.528   .     S
C1631  O1719   1.420   .     S
C1631  H1681   1.114   .     S
C1632  H1684   1.112   .     S
C1632  H1683   1.111   .     S
C1632  H1685   1.104   .     S
C1633  H1686   1.096   .     S
C1633  O1720   1.414   .     S
C1633  H1687   1.107   .     S
C1633  C1634   1.524   .     S
C1634  H1688   1.111   .     S
C1634  H1691   1.110   .     S
C1634  H1690   1.109   .     S
C1635  H1692   1.114   .     S
C1635  C1636   1.528   .     S
C1635  O1721   1.420   .     S
C1635  H1693   1.100   .     S
C1636  H1696   1.105   .     S
C1636  H1695   1.112   .     S
C1636  H1694   1.111   .     S
C1637  O1706   1.303   .     A
C1637  O1707   1.304   .     A
C1638  O1709   1.304   .     A
C1638  O1712   1.303   .     A
C1639  O1710   1.303   .     A
C1639  O1711   1.304   .     A
C1640  O1713   1.384   .     S
C1640  N1558   1.378   1_655 A
Cu1641 N1701   2.043   .     S
Cu1641 Cu1642  2.718   .     S
Cu1641 O1705   1.962   .     S
Cu1641 O1725   1.965   .     S
Cu1642 N1702   2.043   .     S
Cu1642 O1723   1.962   .     S
Cu1642 O1726   1.965   .     S
Cu1643 O1710   1.965   .     S
Cu1643 Cu1644  2.718   .     S
Cu1643 O1707   1.962   .     S
Cu1643 N1703   2.043   .     S
Cu1644 O1706   1.962   .     S
Cu1644 O1711   1.965   .     S
Cu1644 N1704   2.043   .     S
H1664  C1480   1.096   1_655 S
H1665  C1480   1.107   1_655 S
O1708  Cu1356  1.962   1_565 S
O1709  Cu1356  1.965   1_565 S
O1712  Cu1355  1.965   1_565 S
O1716  Cu1498  1.962   1_655 S
O1717  C1482   1.420   1_655 S
O1722  Cu1497  1.962   1_655 S
O1724  Cu1498  1.965   1_655 S
O1727  Cu1497  1.965   1_655 S
O1728  Cu1355  1.962   1_565 S
