data_str_m2_o1_o16_pcu_sym.185
_audit_creation_date              2020-01-03
_audit_creation_method            'Materials Studio'
_symmetry_space_group_name_H-M    'P1'
_symmetry_Int_Tables_number       1
_symmetry_cell_setting            triclinic
loop_
_symmetry_equiv_pos_as_xyz
  x,y,z
_cell_length_a                    28.5682
_cell_length_b                    32.4987
_cell_length_c                    27.1713
_cell_angle_alpha                 90.3949
_cell_angle_beta                  73.3351
_cell_angle_gamma                 89.6350
loop_
_atom_site_label
_atom_site_type_symbol
_atom_site_fract_x
_atom_site_fract_y
_atom_site_fract_z
_atom_site_U_iso_or_equiv
_atom_site_adp_type
_atom_site_occupancy
C1     C     0.16658   0.24599   0.24976   0.00000  Uiso   1.00
C2     C     0.14790   0.17770   0.48869   0.00000  Uiso   1.00
C3     C     0.16349   0.17854   0.43415   0.00000  Uiso   1.00
C4     C     0.18334   0.17017   0.01558   0.00000  Uiso   1.00
C5     C     0.23263   0.16158   0.48764   0.00000  Uiso   1.00
C6     C     0.24784   0.16829   0.43519   0.00000  Uiso   1.00
C7     C     0.21435   0.17967   0.40998   0.00000  Uiso   1.00
C8     C     0.17170   0.17121   0.06921   0.00000  Uiso   1.00
C9     C     0.25427   0.15061   0.06633   0.00000  Uiso   1.00
C10    C     0.12788   0.17897   0.40609   0.00000  Uiso   1.00
C11    C     0.20496   0.31185   0.26017   0.00000  Uiso   1.00
C12    C     0.14118   0.17058   0.34972   0.00000  Uiso   1.00
C13    C     0.20516   0.02109   0.26035   0.00000  Uiso   1.00
C14    C     0.16683   0.04284   0.24969   0.00000  Uiso   1.00
C15    C     0.12827   0.02179   0.23889   0.00000  Uiso   1.00
C16    C     0.12789   0.31257   0.23870   0.00000  Uiso   1.00
C17    C     0.16634   0.29066   0.24949   0.00000  Uiso   1.00
C18    C     0.30086   0.19529   0.27766   0.00000  Uiso   1.00
C19    C     0.01675   0.19479   0.27853   0.00000  Uiso   1.00
C20    C     0.03321   0.13897   0.22071   0.00000  Uiso   1.00
C21    C     0.31626   0.13816   0.22116   0.00000  Uiso   1.00
C22    C     0.16677   0.08740   0.24993   0.00000  Uiso   1.00
C23    C     0.19253   0.16544   0.15045   0.00000  Uiso   1.00
C24    C     0.26677   0.14880   0.01294   0.00000  Uiso   1.00
C25    C     0.20697   0.16277   0.09447   0.00000  Uiso   1.00
C26    C     0.07870   0.18684   0.43304   0.00000  Uiso   1.00
C27    C     0.06448   0.19093   0.48619   0.00000  Uiso   1.00
C28    C     0.09779   0.18460   0.01393   0.00000  Uiso   1.00
Cu29   Cu    0.11978   0.16666   0.25000   0.00000  Uiso   1.00
Cu30   Cu    0.21355   0.16667   0.25000   0.00000  Uiso   1.00
H31    H     0.23497   0.03692   0.26933   0.00000  Uiso   1.00
H32    H     0.09851   0.03820   0.23019   0.00000  Uiso   1.00
H33    H     0.27640   0.21894   0.29884   0.00000  Uiso   1.00
H34    H     0.05959   0.11793   0.19669   0.00000  Uiso   1.00
H35    H     0.28615   0.16670   0.41368   0.00000  Uiso   1.00
H36    H     0.13571   0.17989   0.09235   0.00000  Uiso   1.00
H37    H     0.08284   0.18563   0.05506   0.00000  Uiso   1.00
H38    H     0.02676   0.19790   0.00648   0.00000  Uiso   1.00
H39    H     0.23016   0.19128   0.37229   0.00000  Uiso   1.00
H40    H     0.23482   0.29559   0.26886   0.00000  Uiso   1.00
N41    N     0.04931   0.16666   0.24998   0.00000  Uiso   1.00
N42    N     0.28402   0.16669   0.25000   0.00000  Uiso   1.00
O43    O     0.12708   0.22678   0.25000   0.00000  Uiso   1.00
O44    O     0.20627   0.22679   0.25000   0.00000  Uiso   1.00
O45    O     0.10775   0.16665   0.32549   0.00000  Uiso   1.00
O46    O     0.18694   0.16666   0.32549   0.00000  Uiso   1.00
O47    O     0.12706   0.10654   0.24999   0.00000  Uiso   1.00
O48    O     0.20625   0.10655   0.24999   0.00000  Uiso   1.00
O49    O     0.14640   0.16667   0.17451   0.00000  Uiso   1.00
O50    O     0.22559   0.16668   0.17451   0.00000  Uiso   1.00
F51    F     0.28834   0.14018   0.09020   0.00000  Uiso   1.00
F52    F     0.09032   0.29315   0.22726   0.00000  Uiso   1.00
F53    F     0.03167   0.22296   0.30767   0.00000  Uiso   1.00
O54    O     0.29933   0.11167   0.18979   0.00000  Uiso   1.00
C55    C     0.32077   0.07209   0.18632   0.00000  Uiso   1.00
H56    H     0.29686   0.05006   0.17381   0.00000  Uiso   1.00
H57    H     0.32418   0.06123   0.22396   0.00000  Uiso   1.00
H58    H     0.02341   0.07141   0.15657   0.00000  Uiso   1.00
O59    O     0.31332   0.13637   0.48551   0.00000  Uiso   1.00
C60    C     0.31306   0.09352   0.47734   0.00000  Uiso   1.00
H61    H     0.28785   0.08513   0.45438   0.00000  Uiso   1.00
H62    H     0.30327   0.07663   0.01436   0.00000  Uiso   1.00
H63    H     0.01706   0.08353   0.45515   0.00000  Uiso   1.00
F64    F     0.04409   0.19121   0.40809   0.00000  Uiso   1.00
C65    C     0.49991   0.24599   0.24976   0.00000  Uiso   1.00
C66    C     0.48124   0.17770   0.48869   0.00000  Uiso   1.00
C67    C     0.49682   0.17854   0.43415   0.00000  Uiso   1.00
C68    C     0.51668   0.17017   0.01558   0.00000  Uiso   1.00
C69    C     0.56596   0.16158   0.48764   0.00000  Uiso   1.00
C70    C     0.58117   0.16829   0.43519   0.00000  Uiso   1.00
C71    C     0.54768   0.17967   0.40998   0.00000  Uiso   1.00
C72    C     0.50504   0.17121   0.06921   0.00000  Uiso   1.00
C73    C     0.58760   0.15061   0.06633   0.00000  Uiso   1.00
C74    C     0.46121   0.17897   0.40609   0.00000  Uiso   1.00
C75    C     0.53830   0.31185   0.26017   0.00000  Uiso   1.00
C76    C     0.47452   0.17058   0.34972   0.00000  Uiso   1.00
C77    C     0.53849   0.02109   0.26035   0.00000  Uiso   1.00
C78    C     0.50017   0.04284   0.24969   0.00000  Uiso   1.00
C79    C     0.46160   0.02179   0.23889   0.00000  Uiso   1.00
C80    C     0.46122   0.31257   0.23870   0.00000  Uiso   1.00
C81    C     0.49967   0.29066   0.24949   0.00000  Uiso   1.00
C82    C     0.63420   0.19529   0.27766   0.00000  Uiso   1.00
C83    C     0.35008   0.19479   0.27853   0.00000  Uiso   1.00
C84    C     0.36654   0.13897   0.22071   0.00000  Uiso   1.00
C85    C     0.64959   0.13816   0.22116   0.00000  Uiso   1.00
C86    C     0.50011   0.08740   0.24993   0.00000  Uiso   1.00
C87    C     0.52586   0.16544   0.15045   0.00000  Uiso   1.00
C88    C     0.60010   0.14880   0.01294   0.00000  Uiso   1.00
C89    C     0.54030   0.16277   0.09447   0.00000  Uiso   1.00
C90    C     0.41203   0.18684   0.43304   0.00000  Uiso   1.00
C91    C     0.39782   0.19093   0.48619   0.00000  Uiso   1.00
C92    C     0.43112   0.18460   0.01393   0.00000  Uiso   1.00
Cu93   Cu    0.45311   0.16666   0.25000   0.00000  Uiso   1.00
Cu94   Cu    0.54689   0.16667   0.25000   0.00000  Uiso   1.00
H95    H     0.56831   0.03692   0.26933   0.00000  Uiso   1.00
H96    H     0.43184   0.03820   0.23019   0.00000  Uiso   1.00
H97    H     0.60973   0.21894   0.29884   0.00000  Uiso   1.00
H98    H     0.39292   0.11793   0.19669   0.00000  Uiso   1.00
H99    H     0.61948   0.16670   0.41368   0.00000  Uiso   1.00
H100   H     0.46905   0.17989   0.09235   0.00000  Uiso   1.00
H101   H     0.41617   0.18563   0.05506   0.00000  Uiso   1.00
H102   H     0.36009   0.19790   0.00648   0.00000  Uiso   1.00
H103   H     0.56349   0.19128   0.37229   0.00000  Uiso   1.00
H104   H     0.56815   0.29559   0.26886   0.00000  Uiso   1.00
N105   N     0.38265   0.16666   0.24998   0.00000  Uiso   1.00
N106   N     0.61735   0.16669   0.25000   0.00000  Uiso   1.00
O107   O     0.46042   0.22678   0.25000   0.00000  Uiso   1.00
O108   O     0.53961   0.22679   0.25000   0.00000  Uiso   1.00
O109   O     0.44108   0.16665   0.32549   0.00000  Uiso   1.00
O110   O     0.52027   0.16666   0.32549   0.00000  Uiso   1.00
O111   O     0.46039   0.10654   0.24999   0.00000  Uiso   1.00
O112   O     0.53958   0.10655   0.24999   0.00000  Uiso   1.00
O113   O     0.47973   0.16667   0.17451   0.00000  Uiso   1.00
O114   O     0.55892   0.16668   0.17451   0.00000  Uiso   1.00
F115   F     0.62167   0.14018   0.09020   0.00000  Uiso   1.00
F116   F     0.42365   0.29315   0.22726   0.00000  Uiso   1.00
F117   F     0.36501   0.22296   0.30767   0.00000  Uiso   1.00
O118   O     0.63266   0.11167   0.18979   0.00000  Uiso   1.00
C119   C     0.65410   0.07209   0.18632   0.00000  Uiso   1.00
H120   H     0.63019   0.05006   0.17381   0.00000  Uiso   1.00
H121   H     0.65751   0.06123   0.22396   0.00000  Uiso   1.00
H122   H     0.35674   0.07141   0.15657   0.00000  Uiso   1.00
O123   O     0.64666   0.13637   0.48551   0.00000  Uiso   1.00
C124   C     0.64639   0.09352   0.47734   0.00000  Uiso   1.00
H125   H     0.62118   0.08513   0.45438   0.00000  Uiso   1.00
H126   H     0.63661   0.07663   0.01436   0.00000  Uiso   1.00
H127   H     0.35039   0.08353   0.45515   0.00000  Uiso   1.00
F128   F     0.37742   0.19121   0.40809   0.00000  Uiso   1.00
C129   C     0.83324   0.24599   0.24976   0.00000  Uiso   1.00
C130   C     0.81457   0.17770   0.48869   0.00000  Uiso   1.00
C131   C     0.83015   0.17854   0.43415   0.00000  Uiso   1.00
C132   C     0.85001   0.17017   0.01558   0.00000  Uiso   1.00
C133   C     0.89929   0.16158   0.48764   0.00000  Uiso   1.00
C134   C     0.91450   0.16829   0.43519   0.00000  Uiso   1.00
C135   C     0.88102   0.17967   0.40998   0.00000  Uiso   1.00
C136   C     0.83837   0.17121   0.06921   0.00000  Uiso   1.00
C137   C     0.92093   0.15061   0.06633   0.00000  Uiso   1.00
C138   C     0.79455   0.17897   0.40609   0.00000  Uiso   1.00
C139   C     0.87163   0.31185   0.26017   0.00000  Uiso   1.00
C140   C     0.80785   0.17058   0.34972   0.00000  Uiso   1.00
C141   C     0.87183   0.02109   0.26035   0.00000  Uiso   1.00
C142   C     0.83350   0.04284   0.24969   0.00000  Uiso   1.00
C143   C     0.79494   0.02179   0.23889   0.00000  Uiso   1.00
C144   C     0.79456   0.31257   0.23870   0.00000  Uiso   1.00
C145   C     0.83300   0.29066   0.24949   0.00000  Uiso   1.00
C146   C     0.96753   0.19529   0.27766   0.00000  Uiso   1.00
C147   C     0.68342   0.19479   0.27853   0.00000  Uiso   1.00
C148   C     0.69987   0.13897   0.22071   0.00000  Uiso   1.00
C149   C     0.98292   0.13816   0.22116   0.00000  Uiso   1.00
C150   C     0.83344   0.08740   0.24993   0.00000  Uiso   1.00
C151   C     0.85920   0.16544   0.15045   0.00000  Uiso   1.00
C152   C     0.93343   0.14880   0.01294   0.00000  Uiso   1.00
C153   C     0.87363   0.16277   0.09447   0.00000  Uiso   1.00
C154   C     0.74537   0.18684   0.43304   0.00000  Uiso   1.00
C155   C     0.73115   0.19093   0.48619   0.00000  Uiso   1.00
C156   C     0.76445   0.18460   0.01393   0.00000  Uiso   1.00
Cu157  Cu    0.78645   0.16666   0.25000   0.00000  Uiso   1.00
Cu158  Cu    0.88022   0.16667   0.25000   0.00000  Uiso   1.00
H159   H     0.90164   0.03692   0.26933   0.00000  Uiso   1.00
H160   H     0.76517   0.03820   0.23019   0.00000  Uiso   1.00
H161   H     0.94306   0.21894   0.29884   0.00000  Uiso   1.00
H162   H     0.72626   0.11793   0.19669   0.00000  Uiso   1.00
H163   H     0.95282   0.16670   0.41368   0.00000  Uiso   1.00
H164   H     0.80238   0.17989   0.09235   0.00000  Uiso   1.00
H165   H     0.74950   0.18563   0.05506   0.00000  Uiso   1.00
H166   H     0.69343   0.19790   0.00648   0.00000  Uiso   1.00
H167   H     0.89682   0.19128   0.37229   0.00000  Uiso   1.00
H168   H     0.90148   0.29559   0.26886   0.00000  Uiso   1.00
N169   N     0.71598   0.16666   0.24998   0.00000  Uiso   1.00
N170   N     0.95069   0.16669   0.25000   0.00000  Uiso   1.00
O171   O     0.79375   0.22678   0.25000   0.00000  Uiso   1.00
O172   O     0.87294   0.22679   0.25000   0.00000  Uiso   1.00
O173   O     0.77441   0.16665   0.32549   0.00000  Uiso   1.00
O174   O     0.85360   0.16666   0.32549   0.00000  Uiso   1.00
O175   O     0.79373   0.10654   0.24999   0.00000  Uiso   1.00
O176   O     0.87292   0.10655   0.24999   0.00000  Uiso   1.00
O177   O     0.81306   0.16667   0.17451   0.00000  Uiso   1.00
O178   O     0.89225   0.16668   0.17451   0.00000  Uiso   1.00
F179   F     0.95501   0.14018   0.09020   0.00000  Uiso   1.00
F180   F     0.75699   0.29315   0.22726   0.00000  Uiso   1.00
F181   F     0.69834   0.22296   0.30767   0.00000  Uiso   1.00
O182   O     0.96600   0.11167   0.18979   0.00000  Uiso   1.00
C183   C     0.98743   0.07209   0.18632   0.00000  Uiso   1.00
H184   H     0.96353   0.05006   0.17381   0.00000  Uiso   1.00
H185   H     0.99084   0.06123   0.22396   0.00000  Uiso   1.00
H186   H     0.69008   0.07141   0.15657   0.00000  Uiso   1.00
O187   O     0.97999   0.13637   0.48551   0.00000  Uiso   1.00
C188   C     0.97972   0.09352   0.47734   0.00000  Uiso   1.00
H189   H     0.95451   0.08513   0.45438   0.00000  Uiso   1.00
H190   H     0.96994   0.07663   0.01436   0.00000  Uiso   1.00
H191   H     0.68373   0.08353   0.45515   0.00000  Uiso   1.00
F192   F     0.71076   0.19121   0.40809   0.00000  Uiso   1.00
C193   C     0.16658   0.57932   0.24976   0.00000  Uiso   1.00
C194   C     0.14790   0.51104   0.48869   0.00000  Uiso   1.00
C195   C     0.16349   0.51187   0.43415   0.00000  Uiso   1.00
C196   C     0.18334   0.50350   0.01558   0.00000  Uiso   1.00
C197   C     0.23263   0.49491   0.48764   0.00000  Uiso   1.00
C198   C     0.24784   0.50162   0.43519   0.00000  Uiso   1.00
C199   C     0.21435   0.51301   0.40998   0.00000  Uiso   1.00
C200   C     0.17170   0.50454   0.06921   0.00000  Uiso   1.00
C201   C     0.25427   0.48394   0.06633   0.00000  Uiso   1.00
C202   C     0.12788   0.51230   0.40609   0.00000  Uiso   1.00
C203   C     0.20496   0.64519   0.26017   0.00000  Uiso   1.00
C204   C     0.14118   0.50392   0.34972   0.00000  Uiso   1.00
C205   C     0.20516   0.35443   0.26035   0.00000  Uiso   1.00
C206   C     0.16683   0.37617   0.24969   0.00000  Uiso   1.00
C207   C     0.12827   0.35512   0.23889   0.00000  Uiso   1.00
C208   C     0.12789   0.64590   0.23870   0.00000  Uiso   1.00
C209   C     0.16634   0.62400   0.24949   0.00000  Uiso   1.00
C210   C     0.30086   0.52862   0.27766   0.00000  Uiso   1.00
C211   C     0.01675   0.52812   0.27853   0.00000  Uiso   1.00
C212   C     0.03321   0.47230   0.22071   0.00000  Uiso   1.00
C213   C     0.31626   0.47149   0.22116   0.00000  Uiso   1.00
C214   C     0.16677   0.42073   0.24993   0.00000  Uiso   1.00
C215   C     0.19253   0.49877   0.15045   0.00000  Uiso   1.00
C216   C     0.26677   0.48213   0.01294   0.00000  Uiso   1.00
C217   C     0.20697   0.49610   0.09447   0.00000  Uiso   1.00
C218   C     0.07870   0.52017   0.43304   0.00000  Uiso   1.00
C219   C     0.06448   0.52426   0.48619   0.00000  Uiso   1.00
C220   C     0.09779   0.51794   0.01393   0.00000  Uiso   1.00
Cu221  Cu    0.11978   0.49999   0.25000   0.00000  Uiso   1.00
Cu222  Cu    0.21355   0.50001   0.25000   0.00000  Uiso   1.00
H223   H     0.23497   0.37025   0.26933   0.00000  Uiso   1.00
H224   H     0.09851   0.37153   0.23019   0.00000  Uiso   1.00
H225   H     0.27640   0.55227   0.29884   0.00000  Uiso   1.00
H226   H     0.05959   0.45126   0.19669   0.00000  Uiso   1.00
H227   H     0.28615   0.50004   0.41368   0.00000  Uiso   1.00
H228   H     0.13571   0.51322   0.09235   0.00000  Uiso   1.00
H229   H     0.08284   0.51896   0.05506   0.00000  Uiso   1.00
H230   H     0.02676   0.53123   0.00648   0.00000  Uiso   1.00
H231   H     0.23016   0.52461   0.37229   0.00000  Uiso   1.00
H232   H     0.23482   0.62893   0.26886   0.00000  Uiso   1.00
N233   N     0.04931   0.49999   0.24998   0.00000  Uiso   1.00
N234   N     0.28402   0.50002   0.25000   0.00000  Uiso   1.00
O235   O     0.12708   0.56011   0.25000   0.00000  Uiso   1.00
O236   O     0.20627   0.56012   0.25000   0.00000  Uiso   1.00
O237   O     0.10775   0.49998   0.32549   0.00000  Uiso   1.00
O238   O     0.18694   0.49999   0.32549   0.00000  Uiso   1.00
O239   O     0.12706   0.43988   0.24999   0.00000  Uiso   1.00
O240   O     0.20625   0.43989   0.24999   0.00000  Uiso   1.00
O241   O     0.14640   0.50001   0.17451   0.00000  Uiso   1.00
O242   O     0.22559   0.50002   0.17451   0.00000  Uiso   1.00
F243   F     0.28834   0.47351   0.09020   0.00000  Uiso   1.00
F244   F     0.09032   0.62648   0.22726   0.00000  Uiso   1.00
F245   F     0.03167   0.55629   0.30767   0.00000  Uiso   1.00
O246   O     0.29933   0.44500   0.18979   0.00000  Uiso   1.00
C247   C     0.32077   0.40542   0.18632   0.00000  Uiso   1.00
H248   H     0.29686   0.38339   0.17381   0.00000  Uiso   1.00
H249   H     0.32418   0.39457   0.22396   0.00000  Uiso   1.00
H250   H     0.02341   0.40475   0.15657   0.00000  Uiso   1.00
O251   O     0.31332   0.46970   0.48551   0.00000  Uiso   1.00
C252   C     0.31306   0.42685   0.47734   0.00000  Uiso   1.00
H253   H     0.28785   0.41846   0.45438   0.00000  Uiso   1.00
H254   H     0.30327   0.40996   0.01436   0.00000  Uiso   1.00
H255   H     0.01706   0.41686   0.45515   0.00000  Uiso   1.00
F256   F     0.04409   0.52454   0.40809   0.00000  Uiso   1.00
C257   C     0.49991   0.57932   0.24976   0.00000  Uiso   1.00
C258   C     0.48124   0.51104   0.48869   0.00000  Uiso   1.00
C259   C     0.49682   0.51187   0.43415   0.00000  Uiso   1.00
C260   C     0.51668   0.50350   0.01558   0.00000  Uiso   1.00
C261   C     0.56596   0.49491   0.48764   0.00000  Uiso   1.00
C262   C     0.58117   0.50162   0.43519   0.00000  Uiso   1.00
C263   C     0.54768   0.51301   0.40998   0.00000  Uiso   1.00
C264   C     0.50504   0.50454   0.06921   0.00000  Uiso   1.00
C265   C     0.58760   0.48394   0.06633   0.00000  Uiso   1.00
C266   C     0.46121   0.51230   0.40609   0.00000  Uiso   1.00
C267   C     0.53830   0.64519   0.26017   0.00000  Uiso   1.00
C268   C     0.47452   0.50392   0.34972   0.00000  Uiso   1.00
C269   C     0.53849   0.35443   0.26035   0.00000  Uiso   1.00
C270   C     0.50017   0.37617   0.24969   0.00000  Uiso   1.00
C271   C     0.46160   0.35512   0.23889   0.00000  Uiso   1.00
C272   C     0.46122   0.64590   0.23870   0.00000  Uiso   1.00
C273   C     0.49967   0.62400   0.24949   0.00000  Uiso   1.00
C274   C     0.63420   0.52862   0.27766   0.00000  Uiso   1.00
C275   C     0.35008   0.52812   0.27853   0.00000  Uiso   1.00
C276   C     0.36654   0.47230   0.22071   0.00000  Uiso   1.00
C277   C     0.64959   0.47149   0.22116   0.00000  Uiso   1.00
C278   C     0.50011   0.42073   0.24993   0.00000  Uiso   1.00
C279   C     0.52586   0.49877   0.15045   0.00000  Uiso   1.00
C280   C     0.60010   0.48213   0.01294   0.00000  Uiso   1.00
C281   C     0.54030   0.49610   0.09447   0.00000  Uiso   1.00
C282   C     0.41203   0.52017   0.43304   0.00000  Uiso   1.00
C283   C     0.39782   0.52426   0.48619   0.00000  Uiso   1.00
C284   C     0.43112   0.51794   0.01393   0.00000  Uiso   1.00
Cu285  Cu    0.45311   0.49999   0.25000   0.00000  Uiso   1.00
Cu286  Cu    0.54689   0.50001   0.25000   0.00000  Uiso   1.00
H287   H     0.56831   0.37025   0.26933   0.00000  Uiso   1.00
H288   H     0.43184   0.37153   0.23019   0.00000  Uiso   1.00
H289   H     0.60973   0.55227   0.29884   0.00000  Uiso   1.00
H290   H     0.39292   0.45126   0.19669   0.00000  Uiso   1.00
H291   H     0.61948   0.50004   0.41368   0.00000  Uiso   1.00
H292   H     0.46905   0.51322   0.09235   0.00000  Uiso   1.00
H293   H     0.41617   0.51896   0.05506   0.00000  Uiso   1.00
H294   H     0.36009   0.53123   0.00648   0.00000  Uiso   1.00
H295   H     0.56349   0.52461   0.37229   0.00000  Uiso   1.00
H296   H     0.56815   0.62893   0.26886   0.00000  Uiso   1.00
N297   N     0.38265   0.49999   0.24998   0.00000  Uiso   1.00
N298   N     0.61735   0.50002   0.25000   0.00000  Uiso   1.00
O299   O     0.46042   0.56011   0.25000   0.00000  Uiso   1.00
O300   O     0.53961   0.56012   0.25000   0.00000  Uiso   1.00
O301   O     0.44108   0.49998   0.32549   0.00000  Uiso   1.00
O302   O     0.52027   0.49999   0.32549   0.00000  Uiso   1.00
O303   O     0.46039   0.43988   0.24999   0.00000  Uiso   1.00
O304   O     0.53958   0.43989   0.24999   0.00000  Uiso   1.00
O305   O     0.47973   0.50001   0.17451   0.00000  Uiso   1.00
O306   O     0.55892   0.50002   0.17451   0.00000  Uiso   1.00
F307   F     0.62167   0.47351   0.09020   0.00000  Uiso   1.00
F308   F     0.42365   0.62648   0.22726   0.00000  Uiso   1.00
F309   F     0.36501   0.55629   0.30767   0.00000  Uiso   1.00
O310   O     0.63266   0.44500   0.18979   0.00000  Uiso   1.00
C311   C     0.65410   0.40542   0.18632   0.00000  Uiso   1.00
H312   H     0.63019   0.38339   0.17381   0.00000  Uiso   1.00
H313   H     0.65751   0.39457   0.22396   0.00000  Uiso   1.00
H314   H     0.35674   0.40475   0.15657   0.00000  Uiso   1.00
O315   O     0.64666   0.46970   0.48551   0.00000  Uiso   1.00
C316   C     0.64639   0.42685   0.47734   0.00000  Uiso   1.00
H317   H     0.62118   0.41846   0.45438   0.00000  Uiso   1.00
H318   H     0.63661   0.40996   0.01436   0.00000  Uiso   1.00
H319   H     0.35039   0.41686   0.45515   0.00000  Uiso   1.00
F320   F     0.37742   0.52454   0.40809   0.00000  Uiso   1.00
C321   C     0.83324   0.57932   0.24976   0.00000  Uiso   1.00
C322   C     0.81457   0.51104   0.48869   0.00000  Uiso   1.00
C323   C     0.83015   0.51187   0.43415   0.00000  Uiso   1.00
C324   C     0.85001   0.50350   0.01558   0.00000  Uiso   1.00
C325   C     0.89929   0.49491   0.48764   0.00000  Uiso   1.00
C326   C     0.91450   0.50162   0.43519   0.00000  Uiso   1.00
C327   C     0.88102   0.51301   0.40998   0.00000  Uiso   1.00
C328   C     0.83837   0.50454   0.06921   0.00000  Uiso   1.00
C329   C     0.92093   0.48394   0.06633   0.00000  Uiso   1.00
C330   C     0.79455   0.51230   0.40609   0.00000  Uiso   1.00
C331   C     0.87163   0.64519   0.26017   0.00000  Uiso   1.00
C332   C     0.80785   0.50392   0.34972   0.00000  Uiso   1.00
C333   C     0.87183   0.35443   0.26035   0.00000  Uiso   1.00
C334   C     0.83350   0.37617   0.24969   0.00000  Uiso   1.00
C335   C     0.79494   0.35512   0.23889   0.00000  Uiso   1.00
C336   C     0.79456   0.64590   0.23870   0.00000  Uiso   1.00
C337   C     0.83300   0.62400   0.24949   0.00000  Uiso   1.00
C338   C     0.96753   0.52862   0.27766   0.00000  Uiso   1.00
C339   C     0.68342   0.52812   0.27853   0.00000  Uiso   1.00
C340   C     0.69987   0.47230   0.22071   0.00000  Uiso   1.00
C341   C     0.98292   0.47149   0.22116   0.00000  Uiso   1.00
C342   C     0.83344   0.42073   0.24993   0.00000  Uiso   1.00
C343   C     0.85920   0.49877   0.15045   0.00000  Uiso   1.00
C344   C     0.93343   0.48213   0.01294   0.00000  Uiso   1.00
C345   C     0.87363   0.49610   0.09447   0.00000  Uiso   1.00
C346   C     0.74537   0.52017   0.43304   0.00000  Uiso   1.00
C347   C     0.73115   0.52426   0.48619   0.00000  Uiso   1.00
C348   C     0.76445   0.51794   0.01393   0.00000  Uiso   1.00
Cu349  Cu    0.78645   0.49999   0.25000   0.00000  Uiso   1.00
Cu350  Cu    0.88022   0.50001   0.25000   0.00000  Uiso   1.00
H351   H     0.90164   0.37025   0.26933   0.00000  Uiso   1.00
H352   H     0.76517   0.37153   0.23019   0.00000  Uiso   1.00
H353   H     0.94306   0.55227   0.29884   0.00000  Uiso   1.00
H354   H     0.72626   0.45126   0.19669   0.00000  Uiso   1.00
H355   H     0.95282   0.50004   0.41368   0.00000  Uiso   1.00
H356   H     0.80238   0.51322   0.09235   0.00000  Uiso   1.00
H357   H     0.74950   0.51896   0.05506   0.00000  Uiso   1.00
H358   H     0.69343   0.53123   0.00648   0.00000  Uiso   1.00
H359   H     0.89682   0.52461   0.37229   0.00000  Uiso   1.00
H360   H     0.90148   0.62893   0.26886   0.00000  Uiso   1.00
N361   N     0.71598   0.49999   0.24998   0.00000  Uiso   1.00
N362   N     0.95069   0.50002   0.25000   0.00000  Uiso   1.00
O363   O     0.79375   0.56011   0.25000   0.00000  Uiso   1.00
O364   O     0.87294   0.56012   0.25000   0.00000  Uiso   1.00
O365   O     0.77441   0.49998   0.32549   0.00000  Uiso   1.00
O366   O     0.85360   0.49999   0.32549   0.00000  Uiso   1.00
O367   O     0.79373   0.43988   0.24999   0.00000  Uiso   1.00
O368   O     0.87292   0.43989   0.24999   0.00000  Uiso   1.00
O369   O     0.81306   0.50001   0.17451   0.00000  Uiso   1.00
O370   O     0.89225   0.50002   0.17451   0.00000  Uiso   1.00
F371   F     0.95501   0.47351   0.09020   0.00000  Uiso   1.00
F372   F     0.75699   0.62648   0.22726   0.00000  Uiso   1.00
F373   F     0.69834   0.55629   0.30767   0.00000  Uiso   1.00
O374   O     0.96600   0.44500   0.18979   0.00000  Uiso   1.00
C375   C     0.98743   0.40542   0.18632   0.00000  Uiso   1.00
H376   H     0.96353   0.38339   0.17381   0.00000  Uiso   1.00
H377   H     0.99084   0.39457   0.22396   0.00000  Uiso   1.00
H378   H     0.69008   0.40475   0.15657   0.00000  Uiso   1.00
O379   O     0.97999   0.46970   0.48551   0.00000  Uiso   1.00
C380   C     0.97972   0.42685   0.47734   0.00000  Uiso   1.00
H381   H     0.95451   0.41846   0.45438   0.00000  Uiso   1.00
H382   H     0.96994   0.40996   0.01436   0.00000  Uiso   1.00
H383   H     0.68373   0.41686   0.45515   0.00000  Uiso   1.00
F384   F     0.71076   0.52454   0.40809   0.00000  Uiso   1.00
C385   C     0.16658   0.91266   0.24976   0.00000  Uiso   1.00
C386   C     0.14790   0.84437   0.48869   0.00000  Uiso   1.00
C387   C     0.16349   0.84521   0.43415   0.00000  Uiso   1.00
C388   C     0.18334   0.83683   0.01558   0.00000  Uiso   1.00
C389   C     0.23263   0.82825   0.48764   0.00000  Uiso   1.00
C390   C     0.24784   0.83495   0.43519   0.00000  Uiso   1.00
C391   C     0.21435   0.84634   0.40998   0.00000  Uiso   1.00
C392   C     0.17170   0.83787   0.06921   0.00000  Uiso   1.00
C393   C     0.25427   0.81727   0.06633   0.00000  Uiso   1.00
C394   C     0.12788   0.84563   0.40609   0.00000  Uiso   1.00
C395   C     0.20496   0.97852   0.26017   0.00000  Uiso   1.00
C396   C     0.14118   0.83725   0.34972   0.00000  Uiso   1.00
C397   C     0.20516   0.68776   0.26035   0.00000  Uiso   1.00
C398   C     0.16683   0.70951   0.24969   0.00000  Uiso   1.00
C399   C     0.12827   0.68846   0.23889   0.00000  Uiso   1.00
C400   C     0.12789   0.97923   0.23870   0.00000  Uiso   1.00
C401   C     0.16634   0.95733   0.24949   0.00000  Uiso   1.00
C402   C     0.30086   0.86195   0.27766   0.00000  Uiso   1.00
C403   C     0.01675   0.86145   0.27853   0.00000  Uiso   1.00
C404   C     0.03321   0.80563   0.22071   0.00000  Uiso   1.00
C405   C     0.31626   0.80482   0.22116   0.00000  Uiso   1.00
C406   C     0.16677   0.75406   0.24993   0.00000  Uiso   1.00
C407   C     0.19253   0.83211   0.15045   0.00000  Uiso   1.00
C408   C     0.26677   0.81546   0.01294   0.00000  Uiso   1.00
C409   C     0.20697   0.82944   0.09447   0.00000  Uiso   1.00
C410   C     0.07870   0.85351   0.43304   0.00000  Uiso   1.00
C411   C     0.06448   0.85760   0.48619   0.00000  Uiso   1.00
C412   C     0.09779   0.85127   0.01393   0.00000  Uiso   1.00
Cu413  Cu    0.11978   0.83333   0.25000   0.00000  Uiso   1.00
Cu414  Cu    0.21355   0.83334   0.25000   0.00000  Uiso   1.00
H415   H     0.23497   0.70359   0.26933   0.00000  Uiso   1.00
H416   H     0.09851   0.70486   0.23019   0.00000  Uiso   1.00
H417   H     0.27640   0.88560   0.29884   0.00000  Uiso   1.00
H418   H     0.05959   0.78460   0.19669   0.00000  Uiso   1.00
H419   H     0.28615   0.83337   0.41368   0.00000  Uiso   1.00
H420   H     0.13571   0.84655   0.09235   0.00000  Uiso   1.00
H421   H     0.08284   0.85229   0.05506   0.00000  Uiso   1.00
H422   H     0.02676   0.86457   0.00648   0.00000  Uiso   1.00
H423   H     0.23016   0.85795   0.37229   0.00000  Uiso   1.00
H424   H     0.23482   0.96226   0.26886   0.00000  Uiso   1.00
N425   N     0.04931   0.83332   0.24998   0.00000  Uiso   1.00
N426   N     0.28402   0.83335   0.25000   0.00000  Uiso   1.00
O427   O     0.12708   0.89345   0.25000   0.00000  Uiso   1.00
O428   O     0.20627   0.89346   0.25000   0.00000  Uiso   1.00
O429   O     0.10775   0.83332   0.32549   0.00000  Uiso   1.00
O430   O     0.18694   0.83333   0.32549   0.00000  Uiso   1.00
O431   O     0.12706   0.77321   0.24999   0.00000  Uiso   1.00
O432   O     0.20625   0.77322   0.24999   0.00000  Uiso   1.00
O433   O     0.14640   0.83334   0.17451   0.00000  Uiso   1.00
O434   O     0.22559   0.83335   0.17451   0.00000  Uiso   1.00
F435   F     0.28834   0.80685   0.09020   0.00000  Uiso   1.00
F436   F     0.09032   0.95981   0.22726   0.00000  Uiso   1.00
F437   F     0.03167   0.88962   0.30767   0.00000  Uiso   1.00
O438   O     0.29933   0.77833   0.18979   0.00000  Uiso   1.00
C439   C     0.32077   0.73876   0.18632   0.00000  Uiso   1.00
H440   H     0.29686   0.71673   0.17381   0.00000  Uiso   1.00
H441   H     0.32418   0.72790   0.22396   0.00000  Uiso   1.00
H442   H     0.02341   0.73808   0.15657   0.00000  Uiso   1.00
O443   O     0.31332   0.80303   0.48551   0.00000  Uiso   1.00
C444   C     0.31306   0.76019   0.47734   0.00000  Uiso   1.00
H445   H     0.28785   0.75179   0.45438   0.00000  Uiso   1.00
H446   H     0.30327   0.74330   0.01436   0.00000  Uiso   1.00
H447   H     0.01706   0.75020   0.45515   0.00000  Uiso   1.00
F448   F     0.04409   0.85788   0.40809   0.00000  Uiso   1.00
C449   C     0.49991   0.91266   0.24976   0.00000  Uiso   1.00
C450   C     0.48124   0.84437   0.48869   0.00000  Uiso   1.00
C451   C     0.49682   0.84521   0.43415   0.00000  Uiso   1.00
C452   C     0.51668   0.83683   0.01558   0.00000  Uiso   1.00
C453   C     0.56596   0.82825   0.48764   0.00000  Uiso   1.00
C454   C     0.58117   0.83495   0.43519   0.00000  Uiso   1.00
C455   C     0.54768   0.84634   0.40998   0.00000  Uiso   1.00
C456   C     0.50504   0.83787   0.06921   0.00000  Uiso   1.00
C457   C     0.58760   0.81727   0.06633   0.00000  Uiso   1.00
C458   C     0.46121   0.84563   0.40609   0.00000  Uiso   1.00
C459   C     0.53830   0.97852   0.26017   0.00000  Uiso   1.00
C460   C     0.47452   0.83725   0.34972   0.00000  Uiso   1.00
C461   C     0.53849   0.68776   0.26035   0.00000  Uiso   1.00
C462   C     0.50017   0.70951   0.24969   0.00000  Uiso   1.00
C463   C     0.46160   0.68846   0.23889   0.00000  Uiso   1.00
C464   C     0.46122   0.97923   0.23870   0.00000  Uiso   1.00
C465   C     0.49967   0.95733   0.24949   0.00000  Uiso   1.00
C466   C     0.63420   0.86195   0.27766   0.00000  Uiso   1.00
C467   C     0.35008   0.86145   0.27853   0.00000  Uiso   1.00
C468   C     0.36654   0.80563   0.22071   0.00000  Uiso   1.00
C469   C     0.64959   0.80482   0.22116   0.00000  Uiso   1.00
C470   C     0.50011   0.75406   0.24993   0.00000  Uiso   1.00
C471   C     0.52586   0.83211   0.15045   0.00000  Uiso   1.00
C472   C     0.60010   0.81546   0.01294   0.00000  Uiso   1.00
C473   C     0.54030   0.82944   0.09447   0.00000  Uiso   1.00
C474   C     0.41203   0.85351   0.43304   0.00000  Uiso   1.00
C475   C     0.39782   0.85760   0.48619   0.00000  Uiso   1.00
C476   C     0.43112   0.85127   0.01393   0.00000  Uiso   1.00
Cu477  Cu    0.45311   0.83333   0.25000   0.00000  Uiso   1.00
Cu478  Cu    0.54689   0.83334   0.25000   0.00000  Uiso   1.00
H479   H     0.56831   0.70359   0.26933   0.00000  Uiso   1.00
H480   H     0.43184   0.70486   0.23019   0.00000  Uiso   1.00
H481   H     0.60973   0.88560   0.29884   0.00000  Uiso   1.00
H482   H     0.39292   0.78460   0.19669   0.00000  Uiso   1.00
H483   H     0.61948   0.83337   0.41368   0.00000  Uiso   1.00
H484   H     0.46905   0.84655   0.09235   0.00000  Uiso   1.00
H485   H     0.41617   0.85229   0.05506   0.00000  Uiso   1.00
H486   H     0.36009   0.86457   0.00648   0.00000  Uiso   1.00
H487   H     0.56349   0.85795   0.37229   0.00000  Uiso   1.00
H488   H     0.56815   0.96226   0.26886   0.00000  Uiso   1.00
N489   N     0.38265   0.83332   0.24998   0.00000  Uiso   1.00
N490   N     0.61735   0.83335   0.25000   0.00000  Uiso   1.00
O491   O     0.46042   0.89345   0.25000   0.00000  Uiso   1.00
O492   O     0.53961   0.89346   0.25000   0.00000  Uiso   1.00
O493   O     0.44108   0.83332   0.32549   0.00000  Uiso   1.00
O494   O     0.52027   0.83333   0.32549   0.00000  Uiso   1.00
O495   O     0.46039   0.77321   0.24999   0.00000  Uiso   1.00
O496   O     0.53958   0.77322   0.24999   0.00000  Uiso   1.00
O497   O     0.47973   0.83334   0.17451   0.00000  Uiso   1.00
O498   O     0.55892   0.83335   0.17451   0.00000  Uiso   1.00
F499   F     0.62167   0.80685   0.09020   0.00000  Uiso   1.00
F500   F     0.42365   0.95981   0.22726   0.00000  Uiso   1.00
F501   F     0.36501   0.88962   0.30767   0.00000  Uiso   1.00
O502   O     0.63266   0.77833   0.18979   0.00000  Uiso   1.00
C503   C     0.65410   0.73876   0.18632   0.00000  Uiso   1.00
H504   H     0.63019   0.71673   0.17381   0.00000  Uiso   1.00
H505   H     0.65751   0.72790   0.22396   0.00000  Uiso   1.00
H506   H     0.35674   0.73808   0.15657   0.00000  Uiso   1.00
O507   O     0.64666   0.80303   0.48551   0.00000  Uiso   1.00
C508   C     0.64639   0.76019   0.47734   0.00000  Uiso   1.00
H509   H     0.62118   0.75179   0.45438   0.00000  Uiso   1.00
H510   H     0.63661   0.74330   0.01436   0.00000  Uiso   1.00
H511   H     0.35039   0.75020   0.45515   0.00000  Uiso   1.00
F512   F     0.37742   0.85788   0.40809   0.00000  Uiso   1.00
C513   C     0.83324   0.91266   0.24976   0.00000  Uiso   1.00
C514   C     0.81457   0.84437   0.48869   0.00000  Uiso   1.00
C515   C     0.83015   0.84521   0.43415   0.00000  Uiso   1.00
C516   C     0.85001   0.83683   0.01558   0.00000  Uiso   1.00
C517   C     0.89929   0.82825   0.48764   0.00000  Uiso   1.00
C518   C     0.91450   0.83495   0.43519   0.00000  Uiso   1.00
C519   C     0.88102   0.84634   0.40998   0.00000  Uiso   1.00
C520   C     0.83837   0.83787   0.06921   0.00000  Uiso   1.00
C521   C     0.92093   0.81727   0.06633   0.00000  Uiso   1.00
C522   C     0.79455   0.84563   0.40609   0.00000  Uiso   1.00
C523   C     0.87163   0.97852   0.26017   0.00000  Uiso   1.00
C524   C     0.80785   0.83725   0.34972   0.00000  Uiso   1.00
C525   C     0.87183   0.68776   0.26035   0.00000  Uiso   1.00
C526   C     0.83350   0.70951   0.24969   0.00000  Uiso   1.00
C527   C     0.79494   0.68846   0.23889   0.00000  Uiso   1.00
C528   C     0.79456   0.97923   0.23870   0.00000  Uiso   1.00
C529   C     0.83300   0.95733   0.24949   0.00000  Uiso   1.00
C530   C     0.96753   0.86195   0.27766   0.00000  Uiso   1.00
C531   C     0.68342   0.86145   0.27853   0.00000  Uiso   1.00
C532   C     0.69987   0.80563   0.22071   0.00000  Uiso   1.00
C533   C     0.98292   0.80482   0.22116   0.00000  Uiso   1.00
C534   C     0.83344   0.75406   0.24993   0.00000  Uiso   1.00
C535   C     0.85920   0.83211   0.15045   0.00000  Uiso   1.00
C536   C     0.93343   0.81546   0.01294   0.00000  Uiso   1.00
C537   C     0.87363   0.82944   0.09447   0.00000  Uiso   1.00
C538   C     0.74537   0.85351   0.43304   0.00000  Uiso   1.00
C539   C     0.73115   0.85760   0.48619   0.00000  Uiso   1.00
C540   C     0.76445   0.85127   0.01393   0.00000  Uiso   1.00
Cu541  Cu    0.78645   0.83333   0.25000   0.00000  Uiso   1.00
Cu542  Cu    0.88022   0.83334   0.25000   0.00000  Uiso   1.00
H543   H     0.90164   0.70359   0.26933   0.00000  Uiso   1.00
H544   H     0.76517   0.70486   0.23019   0.00000  Uiso   1.00
H545   H     0.94306   0.88560   0.29884   0.00000  Uiso   1.00
H546   H     0.72626   0.78460   0.19669   0.00000  Uiso   1.00
H547   H     0.95282   0.83337   0.41368   0.00000  Uiso   1.00
H548   H     0.80238   0.84655   0.09235   0.00000  Uiso   1.00
H549   H     0.74950   0.85229   0.05506   0.00000  Uiso   1.00
H550   H     0.69343   0.86457   0.00648   0.00000  Uiso   1.00
H551   H     0.89682   0.85795   0.37229   0.00000  Uiso   1.00
H552   H     0.90148   0.96226   0.26886   0.00000  Uiso   1.00
N553   N     0.71598   0.83332   0.24998   0.00000  Uiso   1.00
N554   N     0.95069   0.83335   0.25000   0.00000  Uiso   1.00
O555   O     0.79375   0.89345   0.25000   0.00000  Uiso   1.00
O556   O     0.87294   0.89346   0.25000   0.00000  Uiso   1.00
O557   O     0.77441   0.83332   0.32549   0.00000  Uiso   1.00
O558   O     0.85360   0.83333   0.32549   0.00000  Uiso   1.00
O559   O     0.79373   0.77321   0.24999   0.00000  Uiso   1.00
O560   O     0.87292   0.77322   0.24999   0.00000  Uiso   1.00
O561   O     0.81306   0.83334   0.17451   0.00000  Uiso   1.00
O562   O     0.89225   0.83335   0.17451   0.00000  Uiso   1.00
F563   F     0.95501   0.80685   0.09020   0.00000  Uiso   1.00
F564   F     0.75699   0.95981   0.22726   0.00000  Uiso   1.00
F565   F     0.69834   0.88962   0.30767   0.00000  Uiso   1.00
O566   O     0.96600   0.77833   0.18979   0.00000  Uiso   1.00
C567   C     0.98743   0.73876   0.18632   0.00000  Uiso   1.00
H568   H     0.96353   0.71673   0.17381   0.00000  Uiso   1.00
H569   H     0.99084   0.72790   0.22396   0.00000  Uiso   1.00
H570   H     0.69008   0.73808   0.15657   0.00000  Uiso   1.00
O571   O     0.97999   0.80303   0.48551   0.00000  Uiso   1.00
C572   C     0.97972   0.76019   0.47734   0.00000  Uiso   1.00
H573   H     0.95451   0.75179   0.45438   0.00000  Uiso   1.00
H574   H     0.96994   0.74330   0.01436   0.00000  Uiso   1.00
H575   H     0.68373   0.75020   0.45515   0.00000  Uiso   1.00
F576   F     0.71076   0.85788   0.40809   0.00000  Uiso   1.00
C577   C     0.16658   0.24599   0.74976   0.00000  Uiso   1.00
C578   C     0.14790   0.17770   0.98869   0.00000  Uiso   1.00
C579   C     0.16349   0.17854   0.93415   0.00000  Uiso   1.00
C580   C     0.18334   0.17017   0.51558   0.00000  Uiso   1.00
C581   C     0.23263   0.16158   0.98764   0.00000  Uiso   1.00
C582   C     0.24784   0.16829   0.93519   0.00000  Uiso   1.00
C583   C     0.21435   0.17967   0.90998   0.00000  Uiso   1.00
C584   C     0.17170   0.17121   0.56921   0.00000  Uiso   1.00
C585   C     0.25427   0.15061   0.56633   0.00000  Uiso   1.00
C586   C     0.12788   0.17897   0.90609   0.00000  Uiso   1.00
C587   C     0.20496   0.31185   0.76017   0.00000  Uiso   1.00
C588   C     0.14118   0.17058   0.84972   0.00000  Uiso   1.00
C589   C     0.20516   0.02109   0.76035   0.00000  Uiso   1.00
C590   C     0.16683   0.04284   0.74969   0.00000  Uiso   1.00
C591   C     0.12827   0.02179   0.73889   0.00000  Uiso   1.00
C592   C     0.12789   0.31257   0.73870   0.00000  Uiso   1.00
C593   C     0.16634   0.29066   0.74949   0.00000  Uiso   1.00
C594   C     0.30086   0.19529   0.77766   0.00000  Uiso   1.00
C595   C     0.01675   0.19479   0.77853   0.00000  Uiso   1.00
C596   C     0.03321   0.13897   0.72071   0.00000  Uiso   1.00
C597   C     0.31626   0.13816   0.72116   0.00000  Uiso   1.00
C598   C     0.16677   0.08740   0.74993   0.00000  Uiso   1.00
C599   C     0.19253   0.16544   0.65045   0.00000  Uiso   1.00
C600   C     0.26677   0.14880   0.51294   0.00000  Uiso   1.00
C601   C     0.20697   0.16277   0.59447   0.00000  Uiso   1.00
C602   C     0.07870   0.18684   0.93304   0.00000  Uiso   1.00
C603   C     0.06448   0.19093   0.98619   0.00000  Uiso   1.00
C604   C     0.09779   0.18460   0.51393   0.00000  Uiso   1.00
Cu605  Cu    0.11978   0.16666   0.75000   0.00000  Uiso   1.00
Cu606  Cu    0.21355   0.16667   0.75000   0.00000  Uiso   1.00
H607   H     0.23497   0.03692   0.76933   0.00000  Uiso   1.00
H608   H     0.09851   0.03820   0.73019   0.00000  Uiso   1.00
H609   H     0.27640   0.21894   0.79884   0.00000  Uiso   1.00
H610   H     0.05959   0.11793   0.69669   0.00000  Uiso   1.00
H611   H     0.28615   0.16670   0.91368   0.00000  Uiso   1.00
H612   H     0.13571   0.17989   0.59235   0.00000  Uiso   1.00
H613   H     0.08284   0.18563   0.55506   0.00000  Uiso   1.00
H614   H     0.02676   0.19790   0.50648   0.00000  Uiso   1.00
H615   H     0.23016   0.19128   0.87229   0.00000  Uiso   1.00
H616   H     0.23482   0.29559   0.76886   0.00000  Uiso   1.00
N617   N     0.04931   0.16666   0.74998   0.00000  Uiso   1.00
N618   N     0.28402   0.16669   0.75000   0.00000  Uiso   1.00
O619   O     0.12708   0.22678   0.75000   0.00000  Uiso   1.00
O620   O     0.20627   0.22679   0.75000   0.00000  Uiso   1.00
O621   O     0.10775   0.16665   0.82549   0.00000  Uiso   1.00
O622   O     0.18694   0.16666   0.82549   0.00000  Uiso   1.00
O623   O     0.12706   0.10654   0.74999   0.00000  Uiso   1.00
O624   O     0.20625   0.10655   0.74999   0.00000  Uiso   1.00
O625   O     0.14640   0.16667   0.67451   0.00000  Uiso   1.00
O626   O     0.22559   0.16668   0.67451   0.00000  Uiso   1.00
F627   F     0.28834   0.14018   0.59020   0.00000  Uiso   1.00
F628   F     0.09032   0.29315   0.72726   0.00000  Uiso   1.00
F629   F     0.03167   0.22296   0.80767   0.00000  Uiso   1.00
O630   O     0.29933   0.11167   0.68979   0.00000  Uiso   1.00
C631   C     0.32077   0.07209   0.68632   0.00000  Uiso   1.00
H632   H     0.29686   0.05006   0.67381   0.00000  Uiso   1.00
H633   H     0.32418   0.06123   0.72396   0.00000  Uiso   1.00
H634   H     0.02341   0.07141   0.65657   0.00000  Uiso   1.00
O635   O     0.31332   0.13637   0.98551   0.00000  Uiso   1.00
C636   C     0.31306   0.09352   0.97734   0.00000  Uiso   1.00
H637   H     0.28785   0.08513   0.95438   0.00000  Uiso   1.00
H638   H     0.30327   0.07663   0.51436   0.00000  Uiso   1.00
H639   H     0.01706   0.08353   0.95515   0.00000  Uiso   1.00
F640   F     0.04409   0.19121   0.90809   0.00000  Uiso   1.00
C641   C     0.49991   0.24599   0.74976   0.00000  Uiso   1.00
C642   C     0.48124   0.17770   0.98869   0.00000  Uiso   1.00
C643   C     0.49682   0.17854   0.93415   0.00000  Uiso   1.00
C644   C     0.51668   0.17017   0.51558   0.00000  Uiso   1.00
C645   C     0.56596   0.16158   0.98764   0.00000  Uiso   1.00
C646   C     0.58117   0.16829   0.93519   0.00000  Uiso   1.00
C647   C     0.54768   0.17967   0.90998   0.00000  Uiso   1.00
C648   C     0.50504   0.17121   0.56921   0.00000  Uiso   1.00
C649   C     0.58760   0.15061   0.56633   0.00000  Uiso   1.00
C650   C     0.46121   0.17897   0.90609   0.00000  Uiso   1.00
C651   C     0.53830   0.31185   0.76017   0.00000  Uiso   1.00
C652   C     0.47452   0.17058   0.84972   0.00000  Uiso   1.00
C653   C     0.53849   0.02109   0.76035   0.00000  Uiso   1.00
C654   C     0.50017   0.04284   0.74969   0.00000  Uiso   1.00
C655   C     0.46160   0.02179   0.73889   0.00000  Uiso   1.00
C656   C     0.46122   0.31257   0.73870   0.00000  Uiso   1.00
C657   C     0.49967   0.29066   0.74949   0.00000  Uiso   1.00
C658   C     0.63420   0.19529   0.77766   0.00000  Uiso   1.00
C659   C     0.35008   0.19479   0.77853   0.00000  Uiso   1.00
C660   C     0.36654   0.13897   0.72071   0.00000  Uiso   1.00
C661   C     0.64959   0.13816   0.72116   0.00000  Uiso   1.00
C662   C     0.50011   0.08740   0.74993   0.00000  Uiso   1.00
C663   C     0.52586   0.16544   0.65045   0.00000  Uiso   1.00
C664   C     0.60010   0.14880   0.51294   0.00000  Uiso   1.00
C665   C     0.54030   0.16277   0.59447   0.00000  Uiso   1.00
C666   C     0.41203   0.18684   0.93304   0.00000  Uiso   1.00
C667   C     0.39782   0.19093   0.98619   0.00000  Uiso   1.00
C668   C     0.43112   0.18460   0.51393   0.00000  Uiso   1.00
Cu669  Cu    0.45311   0.16666   0.75000   0.00000  Uiso   1.00
Cu670  Cu    0.54689   0.16667   0.75000   0.00000  Uiso   1.00
H671   H     0.56831   0.03692   0.76933   0.00000  Uiso   1.00
H672   H     0.43184   0.03820   0.73019   0.00000  Uiso   1.00
H673   H     0.60973   0.21894   0.79884   0.00000  Uiso   1.00
H674   H     0.39292   0.11793   0.69669   0.00000  Uiso   1.00
H675   H     0.61948   0.16670   0.91368   0.00000  Uiso   1.00
H676   H     0.46905   0.17989   0.59235   0.00000  Uiso   1.00
H677   H     0.41617   0.18563   0.55506   0.00000  Uiso   1.00
H678   H     0.36009   0.19790   0.50648   0.00000  Uiso   1.00
H679   H     0.56349   0.19128   0.87229   0.00000  Uiso   1.00
H680   H     0.56815   0.29559   0.76886   0.00000  Uiso   1.00
N681   N     0.38265   0.16666   0.74998   0.00000  Uiso   1.00
N682   N     0.61735   0.16669   0.75000   0.00000  Uiso   1.00
O683   O     0.46042   0.22678   0.75000   0.00000  Uiso   1.00
O684   O     0.53961   0.22679   0.75000   0.00000  Uiso   1.00
O685   O     0.44108   0.16665   0.82549   0.00000  Uiso   1.00
O686   O     0.52027   0.16666   0.82549   0.00000  Uiso   1.00
O687   O     0.46039   0.10654   0.74999   0.00000  Uiso   1.00
O688   O     0.53958   0.10655   0.74999   0.00000  Uiso   1.00
O689   O     0.47973   0.16667   0.67451   0.00000  Uiso   1.00
O690   O     0.55892   0.16668   0.67451   0.00000  Uiso   1.00
F691   F     0.62167   0.14018   0.59020   0.00000  Uiso   1.00
F692   F     0.42365   0.29315   0.72726   0.00000  Uiso   1.00
F693   F     0.36501   0.22296   0.80767   0.00000  Uiso   1.00
O694   O     0.63266   0.11167   0.68979   0.00000  Uiso   1.00
C695   C     0.65410   0.07209   0.68632   0.00000  Uiso   1.00
H696   H     0.63019   0.05006   0.67381   0.00000  Uiso   1.00
H697   H     0.65751   0.06123   0.72396   0.00000  Uiso   1.00
H698   H     0.35674   0.07141   0.65657   0.00000  Uiso   1.00
O699   O     0.64666   0.13637   0.98551   0.00000  Uiso   1.00
C700   C     0.64639   0.09352   0.97734   0.00000  Uiso   1.00
H701   H     0.62118   0.08513   0.95438   0.00000  Uiso   1.00
H702   H     0.63661   0.07663   0.51436   0.00000  Uiso   1.00
H703   H     0.35039   0.08353   0.95515   0.00000  Uiso   1.00
F704   F     0.37742   0.19121   0.90809   0.00000  Uiso   1.00
C705   C     0.83324   0.24599   0.74976   0.00000  Uiso   1.00
C706   C     0.81457   0.17770   0.98869   0.00000  Uiso   1.00
C707   C     0.83015   0.17854   0.93415   0.00000  Uiso   1.00
C708   C     0.85001   0.17017   0.51558   0.00000  Uiso   1.00
C709   C     0.89929   0.16158   0.98764   0.00000  Uiso   1.00
C710   C     0.91450   0.16829   0.93519   0.00000  Uiso   1.00
C711   C     0.88102   0.17967   0.90998   0.00000  Uiso   1.00
C712   C     0.83837   0.17121   0.56921   0.00000  Uiso   1.00
C713   C     0.92093   0.15061   0.56633   0.00000  Uiso   1.00
C714   C     0.79455   0.17897   0.90609   0.00000  Uiso   1.00
C715   C     0.87163   0.31185   0.76017   0.00000  Uiso   1.00
C716   C     0.80785   0.17058   0.84972   0.00000  Uiso   1.00
C717   C     0.87183   0.02109   0.76035   0.00000  Uiso   1.00
C718   C     0.83350   0.04284   0.74969   0.00000  Uiso   1.00
C719   C     0.79494   0.02179   0.73889   0.00000  Uiso   1.00
C720   C     0.79456   0.31257   0.73870   0.00000  Uiso   1.00
C721   C     0.83300   0.29066   0.74949   0.00000  Uiso   1.00
C722   C     0.96753   0.19529   0.77766   0.00000  Uiso   1.00
C723   C     0.68342   0.19479   0.77853   0.00000  Uiso   1.00
C724   C     0.69987   0.13897   0.72071   0.00000  Uiso   1.00
C725   C     0.98292   0.13816   0.72116   0.00000  Uiso   1.00
C726   C     0.83344   0.08740   0.74993   0.00000  Uiso   1.00
C727   C     0.85920   0.16544   0.65045   0.00000  Uiso   1.00
C728   C     0.93343   0.14880   0.51294   0.00000  Uiso   1.00
C729   C     0.87363   0.16277   0.59447   0.00000  Uiso   1.00
C730   C     0.74537   0.18684   0.93304   0.00000  Uiso   1.00
C731   C     0.73115   0.19093   0.98619   0.00000  Uiso   1.00
C732   C     0.76445   0.18460   0.51393   0.00000  Uiso   1.00
Cu733  Cu    0.78645   0.16666   0.75000   0.00000  Uiso   1.00
Cu734  Cu    0.88022   0.16667   0.75000   0.00000  Uiso   1.00
H735   H     0.90164   0.03692   0.76933   0.00000  Uiso   1.00
H736   H     0.76517   0.03820   0.73019   0.00000  Uiso   1.00
H737   H     0.94306   0.21894   0.79884   0.00000  Uiso   1.00
H738   H     0.72626   0.11793   0.69669   0.00000  Uiso   1.00
H739   H     0.95282   0.16670   0.91368   0.00000  Uiso   1.00
H740   H     0.80238   0.17989   0.59235   0.00000  Uiso   1.00
H741   H     0.74950   0.18563   0.55506   0.00000  Uiso   1.00
H742   H     0.69343   0.19790   0.50648   0.00000  Uiso   1.00
H743   H     0.89682   0.19128   0.87229   0.00000  Uiso   1.00
H744   H     0.90148   0.29559   0.76886   0.00000  Uiso   1.00
N745   N     0.71598   0.16666   0.74998   0.00000  Uiso   1.00
N746   N     0.95069   0.16669   0.75000   0.00000  Uiso   1.00
O747   O     0.79375   0.22678   0.75000   0.00000  Uiso   1.00
O748   O     0.87294   0.22679   0.75000   0.00000  Uiso   1.00
O749   O     0.77441   0.16665   0.82549   0.00000  Uiso   1.00
O750   O     0.85360   0.16666   0.82549   0.00000  Uiso   1.00
O751   O     0.79373   0.10654   0.74999   0.00000  Uiso   1.00
O752   O     0.87292   0.10655   0.74999   0.00000  Uiso   1.00
O753   O     0.81306   0.16667   0.67451   0.00000  Uiso   1.00
O754   O     0.89225   0.16668   0.67451   0.00000  Uiso   1.00
F755   F     0.95501   0.14018   0.59020   0.00000  Uiso   1.00
F756   F     0.75699   0.29315   0.72726   0.00000  Uiso   1.00
F757   F     0.69834   0.22296   0.80767   0.00000  Uiso   1.00
O758   O     0.96600   0.11167   0.68979   0.00000  Uiso   1.00
C759   C     0.98743   0.07209   0.68632   0.00000  Uiso   1.00
H760   H     0.96353   0.05006   0.67381   0.00000  Uiso   1.00
H761   H     0.99084   0.06123   0.72396   0.00000  Uiso   1.00
H762   H     0.69008   0.07141   0.65657   0.00000  Uiso   1.00
O763   O     0.97999   0.13637   0.98551   0.00000  Uiso   1.00
C764   C     0.97972   0.09352   0.97734   0.00000  Uiso   1.00
H765   H     0.95451   0.08513   0.95438   0.00000  Uiso   1.00
H766   H     0.96994   0.07663   0.51436   0.00000  Uiso   1.00
H767   H     0.68373   0.08353   0.95515   0.00000  Uiso   1.00
F768   F     0.71076   0.19121   0.90809   0.00000  Uiso   1.00
C769   C     0.16658   0.57932   0.74976   0.00000  Uiso   1.00
C770   C     0.14790   0.51104   0.98869   0.00000  Uiso   1.00
C771   C     0.16349   0.51187   0.93415   0.00000  Uiso   1.00
C772   C     0.18334   0.50350   0.51558   0.00000  Uiso   1.00
C773   C     0.23263   0.49491   0.98764   0.00000  Uiso   1.00
C774   C     0.24784   0.50162   0.93519   0.00000  Uiso   1.00
C775   C     0.21435   0.51301   0.90998   0.00000  Uiso   1.00
C776   C     0.17170   0.50454   0.56921   0.00000  Uiso   1.00
C777   C     0.25427   0.48394   0.56633   0.00000  Uiso   1.00
C778   C     0.12788   0.51230   0.90609   0.00000  Uiso   1.00
C779   C     0.20496   0.64519   0.76017   0.00000  Uiso   1.00
C780   C     0.14118   0.50392   0.84972   0.00000  Uiso   1.00
C781   C     0.20516   0.35443   0.76035   0.00000  Uiso   1.00
C782   C     0.16683   0.37617   0.74969   0.00000  Uiso   1.00
C783   C     0.12827   0.35512   0.73889   0.00000  Uiso   1.00
C784   C     0.12789   0.64590   0.73870   0.00000  Uiso   1.00
C785   C     0.16634   0.62400   0.74949   0.00000  Uiso   1.00
C786   C     0.30086   0.52862   0.77766   0.00000  Uiso   1.00
C787   C     0.01675   0.52812   0.77853   0.00000  Uiso   1.00
C788   C     0.03321   0.47230   0.72071   0.00000  Uiso   1.00
C789   C     0.31626   0.47149   0.72116   0.00000  Uiso   1.00
C790   C     0.16677   0.42073   0.74993   0.00000  Uiso   1.00
C791   C     0.19253   0.49877   0.65045   0.00000  Uiso   1.00
C792   C     0.26677   0.48213   0.51294   0.00000  Uiso   1.00
C793   C     0.20697   0.49610   0.59447   0.00000  Uiso   1.00
C794   C     0.07870   0.52017   0.93304   0.00000  Uiso   1.00
C795   C     0.06448   0.52426   0.98619   0.00000  Uiso   1.00
C796   C     0.09779   0.51794   0.51393   0.00000  Uiso   1.00
Cu797  Cu    0.11978   0.49999   0.75000   0.00000  Uiso   1.00
Cu798  Cu    0.21355   0.50001   0.75000   0.00000  Uiso   1.00
H799   H     0.23497   0.37025   0.76933   0.00000  Uiso   1.00
H800   H     0.09851   0.37153   0.73019   0.00000  Uiso   1.00
H801   H     0.27640   0.55227   0.79884   0.00000  Uiso   1.00
H802   H     0.05959   0.45126   0.69669   0.00000  Uiso   1.00
H803   H     0.28615   0.50004   0.91368   0.00000  Uiso   1.00
H804   H     0.13571   0.51322   0.59235   0.00000  Uiso   1.00
H805   H     0.08284   0.51896   0.55506   0.00000  Uiso   1.00
H806   H     0.02676   0.53123   0.50648   0.00000  Uiso   1.00
H807   H     0.23016   0.52461   0.87229   0.00000  Uiso   1.00
H808   H     0.23482   0.62893   0.76886   0.00000  Uiso   1.00
N809   N     0.04931   0.49999   0.74998   0.00000  Uiso   1.00
N810   N     0.28402   0.50002   0.75000   0.00000  Uiso   1.00
O811   O     0.12708   0.56011   0.75000   0.00000  Uiso   1.00
O812   O     0.20627   0.56012   0.75000   0.00000  Uiso   1.00
O813   O     0.10775   0.49998   0.82549   0.00000  Uiso   1.00
O814   O     0.18694   0.49999   0.82549   0.00000  Uiso   1.00
O815   O     0.12706   0.43988   0.74999   0.00000  Uiso   1.00
O816   O     0.20625   0.43989   0.74999   0.00000  Uiso   1.00
O817   O     0.14640   0.50001   0.67451   0.00000  Uiso   1.00
O818   O     0.22559   0.50002   0.67451   0.00000  Uiso   1.00
F819   F     0.28834   0.47351   0.59020   0.00000  Uiso   1.00
F820   F     0.09032   0.62648   0.72726   0.00000  Uiso   1.00
F821   F     0.03167   0.55629   0.80767   0.00000  Uiso   1.00
O822   O     0.29933   0.44500   0.68979   0.00000  Uiso   1.00
C823   C     0.32077   0.40542   0.68632   0.00000  Uiso   1.00
H824   H     0.29686   0.38339   0.67381   0.00000  Uiso   1.00
H825   H     0.32418   0.39457   0.72396   0.00000  Uiso   1.00
H826   H     0.02341   0.40475   0.65657   0.00000  Uiso   1.00
O827   O     0.31332   0.46970   0.98551   0.00000  Uiso   1.00
C828   C     0.31306   0.42685   0.97734   0.00000  Uiso   1.00
H829   H     0.28785   0.41846   0.95438   0.00000  Uiso   1.00
H830   H     0.30327   0.40996   0.51436   0.00000  Uiso   1.00
H831   H     0.01706   0.41686   0.95515   0.00000  Uiso   1.00
F832   F     0.04409   0.52454   0.90809   0.00000  Uiso   1.00
C833   C     0.49991   0.57932   0.74976   0.00000  Uiso   1.00
C834   C     0.48124   0.51104   0.98869   0.00000  Uiso   1.00
C835   C     0.49682   0.51187   0.93415   0.00000  Uiso   1.00
C836   C     0.51668   0.50350   0.51558   0.00000  Uiso   1.00
C837   C     0.56596   0.49491   0.98764   0.00000  Uiso   1.00
C838   C     0.58117   0.50162   0.93519   0.00000  Uiso   1.00
C839   C     0.54768   0.51301   0.90998   0.00000  Uiso   1.00
C840   C     0.50504   0.50454   0.56921   0.00000  Uiso   1.00
C841   C     0.58760   0.48394   0.56633   0.00000  Uiso   1.00
C842   C     0.46121   0.51230   0.90609   0.00000  Uiso   1.00
C843   C     0.53830   0.64519   0.76017   0.00000  Uiso   1.00
C844   C     0.47452   0.50392   0.84972   0.00000  Uiso   1.00
C845   C     0.53849   0.35443   0.76035   0.00000  Uiso   1.00
C846   C     0.50017   0.37617   0.74969   0.00000  Uiso   1.00
C847   C     0.46160   0.35512   0.73889   0.00000  Uiso   1.00
C848   C     0.46122   0.64590   0.73870   0.00000  Uiso   1.00
C849   C     0.49967   0.62400   0.74949   0.00000  Uiso   1.00
C850   C     0.63420   0.52862   0.77766   0.00000  Uiso   1.00
C851   C     0.35008   0.52812   0.77853   0.00000  Uiso   1.00
C852   C     0.36654   0.47230   0.72071   0.00000  Uiso   1.00
C853   C     0.64959   0.47149   0.72116   0.00000  Uiso   1.00
C854   C     0.50011   0.42073   0.74993   0.00000  Uiso   1.00
C855   C     0.52586   0.49877   0.65045   0.00000  Uiso   1.00
C856   C     0.60010   0.48213   0.51294   0.00000  Uiso   1.00
C857   C     0.54030   0.49610   0.59447   0.00000  Uiso   1.00
C858   C     0.41203   0.52017   0.93304   0.00000  Uiso   1.00
C859   C     0.39782   0.52426   0.98619   0.00000  Uiso   1.00
C860   C     0.43112   0.51794   0.51393   0.00000  Uiso   1.00
Cu861  Cu    0.45311   0.49999   0.75000   0.00000  Uiso   1.00
Cu862  Cu    0.54689   0.50001   0.75000   0.00000  Uiso   1.00
H863   H     0.56831   0.37025   0.76933   0.00000  Uiso   1.00
H864   H     0.43184   0.37153   0.73019   0.00000  Uiso   1.00
H865   H     0.60973   0.55227   0.79884   0.00000  Uiso   1.00
H866   H     0.39292   0.45126   0.69669   0.00000  Uiso   1.00
H867   H     0.61948   0.50004   0.91368   0.00000  Uiso   1.00
H868   H     0.46905   0.51322   0.59235   0.00000  Uiso   1.00
H869   H     0.41617   0.51896   0.55506   0.00000  Uiso   1.00
H870   H     0.36009   0.53123   0.50648   0.00000  Uiso   1.00
H871   H     0.56349   0.52461   0.87229   0.00000  Uiso   1.00
H872   H     0.56815   0.62893   0.76886   0.00000  Uiso   1.00
N873   N     0.38265   0.49999   0.74998   0.00000  Uiso   1.00
N874   N     0.61735   0.50002   0.75000   0.00000  Uiso   1.00
O875   O     0.46042   0.56011   0.75000   0.00000  Uiso   1.00
O876   O     0.53961   0.56012   0.75000   0.00000  Uiso   1.00
O877   O     0.44108   0.49998   0.82549   0.00000  Uiso   1.00
O878   O     0.52027   0.49999   0.82549   0.00000  Uiso   1.00
O879   O     0.46039   0.43988   0.74999   0.00000  Uiso   1.00
O880   O     0.53958   0.43989   0.74999   0.00000  Uiso   1.00
O881   O     0.47973   0.50001   0.67451   0.00000  Uiso   1.00
O882   O     0.55892   0.50002   0.67451   0.00000  Uiso   1.00
F883   F     0.62167   0.47351   0.59020   0.00000  Uiso   1.00
F884   F     0.42365   0.62648   0.72726   0.00000  Uiso   1.00
F885   F     0.36501   0.55629   0.80767   0.00000  Uiso   1.00
O886   O     0.63266   0.44500   0.68979   0.00000  Uiso   1.00
C887   C     0.65410   0.40542   0.68632   0.00000  Uiso   1.00
H888   H     0.63019   0.38339   0.67381   0.00000  Uiso   1.00
H889   H     0.65751   0.39457   0.72396   0.00000  Uiso   1.00
H890   H     0.35674   0.40475   0.65657   0.00000  Uiso   1.00
O891   O     0.64666   0.46970   0.98551   0.00000  Uiso   1.00
C892   C     0.64639   0.42685   0.97734   0.00000  Uiso   1.00
H893   H     0.62118   0.41846   0.95438   0.00000  Uiso   1.00
H894   H     0.63661   0.40996   0.51436   0.00000  Uiso   1.00
H895   H     0.35039   0.41686   0.95515   0.00000  Uiso   1.00
F896   F     0.37742   0.52454   0.90809   0.00000  Uiso   1.00
C897   C     0.83324   0.57932   0.74976   0.00000  Uiso   1.00
C898   C     0.81457   0.51104   0.98869   0.00000  Uiso   1.00
C899   C     0.83015   0.51187   0.93415   0.00000  Uiso   1.00
C900   C     0.85001   0.50350   0.51558   0.00000  Uiso   1.00
C901   C     0.89929   0.49491   0.98764   0.00000  Uiso   1.00
C902   C     0.91450   0.50162   0.93519   0.00000  Uiso   1.00
C903   C     0.88102   0.51301   0.90998   0.00000  Uiso   1.00
C904   C     0.83837   0.50454   0.56921   0.00000  Uiso   1.00
C905   C     0.92093   0.48394   0.56633   0.00000  Uiso   1.00
C906   C     0.79455   0.51230   0.90609   0.00000  Uiso   1.00
C907   C     0.87163   0.64519   0.76017   0.00000  Uiso   1.00
C908   C     0.80785   0.50392   0.84972   0.00000  Uiso   1.00
C909   C     0.87183   0.35443   0.76035   0.00000  Uiso   1.00
C910   C     0.83350   0.37617   0.74969   0.00000  Uiso   1.00
C911   C     0.79494   0.35512   0.73889   0.00000  Uiso   1.00
C912   C     0.79456   0.64590   0.73870   0.00000  Uiso   1.00
C913   C     0.83300   0.62400   0.74949   0.00000  Uiso   1.00
C914   C     0.96753   0.52862   0.77766   0.00000  Uiso   1.00
C915   C     0.68342   0.52812   0.77853   0.00000  Uiso   1.00
C916   C     0.69987   0.47230   0.72071   0.00000  Uiso   1.00
C917   C     0.98292   0.47149   0.72116   0.00000  Uiso   1.00
C918   C     0.83344   0.42073   0.74993   0.00000  Uiso   1.00
C919   C     0.85920   0.49877   0.65045   0.00000  Uiso   1.00
C920   C     0.93343   0.48213   0.51294   0.00000  Uiso   1.00
C921   C     0.87363   0.49610   0.59447   0.00000  Uiso   1.00
C922   C     0.74537   0.52017   0.93304   0.00000  Uiso   1.00
C923   C     0.73115   0.52426   0.98619   0.00000  Uiso   1.00
C924   C     0.76445   0.51794   0.51393   0.00000  Uiso   1.00
Cu925  Cu    0.78645   0.49999   0.75000   0.00000  Uiso   1.00
Cu926  Cu    0.88022   0.50001   0.75000   0.00000  Uiso   1.00
H927   H     0.90164   0.37025   0.76933   0.00000  Uiso   1.00
H928   H     0.76517   0.37153   0.73019   0.00000  Uiso   1.00
H929   H     0.94306   0.55227   0.79884   0.00000  Uiso   1.00
H930   H     0.72626   0.45126   0.69669   0.00000  Uiso   1.00
H931   H     0.95282   0.50004   0.91368   0.00000  Uiso   1.00
H932   H     0.80238   0.51322   0.59235   0.00000  Uiso   1.00
H933   H     0.74950   0.51896   0.55506   0.00000  Uiso   1.00
H934   H     0.69343   0.53123   0.50648   0.00000  Uiso   1.00
H935   H     0.89682   0.52461   0.87229   0.00000  Uiso   1.00
H936   H     0.90148   0.62893   0.76886   0.00000  Uiso   1.00
N937   N     0.71598   0.49999   0.74998   0.00000  Uiso   1.00
N938   N     0.95069   0.50002   0.75000   0.00000  Uiso   1.00
O939   O     0.79375   0.56011   0.75000   0.00000  Uiso   1.00
O940   O     0.87294   0.56012   0.75000   0.00000  Uiso   1.00
O941   O     0.77441   0.49998   0.82549   0.00000  Uiso   1.00
O942   O     0.85360   0.49999   0.82549   0.00000  Uiso   1.00
O943   O     0.79373   0.43988   0.74999   0.00000  Uiso   1.00
O944   O     0.87292   0.43989   0.74999   0.00000  Uiso   1.00
O945   O     0.81306   0.50001   0.67451   0.00000  Uiso   1.00
O946   O     0.89225   0.50002   0.67451   0.00000  Uiso   1.00
F947   F     0.95501   0.47351   0.59020   0.00000  Uiso   1.00
F948   F     0.75699   0.62648   0.72726   0.00000  Uiso   1.00
F949   F     0.69834   0.55629   0.80767   0.00000  Uiso   1.00
O950   O     0.96600   0.44500   0.68979   0.00000  Uiso   1.00
C951   C     0.98743   0.40542   0.68632   0.00000  Uiso   1.00
H952   H     0.96353   0.38339   0.67381   0.00000  Uiso   1.00
H953   H     0.99084   0.39457   0.72396   0.00000  Uiso   1.00
H954   H     0.69008   0.40475   0.65657   0.00000  Uiso   1.00
O955   O     0.97999   0.46970   0.98551   0.00000  Uiso   1.00
C956   C     0.97972   0.42685   0.97734   0.00000  Uiso   1.00
H957   H     0.95451   0.41846   0.95438   0.00000  Uiso   1.00
H958   H     0.96994   0.40996   0.51436   0.00000  Uiso   1.00
H959   H     0.68373   0.41686   0.95515   0.00000  Uiso   1.00
F960   F     0.71076   0.52454   0.90809   0.00000  Uiso   1.00
C961   C     0.16658   0.91266   0.74976   0.00000  Uiso   1.00
C962   C     0.14790   0.84437   0.98869   0.00000  Uiso   1.00
C963   C     0.16349   0.84521   0.93415   0.00000  Uiso   1.00
C964   C     0.18334   0.83683   0.51558   0.00000  Uiso   1.00
C965   C     0.23263   0.82825   0.98764   0.00000  Uiso   1.00
C966   C     0.24784   0.83495   0.93519   0.00000  Uiso   1.00
C967   C     0.21435   0.84634   0.90998   0.00000  Uiso   1.00
C968   C     0.17170   0.83787   0.56921   0.00000  Uiso   1.00
C969   C     0.25427   0.81727   0.56633   0.00000  Uiso   1.00
C970   C     0.12788   0.84563   0.90609   0.00000  Uiso   1.00
C971   C     0.20496   0.97852   0.76017   0.00000  Uiso   1.00
C972   C     0.14118   0.83725   0.84972   0.00000  Uiso   1.00
C973   C     0.20516   0.68776   0.76035   0.00000  Uiso   1.00
C974   C     0.16683   0.70951   0.74969   0.00000  Uiso   1.00
C975   C     0.12827   0.68846   0.73889   0.00000  Uiso   1.00
C976   C     0.12789   0.97923   0.73870   0.00000  Uiso   1.00
C977   C     0.16634   0.95733   0.74949   0.00000  Uiso   1.00
C978   C     0.30086   0.86195   0.77766   0.00000  Uiso   1.00
C979   C     0.01675   0.86145   0.77853   0.00000  Uiso   1.00
C980   C     0.03321   0.80563   0.72071   0.00000  Uiso   1.00
C981   C     0.31626   0.80482   0.72116   0.00000  Uiso   1.00
C982   C     0.16677   0.75406   0.74993   0.00000  Uiso   1.00
C983   C     0.19253   0.83211   0.65045   0.00000  Uiso   1.00
C984   C     0.26677   0.81546   0.51294   0.00000  Uiso   1.00
C985   C     0.20697   0.82944   0.59447   0.00000  Uiso   1.00
C986   C     0.07870   0.85351   0.93304   0.00000  Uiso   1.00
C987   C     0.06448   0.85760   0.98619   0.00000  Uiso   1.00
C988   C     0.09779   0.85127   0.51393   0.00000  Uiso   1.00
Cu989  Cu    0.11978   0.83333   0.75000   0.00000  Uiso   1.00
Cu990  Cu    0.21355   0.83334   0.75000   0.00000  Uiso   1.00
H991   H     0.23497   0.70359   0.76933   0.00000  Uiso   1.00
H992   H     0.09851   0.70486   0.73019   0.00000  Uiso   1.00
H993   H     0.27640   0.88560   0.79884   0.00000  Uiso   1.00
H994   H     0.05959   0.78460   0.69669   0.00000  Uiso   1.00
H995   H     0.28615   0.83337   0.91368   0.00000  Uiso   1.00
H996   H     0.13571   0.84655   0.59235   0.00000  Uiso   1.00
H997   H     0.08284   0.85229   0.55506   0.00000  Uiso   1.00
H998   H     0.02676   0.86457   0.50648   0.00000  Uiso   1.00
H999   H     0.23016   0.85795   0.87229   0.00000  Uiso   1.00
H1000  H     0.23482   0.96226   0.76886   0.00000  Uiso   1.00
N1001  N     0.04931   0.83332   0.74998   0.00000  Uiso   1.00
N1002  N     0.28402   0.83335   0.75000   0.00000  Uiso   1.00
O1003  O     0.12708   0.89345   0.75000   0.00000  Uiso   1.00
O1004  O     0.20627   0.89346   0.75000   0.00000  Uiso   1.00
O1005  O     0.10775   0.83332   0.82549   0.00000  Uiso   1.00
O1006  O     0.18694   0.83333   0.82549   0.00000  Uiso   1.00
O1007  O     0.12706   0.77321   0.74999   0.00000  Uiso   1.00
O1008  O     0.20625   0.77322   0.74999   0.00000  Uiso   1.00
O1009  O     0.14640   0.83334   0.67451   0.00000  Uiso   1.00
O1010  O     0.22559   0.83335   0.67451   0.00000  Uiso   1.00
F1011  F     0.28834   0.80685   0.59020   0.00000  Uiso   1.00
F1012  F     0.09032   0.95981   0.72726   0.00000  Uiso   1.00
F1013  F     0.03167   0.88962   0.80767   0.00000  Uiso   1.00
O1014  O     0.29933   0.77833   0.68979   0.00000  Uiso   1.00
C1015  C     0.32077   0.73876   0.68632   0.00000  Uiso   1.00
H1016  H     0.29686   0.71673   0.67381   0.00000  Uiso   1.00
H1017  H     0.32418   0.72790   0.72396   0.00000  Uiso   1.00
H1018  H     0.02341   0.73808   0.65657   0.00000  Uiso   1.00
O1019  O     0.31332   0.80303   0.98551   0.00000  Uiso   1.00
C1020  C     0.31306   0.76019   0.97734   0.00000  Uiso   1.00
H1021  H     0.28785   0.75179   0.95438   0.00000  Uiso   1.00
H1022  H     0.30327   0.74330   0.51436   0.00000  Uiso   1.00
H1023  H     0.01706   0.75020   0.95515   0.00000  Uiso   1.00
F1024  F     0.04409   0.85788   0.90809   0.00000  Uiso   1.00
C1025  C     0.49991   0.91266   0.74976   0.00000  Uiso   1.00
C1026  C     0.48124   0.84437   0.98869   0.00000  Uiso   1.00
C1027  C     0.49682   0.84521   0.93415   0.00000  Uiso   1.00
C1028  C     0.51668   0.83683   0.51558   0.00000  Uiso   1.00
C1029  C     0.56596   0.82825   0.98764   0.00000  Uiso   1.00
C1030  C     0.58117   0.83495   0.93519   0.00000  Uiso   1.00
C1031  C     0.54768   0.84634   0.90998   0.00000  Uiso   1.00
C1032  C     0.50504   0.83787   0.56921   0.00000  Uiso   1.00
C1033  C     0.58760   0.81727   0.56633   0.00000  Uiso   1.00
C1034  C     0.46121   0.84563   0.90609   0.00000  Uiso   1.00
C1035  C     0.53830   0.97852   0.76017   0.00000  Uiso   1.00
C1036  C     0.47452   0.83725   0.84972   0.00000  Uiso   1.00
C1037  C     0.53849   0.68776   0.76035   0.00000  Uiso   1.00
C1038  C     0.50017   0.70951   0.74969   0.00000  Uiso   1.00
C1039  C     0.46160   0.68846   0.73889   0.00000  Uiso   1.00
C1040  C     0.46122   0.97923   0.73870   0.00000  Uiso   1.00
C1041  C     0.49967   0.95733   0.74949   0.00000  Uiso   1.00
C1042  C     0.63420   0.86195   0.77766   0.00000  Uiso   1.00
C1043  C     0.35008   0.86145   0.77853   0.00000  Uiso   1.00
C1044  C     0.36654   0.80563   0.72071   0.00000  Uiso   1.00
C1045  C     0.64959   0.80482   0.72116   0.00000  Uiso   1.00
C1046  C     0.50011   0.75406   0.74993   0.00000  Uiso   1.00
C1047  C     0.52586   0.83211   0.65045   0.00000  Uiso   1.00
C1048  C     0.60010   0.81546   0.51294   0.00000  Uiso   1.00
C1049  C     0.54030   0.82944   0.59447   0.00000  Uiso   1.00
C1050  C     0.41203   0.85351   0.93304   0.00000  Uiso   1.00
C1051  C     0.39782   0.85760   0.98619   0.00000  Uiso   1.00
C1052  C     0.43112   0.85127   0.51393   0.00000  Uiso   1.00
Cu1053 Cu    0.45311   0.83333   0.75000   0.00000  Uiso   1.00
Cu1054 Cu    0.54689   0.83334   0.75000   0.00000  Uiso   1.00
H1055  H     0.56831   0.70359   0.76933   0.00000  Uiso   1.00
H1056  H     0.43184   0.70486   0.73019   0.00000  Uiso   1.00
H1057  H     0.60973   0.88560   0.79884   0.00000  Uiso   1.00
H1058  H     0.39292   0.78460   0.69669   0.00000  Uiso   1.00
H1059  H     0.61948   0.83337   0.91368   0.00000  Uiso   1.00
H1060  H     0.46905   0.84655   0.59235   0.00000  Uiso   1.00
H1061  H     0.41617   0.85229   0.55506   0.00000  Uiso   1.00
H1062  H     0.36009   0.86457   0.50648   0.00000  Uiso   1.00
H1063  H     0.56349   0.85795   0.87229   0.00000  Uiso   1.00
H1064  H     0.56815   0.96226   0.76886   0.00000  Uiso   1.00
N1065  N     0.38265   0.83332   0.74998   0.00000  Uiso   1.00
N1066  N     0.61735   0.83335   0.75000   0.00000  Uiso   1.00
O1067  O     0.46042   0.89345   0.75000   0.00000  Uiso   1.00
O1068  O     0.53961   0.89346   0.75000   0.00000  Uiso   1.00
O1069  O     0.44108   0.83332   0.82549   0.00000  Uiso   1.00
O1070  O     0.52027   0.83333   0.82549   0.00000  Uiso   1.00
O1071  O     0.46039   0.77321   0.74999   0.00000  Uiso   1.00
O1072  O     0.53958   0.77322   0.74999   0.00000  Uiso   1.00
O1073  O     0.47973   0.83334   0.67451   0.00000  Uiso   1.00
O1074  O     0.55892   0.83335   0.67451   0.00000  Uiso   1.00
F1075  F     0.62167   0.80685   0.59020   0.00000  Uiso   1.00
F1076  F     0.42365   0.95981   0.72726   0.00000  Uiso   1.00
F1077  F     0.36501   0.88962   0.80767   0.00000  Uiso   1.00
O1078  O     0.63266   0.77833   0.68979   0.00000  Uiso   1.00
C1079  C     0.65410   0.73876   0.68632   0.00000  Uiso   1.00
H1080  H     0.63019   0.71673   0.67381   0.00000  Uiso   1.00
H1081  H     0.65751   0.72790   0.72396   0.00000  Uiso   1.00
H1082  H     0.35674   0.73808   0.65657   0.00000  Uiso   1.00
O1083  O     0.64666   0.80303   0.98551   0.00000  Uiso   1.00
C1084  C     0.64639   0.76019   0.97734   0.00000  Uiso   1.00
H1085  H     0.62118   0.75179   0.95438   0.00000  Uiso   1.00
H1086  H     0.63661   0.74330   0.51436   0.00000  Uiso   1.00
H1087  H     0.35039   0.75020   0.95515   0.00000  Uiso   1.00
F1088  F     0.37742   0.85788   0.90809   0.00000  Uiso   1.00
C1089  C     0.83324   0.91266   0.74976   0.00000  Uiso   1.00
C1090  C     0.81457   0.84437   0.98869   0.00000  Uiso   1.00
C1091  C     0.83015   0.84521   0.93415   0.00000  Uiso   1.00
C1092  C     0.85001   0.83683   0.51558   0.00000  Uiso   1.00
C1093  C     0.89929   0.82825   0.98764   0.00000  Uiso   1.00
C1094  C     0.91450   0.83495   0.93519   0.00000  Uiso   1.00
C1095  C     0.88102   0.84634   0.90998   0.00000  Uiso   1.00
C1096  C     0.83837   0.83787   0.56921   0.00000  Uiso   1.00
C1097  C     0.92093   0.81727   0.56633   0.00000  Uiso   1.00
C1098  C     0.79455   0.84563   0.90609   0.00000  Uiso   1.00
C1099  C     0.87163   0.97852   0.76017   0.00000  Uiso   1.00
C1100  C     0.80785   0.83725   0.84972   0.00000  Uiso   1.00
C1101  C     0.87183   0.68776   0.76035   0.00000  Uiso   1.00
C1102  C     0.83350   0.70951   0.74969   0.00000  Uiso   1.00
C1103  C     0.79494   0.68846   0.73889   0.00000  Uiso   1.00
C1104  C     0.79456   0.97923   0.73870   0.00000  Uiso   1.00
C1105  C     0.83300   0.95733   0.74949   0.00000  Uiso   1.00
C1106  C     0.96753   0.86195   0.77766   0.00000  Uiso   1.00
C1107  C     0.68342   0.86145   0.77853   0.00000  Uiso   1.00
C1108  C     0.69987   0.80563   0.72071   0.00000  Uiso   1.00
C1109  C     0.98292   0.80482   0.72116   0.00000  Uiso   1.00
C1110  C     0.83344   0.75406   0.74993   0.00000  Uiso   1.00
C1111  C     0.85920   0.83211   0.65045   0.00000  Uiso   1.00
C1112  C     0.93343   0.81546   0.51294   0.00000  Uiso   1.00
C1113  C     0.87363   0.82944   0.59447   0.00000  Uiso   1.00
C1114  C     0.74537   0.85351   0.93304   0.00000  Uiso   1.00
C1115  C     0.73115   0.85760   0.98619   0.00000  Uiso   1.00
C1116  C     0.76445   0.85127   0.51393   0.00000  Uiso   1.00
Cu1117 Cu    0.78645   0.83333   0.75000   0.00000  Uiso   1.00
Cu1118 Cu    0.88022   0.83334   0.75000   0.00000  Uiso   1.00
H1119  H     0.90164   0.70359   0.76933   0.00000  Uiso   1.00
H1120  H     0.76517   0.70486   0.73019   0.00000  Uiso   1.00
H1121  H     0.94306   0.88560   0.79884   0.00000  Uiso   1.00
H1122  H     0.72626   0.78460   0.69669   0.00000  Uiso   1.00
H1123  H     0.95282   0.83337   0.91368   0.00000  Uiso   1.00
H1124  H     0.80238   0.84655   0.59235   0.00000  Uiso   1.00
H1125  H     0.74950   0.85229   0.55506   0.00000  Uiso   1.00
H1126  H     0.69343   0.86457   0.50648   0.00000  Uiso   1.00
H1127  H     0.89682   0.85795   0.87229   0.00000  Uiso   1.00
H1128  H     0.90148   0.96226   0.76886   0.00000  Uiso   1.00
N1129  N     0.71598   0.83332   0.74998   0.00000  Uiso   1.00
N1130  N     0.95069   0.83335   0.75000   0.00000  Uiso   1.00
O1131  O     0.79375   0.89345   0.75000   0.00000  Uiso   1.00
O1132  O     0.87294   0.89346   0.75000   0.00000  Uiso   1.00
O1133  O     0.77441   0.83332   0.82549   0.00000  Uiso   1.00
O1134  O     0.85360   0.83333   0.82549   0.00000  Uiso   1.00
O1135  O     0.79373   0.77321   0.74999   0.00000  Uiso   1.00
O1136  O     0.87292   0.77322   0.74999   0.00000  Uiso   1.00
O1137  O     0.81306   0.83334   0.67451   0.00000  Uiso   1.00
O1138  O     0.89225   0.83335   0.67451   0.00000  Uiso   1.00
F1139  F     0.95501   0.80685   0.59020   0.00000  Uiso   1.00
F1140  F     0.75699   0.95981   0.72726   0.00000  Uiso   1.00
F1141  F     0.69834   0.88962   0.80767   0.00000  Uiso   1.00
O1142  O     0.96600   0.77833   0.68979   0.00000  Uiso   1.00
C1143  C     0.98743   0.73876   0.68632   0.00000  Uiso   1.00
H1144  H     0.96353   0.71673   0.67381   0.00000  Uiso   1.00
H1145  H     0.99084   0.72790   0.72396   0.00000  Uiso   1.00
H1146  H     0.69008   0.73808   0.65657   0.00000  Uiso   1.00
O1147  O     0.97999   0.80303   0.98551   0.00000  Uiso   1.00
C1148  C     0.97972   0.76019   0.97734   0.00000  Uiso   1.00
H1149  H     0.95451   0.75179   0.95438   0.00000  Uiso   1.00
H1150  H     0.96994   0.74330   0.51436   0.00000  Uiso   1.00
H1151  H     0.68373   0.75020   0.95515   0.00000  Uiso   1.00
F1152  F     0.71076   0.85788   0.90809   0.00000  Uiso   1.00
loop_
_geom_bond_atom_site_label_1
_geom_bond_atom_site_label_2
_geom_bond_distance
_geom_bond_site_symmetry_2
_ccdc_geom_bond_type
C1     O44     1.293   .     A
C1     C17     1.452   .     S
C1     O43     1.291   .     A
C2     C3      1.420   .     A
C2     C580    1.429   .     S
C2     C604    1.415   .     S
C3     C10     1.436   .     A
C3     C7      1.413   .     A
C4     C8      1.399   .     A
C4     C578    1.429   1_554 S
C4     C581    1.420   1_554 S
C5     C6      1.385   .     A
C5     C580    1.420   .     S
C5     C600    1.407   .     S
C6     C7      1.377   .     A
C6     H35     1.084   .     S
C7     H39     1.067   .     S
C8     C25     1.399   .     A
C8     H36     1.075   .     S
C9     C24     1.392   .     A
C9     F51     1.358   .     S
C9     C25     1.401   .     A
C10    C12     1.491   .     S
C10    C26     1.407   .     A
C11    H40     1.083   .     S
C11    C17     1.402   .     A
C11    C205    1.384   .     S
C12    O46     1.289   .     A
C12    O45     1.313   .     A
C13    C14     1.399   .     A
C13    H31     1.083   .     S
C13    C395    1.384   1_545 S
C14    C22     1.448   .     S
C14    C15     1.400   .     A
C15    H32     1.084   .     S
C15    C400    1.383   1_545 S
C16    C17     1.406   .     A
C16    F52     1.358   .     S
C16    C207    1.383   .     S
C18    N42     1.365   .     A
C18    H33     1.080   .     S
C18    C83     1.413   .     S
C19    F53     1.355   .     S
C19    N41     1.367   .     A
C19    C146    1.413   1_455 S
C20    H34     1.080   .     S
C20    N41     1.364   .     A
C20    C149    1.434   1_455 S
C21    O54     1.390   .     S
C21    N42     1.374   .     A
C21    C84     1.434   .     S
C22    O48     1.292   .     A
C22    O47     1.290   .     A
C23    O49     1.293   .     A
C23    C25     1.459   .     S
C23    O50     1.294   .     A
C24    C581    1.407   1_554 S
C24    O635    1.381   1_554 S
C26    F64     1.357   .     S
C26    C27     1.389   .     A
C27    C604    1.388   .     S
C27    H614    1.082   .     S
C28    H37     1.076   .     S
C28    C603    1.388   1_554 S
C28    C578    1.415   1_554 S
Cu29   O49     1.973   .     S
Cu29   O43     1.966   .     S
Cu29   Cu30    2.679   .     S
Cu29   O47     1.963   .     S
Cu29   N41     2.013   .     S
Cu29   O45     1.980   .     S
Cu30   O46     1.973   .     S
Cu30   O50     1.980   .     S
Cu30   O44     1.963   .     S
Cu30   O48     1.966   .     S
Cu30   N42     2.013   .     S
H38    C603    1.082   1_554 S
O54    C55     1.412   .     S
C55    H56     1.109   .     S
C55    H57     1.114   .     S
C55    H122    1.111   .     S
H58    C183    1.111   1_455 S
O59    C60     1.409   .     S
O59    C600    1.381   .     S
C60    H61     1.113   .     S
C60    H638    1.113   .     S
C60    H127    1.109   .     S
H62    C636    1.113   1_554 S
H63    C188    1.109   1_455 S
C65    O108    1.293   .     A
C65    C81     1.452   .     S
C65    O107    1.291   .     A
C66    C67     1.420   .     A
C66    C644    1.429   .     S
C66    C668    1.415   .     S
C67    C74     1.436   .     A
C67    C71     1.413   .     A
C68    C72     1.399   .     A
C68    C642    1.429   1_554 S
C68    C645    1.420   1_554 S
C69    C70     1.385   .     A
C69    C644    1.420   .     S
C69    C664    1.407   .     S
C70    C71     1.377   .     A
C70    H99     1.084   .     S
C71    H103    1.067   .     S
C72    C89     1.399   .     A
C72    H100    1.075   .     S
C73    C88     1.392   .     A
C73    F115    1.358   .     S
C73    C89     1.401   .     A
C74    C76     1.491   .     S
C74    C90     1.407   .     A
C75    H104    1.083   .     S
C75    C81     1.402   .     A
C75    C269    1.384   .     S
C76    O110    1.289   .     A
C76    O109    1.313   .     A
C77    C78     1.399   .     A
C77    H95     1.083   .     S
C77    C459    1.384   1_545 S
C78    C86     1.448   .     S
C78    C79     1.400   .     A
C79    H96     1.084   .     S
C79    C464    1.383   1_545 S
C80    C81     1.406   .     A
C80    F116    1.358   .     S
C80    C271    1.383   .     S
C82    N106    1.365   .     A
C82    H97     1.080   .     S
C82    C147    1.413   .     S
C83    F117    1.355   .     S
C83    N105    1.367   .     A
C84    H98     1.080   .     S
C84    N105    1.364   .     A
C85    O118    1.390   .     S
C85    N106    1.374   .     A
C85    C148    1.434   .     S
C86    O112    1.292   .     A
C86    O111    1.290   .     A
C87    O113    1.293   .     A
C87    C89     1.459   .     S
C87    O114    1.294   .     A
C88    C645    1.407   1_554 S
C88    O699    1.381   1_554 S
C90    F128    1.357   .     S
C90    C91     1.389   .     A
C91    C668    1.388   .     S
C91    H678    1.082   .     S
C92    H101    1.076   .     S
C92    C667    1.388   1_554 S
C92    C642    1.415   1_554 S
Cu93   O113    1.973   .     S
Cu93   O107    1.966   .     S
Cu93   Cu94    2.679   .     S
Cu93   O111    1.963   .     S
Cu93   N105    2.013   .     S
Cu93   O109    1.980   .     S
Cu94   O110    1.973   .     S
Cu94   O114    1.980   .     S
Cu94   O108    1.963   .     S
Cu94   O112    1.966   .     S
Cu94   N106    2.013   .     S
H102   C667    1.082   1_554 S
O118   C119    1.412   .     S
C119   H120    1.109   .     S
C119   H121    1.114   .     S
C119   H186    1.111   .     S
O123   C124    1.409   .     S
O123   C664    1.381   .     S
C124   H125    1.113   .     S
C124   H702    1.113   .     S
C124   H191    1.109   .     S
H126   C700    1.113   1_554 S
C129   O172    1.293   .     A
C129   C145    1.452   .     S
C129   O171    1.291   .     A
C130   C131    1.420   .     A
C130   C708    1.429   .     S
C130   C732    1.415   .     S
C131   C138    1.436   .     A
C131   C135    1.413   .     A
C132   C136    1.399   .     A
C132   C706    1.429   1_554 S
C132   C709    1.420   1_554 S
C133   C134    1.385   .     A
C133   C708    1.420   .     S
C133   C728    1.407   .     S
C134   C135    1.377   .     A
C134   H163    1.084   .     S
C135   H167    1.067   .     S
C136   C153    1.399   .     A
C136   H164    1.075   .     S
C137   C152    1.392   .     A
C137   F179    1.358   .     S
C137   C153    1.401   .     A
C138   C140    1.491   .     S
C138   C154    1.407   .     A
C139   H168    1.083   .     S
C139   C145    1.402   .     A
C139   C333    1.384   .     S
C140   O174    1.289   .     A
C140   O173    1.313   .     A
C141   C142    1.399   .     A
C141   H159    1.083   .     S
C141   C523    1.384   1_545 S
C142   C150    1.448   .     S
C142   C143    1.400   .     A
C143   H160    1.084   .     S
C143   C528    1.383   1_545 S
C144   C145    1.406   .     A
C144   F180    1.358   .     S
C144   C335    1.383   .     S
C146   N170    1.365   .     A
C146   H161    1.080   .     S
C146   C19     1.413   1_655 S
C147   F181    1.355   .     S
C147   N169    1.367   .     A
C148   H162    1.080   .     S
C148   N169    1.364   .     A
C149   O182    1.390   .     S
C149   N170    1.374   .     A
C149   C20     1.434   1_655 S
C150   O176    1.292   .     A
C150   O175    1.290   .     A
C151   O177    1.293   .     A
C151   C153    1.459   .     S
C151   O178    1.294   .     A
C152   C709    1.407   1_554 S
C152   O763    1.381   1_554 S
C154   F192    1.357   .     S
C154   C155    1.389   .     A
C155   C732    1.388   .     S
C155   H742    1.082   .     S
C156   H165    1.076   .     S
C156   C731    1.388   1_554 S
C156   C706    1.415   1_554 S
Cu157  O177    1.973   .     S
Cu157  O171    1.966   .     S
Cu157  Cu158   2.679   .     S
Cu157  O175    1.963   .     S
Cu157  N169    2.013   .     S
Cu157  O173    1.980   .     S
Cu158  O174    1.973   .     S
Cu158  O178    1.980   .     S
Cu158  O172    1.963   .     S
Cu158  O176    1.966   .     S
Cu158  N170    2.013   .     S
H166   C731    1.082   1_554 S
O182   C183    1.412   .     S
C183   H184    1.109   .     S
C183   H185    1.114   .     S
C183   H58     1.111   1_655 S
O187   C188    1.409   .     S
O187   C728    1.381   .     S
C188   H189    1.113   .     S
C188   H766    1.113   .     S
C188   H63     1.109   1_655 S
H190   C764    1.113   1_554 S
C193   O236    1.293   .     A
C193   C209    1.452   .     S
C193   O235    1.291   .     A
C194   C195    1.420   .     A
C194   C772    1.429   .     S
C194   C796    1.415   .     S
C195   C202    1.436   .     A
C195   C199    1.413   .     A
C196   C200    1.399   .     A
C196   C770    1.429   1_554 S
C196   C773    1.420   1_554 S
C197   C198    1.385   .     A
C197   C772    1.420   .     S
C197   C792    1.407   .     S
C198   C199    1.377   .     A
C198   H227    1.084   .     S
C199   H231    1.067   .     S
C200   C217    1.399   .     A
C200   H228    1.075   .     S
C201   C216    1.392   .     A
C201   F243    1.358   .     S
C201   C217    1.401   .     A
C202   C204    1.491   .     S
C202   C218    1.407   .     A
C203   H232    1.083   .     S
C203   C209    1.402   .     A
C203   C397    1.384   .     S
C204   O238    1.289   .     A
C204   O237    1.313   .     A
C205   C206    1.399   .     A
C205   H223    1.083   .     S
C206   C214    1.448   .     S
C206   C207    1.400   .     A
C207   H224    1.084   .     S
C208   C209    1.406   .     A
C208   F244    1.358   .     S
C208   C399    1.383   .     S
C210   N234    1.365   .     A
C210   H225    1.080   .     S
C210   C275    1.413   .     S
C211   F245    1.355   .     S
C211   N233    1.367   .     A
C211   C338    1.413   1_455 S
C212   H226    1.080   .     S
C212   N233    1.364   .     A
C212   C341    1.434   1_455 S
C213   O246    1.390   .     S
C213   N234    1.374   .     A
C213   C276    1.434   .     S
C214   O240    1.292   .     A
C214   O239    1.290   .     A
C215   O241    1.293   .     A
C215   C217    1.459   .     S
C215   O242    1.294   .     A
C216   C773    1.407   1_554 S
C216   O827    1.381   1_554 S
C218   F256    1.357   .     S
C218   C219    1.389   .     A
C219   C796    1.388   .     S
C219   H806    1.082   .     S
C220   H229    1.076   .     S
C220   C795    1.388   1_554 S
C220   C770    1.415   1_554 S
Cu221  O241    1.973   .     S
Cu221  O235    1.966   .     S
Cu221  Cu222   2.679   .     S
Cu221  O239    1.963   .     S
Cu221  N233    2.013   .     S
Cu221  O237    1.980   .     S
Cu222  O238    1.973   .     S
Cu222  O242    1.980   .     S
Cu222  O236    1.963   .     S
Cu222  O240    1.966   .     S
Cu222  N234    2.013   .     S
H230   C795    1.082   1_554 S
O246   C247    1.412   .     S
C247   H248    1.109   .     S
C247   H249    1.114   .     S
C247   H314    1.111   .     S
H250   C375    1.111   1_455 S
O251   C252    1.409   .     S
O251   C792    1.381   .     S
C252   H253    1.113   .     S
C252   H830    1.113   .     S
C252   H319    1.109   .     S
H254   C828    1.113   1_554 S
H255   C380    1.109   1_455 S
C257   O300    1.293   .     A
C257   C273    1.452   .     S
C257   O299    1.291   .     A
C258   C259    1.420   .     A
C258   C836    1.429   .     S
C258   C860    1.415   .     S
C259   C266    1.436   .     A
C259   C263    1.413   .     A
C260   C264    1.399   .     A
C260   C834    1.429   1_554 S
C260   C837    1.420   1_554 S
C261   C262    1.385   .     A
C261   C836    1.420   .     S
C261   C856    1.407   .     S
C262   C263    1.377   .     A
C262   H291    1.084   .     S
C263   H295    1.067   .     S
C264   C281    1.399   .     A
C264   H292    1.075   .     S
C265   C280    1.392   .     A
C265   F307    1.358   .     S
C265   C281    1.401   .     A
C266   C268    1.491   .     S
C266   C282    1.407   .     A
C267   H296    1.083   .     S
C267   C273    1.402   .     A
C267   C461    1.384   .     S
C268   O302    1.289   .     A
C268   O301    1.313   .     A
C269   C270    1.399   .     A
C269   H287    1.083   .     S
C270   C278    1.448   .     S
C270   C271    1.400   .     A
C271   H288    1.084   .     S
C272   C273    1.406   .     A
C272   F308    1.358   .     S
C272   C463    1.383   .     S
C274   N298    1.365   .     A
C274   H289    1.080   .     S
C274   C339    1.413   .     S
C275   F309    1.355   .     S
C275   N297    1.367   .     A
C276   H290    1.080   .     S
C276   N297    1.364   .     A
C277   O310    1.390   .     S
C277   N298    1.374   .     A
C277   C340    1.434   .     S
C278   O304    1.292   .     A
C278   O303    1.290   .     A
C279   O305    1.293   .     A
C279   C281    1.459   .     S
C279   O306    1.294   .     A
C280   C837    1.407   1_554 S
C280   O891    1.381   1_554 S
C282   F320    1.357   .     S
C282   C283    1.389   .     A
C283   C860    1.388   .     S
C283   H870    1.082   .     S
C284   H293    1.076   .     S
C284   C859    1.388   1_554 S
C284   C834    1.415   1_554 S
Cu285  O305    1.973   .     S
Cu285  O299    1.966   .     S
Cu285  Cu286   2.679   .     S
Cu285  O303    1.963   .     S
Cu285  N297    2.013   .     S
Cu285  O301    1.980   .     S
Cu286  O302    1.973   .     S
Cu286  O306    1.980   .     S
Cu286  O300    1.963   .     S
Cu286  O304    1.966   .     S
Cu286  N298    2.013   .     S
H294   C859    1.082   1_554 S
O310   C311    1.412   .     S
C311   H312    1.109   .     S
C311   H313    1.114   .     S
C311   H378    1.111   .     S
O315   C316    1.409   .     S
O315   C856    1.381   .     S
C316   H317    1.113   .     S
C316   H894    1.113   .     S
C316   H383    1.109   .     S
H318   C892    1.113   1_554 S
C321   O364    1.293   .     A
C321   C337    1.452   .     S
C321   O363    1.291   .     A
C322   C323    1.420   .     A
C322   C900    1.429   .     S
C322   C924    1.415   .     S
C323   C330    1.436   .     A
C323   C327    1.413   .     A
C324   C328    1.399   .     A
C324   C898    1.429   1_554 S
C324   C901    1.420   1_554 S
C325   C326    1.385   .     A
C325   C900    1.420   .     S
C325   C920    1.407   .     S
C326   C327    1.377   .     A
C326   H355    1.084   .     S
C327   H359    1.067   .     S
C328   C345    1.399   .     A
C328   H356    1.075   .     S
C329   C344    1.392   .     A
C329   F371    1.358   .     S
C329   C345    1.401   .     A
C330   C332    1.491   .     S
C330   C346    1.407   .     A
C331   H360    1.083   .     S
C331   C337    1.402   .     A
C331   C525    1.384   .     S
C332   O366    1.289   .     A
C332   O365    1.313   .     A
C333   C334    1.399   .     A
C333   H351    1.083   .     S
C334   C342    1.448   .     S
C334   C335    1.400   .     A
C335   H352    1.084   .     S
C336   C337    1.406   .     A
C336   F372    1.358   .     S
C336   C527    1.383   .     S
C338   N362    1.365   .     A
C338   H353    1.080   .     S
C338   C211    1.413   1_655 S
C339   F373    1.355   .     S
C339   N361    1.367   .     A
C340   H354    1.080   .     S
C340   N361    1.364   .     A
C341   O374    1.390   .     S
C341   N362    1.374   .     A
C341   C212    1.434   1_655 S
C342   O368    1.292   .     A
C342   O367    1.290   .     A
C343   O369    1.293   .     A
C343   C345    1.459   .     S
C343   O370    1.294   .     A
C344   C901    1.407   1_554 S
C344   O955    1.381   1_554 S
C346   F384    1.357   .     S
C346   C347    1.389   .     A
C347   C924    1.388   .     S
C347   H934    1.082   .     S
C348   H357    1.076   .     S
C348   C923    1.388   1_554 S
C348   C898    1.415   1_554 S
Cu349  O369    1.973   .     S
Cu349  O363    1.966   .     S
Cu349  Cu350   2.679   .     S
Cu349  O367    1.963   .     S
Cu349  N361    2.013   .     S
Cu349  O365    1.980   .     S
Cu350  O366    1.973   .     S
Cu350  O370    1.980   .     S
Cu350  O364    1.963   .     S
Cu350  O368    1.966   .     S
Cu350  N362    2.013   .     S
H358   C923    1.082   1_554 S
O374   C375    1.412   .     S
C375   H376    1.109   .     S
C375   H377    1.114   .     S
C375   H250    1.111   1_655 S
O379   C380    1.409   .     S
O379   C920    1.381   .     S
C380   H381    1.113   .     S
C380   H958    1.113   .     S
C380   H255    1.109   1_655 S
H382   C956    1.113   1_554 S
C385   O428    1.293   .     A
C385   C401    1.452   .     S
C385   O427    1.291   .     A
C386   C387    1.420   .     A
C386   C964    1.429   .     S
C386   C988    1.415   .     S
C387   C394    1.436   .     A
C387   C391    1.413   .     A
C388   C392    1.399   .     A
C388   C962    1.429   1_554 S
C388   C965    1.420   1_554 S
C389   C390    1.385   .     A
C389   C964    1.420   .     S
C389   C984    1.407   .     S
C390   C391    1.377   .     A
C390   H419    1.084   .     S
C391   H423    1.067   .     S
C392   C409    1.399   .     A
C392   H420    1.075   .     S
C393   C408    1.392   .     A
C393   F435    1.358   .     S
C393   C409    1.401   .     A
C394   C396    1.491   .     S
C394   C410    1.407   .     A
C395   H424    1.083   .     S
C395   C401    1.402   .     A
C395   C13     1.384   1_565 S
C396   O430    1.289   .     A
C396   O429    1.313   .     A
C397   C398    1.399   .     A
C397   H415    1.083   .     S
C398   C406    1.448   .     S
C398   C399    1.400   .     A
C399   H416    1.084   .     S
C400   C401    1.406   .     A
C400   F436    1.358   .     S
C400   C15     1.383   1_565 S
C402   N426    1.365   .     A
C402   H417    1.080   .     S
C402   C467    1.413   .     S
C403   F437    1.355   .     S
C403   N425    1.367   .     A
C403   C530    1.413   1_455 S
C404   H418    1.080   .     S
C404   N425    1.364   .     A
C404   C533    1.434   1_455 S
C405   O438    1.390   .     S
C405   N426    1.374   .     A
C405   C468    1.434   .     S
C406   O432    1.292   .     A
C406   O431    1.290   .     A
C407   O433    1.293   .     A
C407   C409    1.459   .     S
C407   O434    1.294   .     A
C408   C965    1.407   1_554 S
C408   O1019   1.381   1_554 S
C410   F448    1.357   .     S
C410   C411    1.389   .     A
C411   C988    1.388   .     S
C411   H998    1.082   .     S
C412   H421    1.076   .     S
C412   C987    1.388   1_554 S
C412   C962    1.415   1_554 S
Cu413  O433    1.973   .     S
Cu413  O427    1.966   .     S
Cu413  Cu414   2.679   .     S
Cu413  O431    1.963   .     S
Cu413  N425    2.013   .     S
Cu413  O429    1.980   .     S
Cu414  O430    1.973   .     S
Cu414  O434    1.980   .     S
Cu414  O428    1.963   .     S
Cu414  O432    1.966   .     S
Cu414  N426    2.013   .     S
H422   C987    1.082   1_554 S
O438   C439    1.412   .     S
C439   H440    1.109   .     S
C439   H441    1.114   .     S
C439   H506    1.111   .     S
H442   C567    1.111   1_455 S
O443   C444    1.409   .     S
O443   C984    1.381   .     S
C444   H445    1.113   .     S
C444   H1022   1.113   .     S
C444   H511    1.109   .     S
H446   C1020   1.113   1_554 S
H447   C572    1.109   1_455 S
C449   O492    1.293   .     A
C449   C465    1.452   .     S
C449   O491    1.291   .     A
C450   C451    1.420   .     A
C450   C1028   1.429   .     S
C450   C1052   1.415   .     S
C451   C458    1.436   .     A
C451   C455    1.413   .     A
C452   C456    1.399   .     A
C452   C1026   1.429   1_554 S
C452   C1029   1.420   1_554 S
C453   C454    1.385   .     A
C453   C1028   1.420   .     S
C453   C1048   1.407   .     S
C454   C455    1.377   .     A
C454   H483    1.084   .     S
C455   H487    1.067   .     S
C456   C473    1.399   .     A
C456   H484    1.075   .     S
C457   C472    1.392   .     A
C457   F499    1.358   .     S
C457   C473    1.401   .     A
C458   C460    1.491   .     S
C458   C474    1.407   .     A
C459   H488    1.083   .     S
C459   C465    1.402   .     A
C459   C77     1.384   1_565 S
C460   O494    1.289   .     A
C460   O493    1.313   .     A
C461   C462    1.399   .     A
C461   H479    1.083   .     S
C462   C470    1.448   .     S
C462   C463    1.400   .     A
C463   H480    1.084   .     S
C464   C465    1.406   .     A
C464   F500    1.358   .     S
C464   C79     1.383   1_565 S
C466   N490    1.365   .     A
C466   H481    1.080   .     S
C466   C531    1.413   .     S
C467   F501    1.355   .     S
C467   N489    1.367   .     A
C468   H482    1.080   .     S
C468   N489    1.364   .     A
C469   O502    1.390   .     S
C469   N490    1.374   .     A
C469   C532    1.434   .     S
C470   O496    1.292   .     A
C470   O495    1.290   .     A
C471   O497    1.293   .     A
C471   C473    1.459   .     S
C471   O498    1.294   .     A
C472   C1029   1.407   1_554 S
C472   O1083   1.381   1_554 S
C474   F512    1.357   .     S
C474   C475    1.389   .     A
C475   C1052   1.388   .     S
C475   H1062   1.082   .     S
C476   H485    1.076   .     S
C476   C1051   1.388   1_554 S
C476   C1026   1.415   1_554 S
Cu477  O497    1.973   .     S
Cu477  O491    1.966   .     S
Cu477  Cu478   2.679   .     S
Cu477  O495    1.963   .     S
Cu477  N489    2.013   .     S
Cu477  O493    1.980   .     S
Cu478  O494    1.973   .     S
Cu478  O498    1.980   .     S
Cu478  O492    1.963   .     S
Cu478  O496    1.966   .     S
Cu478  N490    2.013   .     S
H486   C1051   1.082   1_554 S
O502   C503    1.412   .     S
C503   H504    1.109   .     S
C503   H505    1.114   .     S
C503   H570    1.111   .     S
O507   C508    1.409   .     S
O507   C1048   1.381   .     S
C508   H509    1.113   .     S
C508   H1086   1.113   .     S
C508   H575    1.109   .     S
H510   C1084   1.113   1_554 S
C513   O556    1.293   .     A
C513   C529    1.452   .     S
C513   O555    1.291   .     A
C514   C515    1.420   .     A
C514   C1092   1.429   .     S
C514   C1116   1.415   .     S
C515   C522    1.436   .     A
C515   C519    1.413   .     A
C516   C520    1.399   .     A
C516   C1090   1.429   1_554 S
C516   C1093   1.420   1_554 S
C517   C518    1.385   .     A
C517   C1092   1.420   .     S
C517   C1112   1.407   .     S
C518   C519    1.377   .     A
C518   H547    1.084   .     S
C519   H551    1.067   .     S
C520   C537    1.399   .     A
C520   H548    1.075   .     S
C521   C536    1.392   .     A
C521   F563    1.358   .     S
C521   C537    1.401   .     A
C522   C524    1.491   .     S
C522   C538    1.407   .     A
C523   H552    1.083   .     S
C523   C529    1.402   .     A
C523   C141    1.384   1_565 S
C524   O558    1.289   .     A
C524   O557    1.313   .     A
C525   C526    1.399   .     A
C525   H543    1.083   .     S
C526   C534    1.448   .     S
C526   C527    1.400   .     A
C527   H544    1.084   .     S
C528   C529    1.406   .     A
C528   F564    1.358   .     S
C528   C143    1.383   1_565 S
C530   N554    1.365   .     A
C530   H545    1.080   .     S
C530   C403    1.413   1_655 S
C531   F565    1.355   .     S
C531   N553    1.367   .     A
C532   H546    1.080   .     S
C532   N553    1.364   .     A
C533   O566    1.390   .     S
C533   N554    1.374   .     A
C533   C404    1.434   1_655 S
C534   O560    1.292   .     A
C534   O559    1.290   .     A
C535   O561    1.293   .     A
C535   C537    1.459   .     S
C535   O562    1.294   .     A
C536   C1093   1.407   1_554 S
C536   O1147   1.381   1_554 S
C538   F576    1.357   .     S
C538   C539    1.389   .     A
C539   C1116   1.388   .     S
C539   H1126   1.082   .     S
C540   H549    1.076   .     S
C540   C1115   1.388   1_554 S
C540   C1090   1.415   1_554 S
Cu541  O561    1.973   .     S
Cu541  O555    1.966   .     S
Cu541  Cu542   2.679   .     S
Cu541  O559    1.963   .     S
Cu541  N553    2.013   .     S
Cu541  O557    1.980   .     S
Cu542  O558    1.973   .     S
Cu542  O562    1.980   .     S
Cu542  O556    1.963   .     S
Cu542  O560    1.966   .     S
Cu542  N554    2.013   .     S
H550   C1115   1.082   1_554 S
O566   C567    1.412   .     S
C567   H568    1.109   .     S
C567   H569    1.114   .     S
C567   H442    1.111   1_655 S
O571   C572    1.409   .     S
O571   C1112   1.381   .     S
C572   H573    1.113   .     S
C572   H1150   1.113   .     S
C572   H447    1.109   1_655 S
H574   C1148   1.113   1_554 S
C577   O620    1.293   .     A
C577   C593    1.452   .     S
C577   O619    1.291   .     A
C578   C579    1.420   .     A
C578   C4      1.429   1_556 S
C578   C28     1.415   1_556 S
C579   C586    1.436   .     A
C579   C583    1.413   .     A
C580   C584    1.399   .     A
C581   C582    1.385   .     A
C581   C4      1.420   1_556 S
C581   C24     1.407   1_556 S
C582   C583    1.377   .     A
C582   H611    1.084   .     S
C583   H615    1.067   .     S
C584   C601    1.399   .     A
C584   H612    1.075   .     S
C585   C600    1.392   .     A
C585   F627    1.358   .     S
C585   C601    1.401   .     A
C586   C588    1.491   .     S
C586   C602    1.407   .     A
C587   H616    1.083   .     S
C587   C593    1.402   .     A
C587   C781    1.384   .     S
C588   O622    1.289   .     A
C588   O621    1.313   .     A
C589   C590    1.399   .     A
C589   H607    1.083   .     S
C589   C971    1.384   1_545 S
C590   C598    1.448   .     S
C590   C591    1.400   .     A
C591   H608    1.084   .     S
C591   C976    1.383   1_545 S
C592   C593    1.406   .     A
C592   F628    1.358   .     S
C592   C783    1.383   .     S
C594   N618    1.365   .     A
C594   H609    1.080   .     S
C594   C659    1.413   .     S
C595   F629    1.355   .     S
C595   N617    1.367   .     A
C595   C722    1.413   1_455 S
C596   H610    1.080   .     S
C596   N617    1.364   .     A
C596   C725    1.434   1_455 S
C597   O630    1.390   .     S
C597   N618    1.374   .     A
C597   C660    1.434   .     S
C598   O624    1.292   .     A
C598   O623    1.290   .     A
C599   O625    1.293   .     A
C599   C601    1.459   .     S
C599   O626    1.294   .     A
C602   F640    1.357   .     S
C602   C603    1.389   .     A
C603   C28     1.388   1_556 S
C603   H38     1.082   1_556 S
C604   H613    1.076   .     S
Cu605  O625    1.973   .     S
Cu605  O619    1.966   .     S
Cu605  Cu606   2.679   .     S
Cu605  O623    1.963   .     S
Cu605  N617    2.013   .     S
Cu605  O621    1.980   .     S
Cu606  O622    1.973   .     S
Cu606  O626    1.980   .     S
Cu606  O620    1.963   .     S
Cu606  O624    1.966   .     S
Cu606  N618    2.013   .     S
O630   C631    1.412   .     S
C631   H632    1.109   .     S
C631   H633    1.114   .     S
C631   H698    1.111   .     S
H634   C759    1.111   1_455 S
O635   C636    1.409   .     S
O635   C24     1.381   1_556 S
C636   H637    1.113   .     S
C636   H62     1.113   1_556 S
C636   H703    1.109   .     S
H639   C764    1.109   1_455 S
C641   O684    1.293   .     A
C641   C657    1.452   .     S
C641   O683    1.291   .     A
C642   C643    1.420   .     A
C642   C68     1.429   1_556 S
C642   C92     1.415   1_556 S
C643   C650    1.436   .     A
C643   C647    1.413   .     A
C644   C648    1.399   .     A
C645   C646    1.385   .     A
C645   C68     1.420   1_556 S
C645   C88     1.407   1_556 S
C646   C647    1.377   .     A
C646   H675    1.084   .     S
C647   H679    1.067   .     S
C648   C665    1.399   .     A
C648   H676    1.075   .     S
C649   C664    1.392   .     A
C649   F691    1.358   .     S
C649   C665    1.401   .     A
C650   C652    1.491   .     S
C650   C666    1.407   .     A
C651   H680    1.083   .     S
C651   C657    1.402   .     A
C651   C845    1.384   .     S
C652   O686    1.289   .     A
C652   O685    1.313   .     A
C653   C654    1.399   .     A
C653   H671    1.083   .     S
C653   C1035   1.384   1_545 S
C654   C662    1.448   .     S
C654   C655    1.400   .     A
C655   H672    1.084   .     S
C655   C1040   1.383   1_545 S
C656   C657    1.406   .     A
C656   F692    1.358   .     S
C656   C847    1.383   .     S
C658   N682    1.365   .     A
C658   H673    1.080   .     S
C658   C723    1.413   .     S
C659   F693    1.355   .     S
C659   N681    1.367   .     A
C660   H674    1.080   .     S
C660   N681    1.364   .     A
C661   O694    1.390   .     S
C661   N682    1.374   .     A
C661   C724    1.434   .     S
C662   O688    1.292   .     A
C662   O687    1.290   .     A
C663   O689    1.293   .     A
C663   C665    1.459   .     S
C663   O690    1.294   .     A
C666   F704    1.357   .     S
C666   C667    1.389   .     A
C667   C92     1.388   1_556 S
C667   H102    1.082   1_556 S
C668   H677    1.076   .     S
Cu669  O689    1.973   .     S
Cu669  O683    1.966   .     S
Cu669  Cu670   2.679   .     S
Cu669  O687    1.963   .     S
Cu669  N681    2.013   .     S
Cu669  O685    1.980   .     S
Cu670  O686    1.973   .     S
Cu670  O690    1.980   .     S
Cu670  O684    1.963   .     S
Cu670  O688    1.966   .     S
Cu670  N682    2.013   .     S
O694   C695    1.412   .     S
C695   H696    1.109   .     S
C695   H697    1.114   .     S
C695   H762    1.111   .     S
O699   C700    1.409   .     S
O699   C88     1.381   1_556 S
C700   H701    1.113   .     S
C700   H126    1.113   1_556 S
C700   H767    1.109   .     S
C705   O748    1.293   .     A
C705   C721    1.452   .     S
C705   O747    1.291   .     A
C706   C707    1.420   .     A
C706   C132    1.429   1_556 S
C706   C156    1.415   1_556 S
C707   C714    1.436   .     A
C707   C711    1.413   .     A
C708   C712    1.399   .     A
C709   C710    1.385   .     A
C709   C132    1.420   1_556 S
C709   C152    1.407   1_556 S
C710   C711    1.377   .     A
C710   H739    1.084   .     S
C711   H743    1.067   .     S
C712   C729    1.399   .     A
C712   H740    1.075   .     S
C713   C728    1.392   .     A
C713   F755    1.358   .     S
C713   C729    1.401   .     A
C714   C716    1.491   .     S
C714   C730    1.407   .     A
C715   H744    1.083   .     S
C715   C721    1.402   .     A
C715   C909    1.384   .     S
C716   O750    1.289   .     A
C716   O749    1.313   .     A
C717   C718    1.399   .     A
C717   H735    1.083   .     S
C717   C1099   1.384   1_545 S
C718   C726    1.448   .     S
C718   C719    1.400   .     A
C719   H736    1.084   .     S
C719   C1104   1.383   1_545 S
C720   C721    1.406   .     A
C720   F756    1.358   .     S
C720   C911    1.383   .     S
C722   N746    1.365   .     A
C722   H737    1.080   .     S
C722   C595    1.413   1_655 S
C723   F757    1.355   .     S
C723   N745    1.367   .     A
C724   H738    1.080   .     S
C724   N745    1.364   .     A
C725   O758    1.390   .     S
C725   N746    1.374   .     A
C725   C596    1.434   1_655 S
C726   O752    1.292   .     A
C726   O751    1.290   .     A
C727   O753    1.293   .     A
C727   C729    1.459   .     S
C727   O754    1.294   .     A
C730   F768    1.357   .     S
C730   C731    1.389   .     A
C731   C156    1.388   1_556 S
C731   H166    1.082   1_556 S
C732   H741    1.076   .     S
Cu733  O753    1.973   .     S
Cu733  O747    1.966   .     S
Cu733  Cu734   2.679   .     S
Cu733  O751    1.963   .     S
Cu733  N745    2.013   .     S
Cu733  O749    1.980   .     S
Cu734  O750    1.973   .     S
Cu734  O754    1.980   .     S
Cu734  O748    1.963   .     S
Cu734  O752    1.966   .     S
Cu734  N746    2.013   .     S
O758   C759    1.412   .     S
C759   H760    1.109   .     S
C759   H761    1.114   .     S
C759   H634    1.111   1_655 S
O763   C764    1.409   .     S
O763   C152    1.381   1_556 S
C764   H765    1.113   .     S
C764   H190    1.113   1_556 S
C764   H639    1.109   1_655 S
C769   O812    1.293   .     A
C769   C785    1.452   .     S
C769   O811    1.291   .     A
C770   C771    1.420   .     A
C770   C196    1.429   1_556 S
C770   C220    1.415   1_556 S
C771   C778    1.436   .     A
C771   C775    1.413   .     A
C772   C776    1.399   .     A
C773   C774    1.385   .     A
C773   C196    1.420   1_556 S
C773   C216    1.407   1_556 S
C774   C775    1.377   .     A
C774   H803    1.084   .     S
C775   H807    1.067   .     S
C776   C793    1.399   .     A
C776   H804    1.075   .     S
C777   C792    1.392   .     A
C777   F819    1.358   .     S
C777   C793    1.401   .     A
C778   C780    1.491   .     S
C778   C794    1.407   .     A
C779   H808    1.083   .     S
C779   C785    1.402   .     A
C779   C973    1.384   .     S
C780   O814    1.289   .     A
C780   O813    1.313   .     A
C781   C782    1.399   .     A
C781   H799    1.083   .     S
C782   C790    1.448   .     S
C782   C783    1.400   .     A
C783   H800    1.084   .     S
C784   C785    1.406   .     A
C784   F820    1.358   .     S
C784   C975    1.383   .     S
C786   N810    1.365   .     A
C786   H801    1.080   .     S
C786   C851    1.413   .     S
C787   F821    1.355   .     S
C787   N809    1.367   .     A
C787   C914    1.413   1_455 S
C788   H802    1.080   .     S
C788   N809    1.364   .     A
C788   C917    1.434   1_455 S
C789   O822    1.390   .     S
C789   N810    1.374   .     A
C789   C852    1.434   .     S
C790   O816    1.292   .     A
C790   O815    1.290   .     A
C791   O817    1.293   .     A
C791   C793    1.459   .     S
C791   O818    1.294   .     A
C794   F832    1.357   .     S
C794   C795    1.389   .     A
C795   C220    1.388   1_556 S
C795   H230    1.082   1_556 S
C796   H805    1.076   .     S
Cu797  O817    1.973   .     S
Cu797  O811    1.966   .     S
Cu797  Cu798   2.679   .     S
Cu797  O815    1.963   .     S
Cu797  N809    2.013   .     S
Cu797  O813    1.980   .     S
Cu798  O814    1.973   .     S
Cu798  O818    1.980   .     S
Cu798  O812    1.963   .     S
Cu798  O816    1.966   .     S
Cu798  N810    2.013   .     S
O822   C823    1.412   .     S
C823   H824    1.109   .     S
C823   H825    1.114   .     S
C823   H890    1.111   .     S
H826   C951    1.111   1_455 S
O827   C828    1.409   .     S
O827   C216    1.381   1_556 S
C828   H829    1.113   .     S
C828   H254    1.113   1_556 S
C828   H895    1.109   .     S
H831   C956    1.109   1_455 S
C833   O876    1.293   .     A
C833   C849    1.452   .     S
C833   O875    1.291   .     A
C834   C835    1.420   .     A
C834   C260    1.429   1_556 S
C834   C284    1.415   1_556 S
C835   C842    1.436   .     A
C835   C839    1.413   .     A
C836   C840    1.399   .     A
C837   C838    1.385   .     A
C837   C260    1.420   1_556 S
C837   C280    1.407   1_556 S
C838   C839    1.377   .     A
C838   H867    1.084   .     S
C839   H871    1.067   .     S
C840   C857    1.399   .     A
C840   H868    1.075   .     S
C841   C856    1.392   .     A
C841   F883    1.358   .     S
C841   C857    1.401   .     A
C842   C844    1.491   .     S
C842   C858    1.407   .     A
C843   H872    1.083   .     S
C843   C849    1.402   .     A
C843   C1037   1.384   .     S
C844   O878    1.289   .     A
C844   O877    1.313   .     A
C845   C846    1.399   .     A
C845   H863    1.083   .     S
C846   C854    1.448   .     S
C846   C847    1.400   .     A
C847   H864    1.084   .     S
C848   C849    1.406   .     A
C848   F884    1.358   .     S
C848   C1039   1.383   .     S
C850   N874    1.365   .     A
C850   H865    1.080   .     S
C850   C915    1.413   .     S
C851   F885    1.355   .     S
C851   N873    1.367   .     A
C852   H866    1.080   .     S
C852   N873    1.364   .     A
C853   O886    1.390   .     S
C853   N874    1.374   .     A
C853   C916    1.434   .     S
C854   O880    1.292   .     A
C854   O879    1.290   .     A
C855   O881    1.293   .     A
C855   C857    1.459   .     S
C855   O882    1.294   .     A
C858   F896    1.357   .     S
C858   C859    1.389   .     A
C859   C284    1.388   1_556 S
C859   H294    1.082   1_556 S
C860   H869    1.076   .     S
Cu861  O881    1.973   .     S
Cu861  O875    1.966   .     S
Cu861  Cu862   2.679   .     S
Cu861  O879    1.963   .     S
Cu861  N873    2.013   .     S
Cu861  O877    1.980   .     S
Cu862  O878    1.973   .     S
Cu862  O882    1.980   .     S
Cu862  O876    1.963   .     S
Cu862  O880    1.966   .     S
Cu862  N874    2.013   .     S
O886   C887    1.412   .     S
C887   H888    1.109   .     S
C887   H889    1.114   .     S
C887   H954    1.111   .     S
O891   C892    1.409   .     S
O891   C280    1.381   1_556 S
C892   H893    1.113   .     S
C892   H318    1.113   1_556 S
C892   H959    1.109   .     S
C897   O940    1.293   .     A
C897   C913    1.452   .     S
C897   O939    1.291   .     A
C898   C899    1.420   .     A
C898   C324    1.429   1_556 S
C898   C348    1.415   1_556 S
C899   C906    1.436   .     A
C899   C903    1.413   .     A
C900   C904    1.399   .     A
C901   C902    1.385   .     A
C901   C324    1.420   1_556 S
C901   C344    1.407   1_556 S
C902   C903    1.377   .     A
C902   H931    1.084   .     S
C903   H935    1.067   .     S
C904   C921    1.399   .     A
C904   H932    1.075   .     S
C905   C920    1.392   .     A
C905   F947    1.358   .     S
C905   C921    1.401   .     A
C906   C908    1.491   .     S
C906   C922    1.407   .     A
C907   H936    1.083   .     S
C907   C913    1.402   .     A
C907   C1101   1.384   .     S
C908   O942    1.289   .     A
C908   O941    1.313   .     A
C909   C910    1.399   .     A
C909   H927    1.083   .     S
C910   C918    1.448   .     S
C910   C911    1.400   .     A
C911   H928    1.084   .     S
C912   C913    1.406   .     A
C912   F948    1.358   .     S
C912   C1103   1.383   .     S
C914   N938    1.365   .     A
C914   H929    1.080   .     S
C914   C787    1.413   1_655 S
C915   F949    1.355   .     S
C915   N937    1.367   .     A
C916   H930    1.080   .     S
C916   N937    1.364   .     A
C917   O950    1.390   .     S
C917   N938    1.374   .     A
C917   C788    1.434   1_655 S
C918   O944    1.292   .     A
C918   O943    1.290   .     A
C919   O945    1.293   .     A
C919   C921    1.459   .     S
C919   O946    1.294   .     A
C922   F960    1.357   .     S
C922   C923    1.389   .     A
C923   C348    1.388   1_556 S
C923   H358    1.082   1_556 S
C924   H933    1.076   .     S
Cu925  O945    1.973   .     S
Cu925  O939    1.966   .     S
Cu925  Cu926   2.679   .     S
Cu925  O943    1.963   .     S
Cu925  N937    2.013   .     S
Cu925  O941    1.980   .     S
Cu926  O942    1.973   .     S
Cu926  O946    1.980   .     S
Cu926  O940    1.963   .     S
Cu926  O944    1.966   .     S
Cu926  N938    2.013   .     S
O950   C951    1.412   .     S
C951   H952    1.109   .     S
C951   H953    1.114   .     S
C951   H826    1.111   1_655 S
O955   C956    1.409   .     S
O955   C344    1.381   1_556 S
C956   H957    1.113   .     S
C956   H382    1.113   1_556 S
C956   H831    1.109   1_655 S
C961   O1004   1.293   .     A
C961   C977    1.452   .     S
C961   O1003   1.291   .     A
C962   C963    1.420   .     A
C962   C388    1.429   1_556 S
C962   C412    1.415   1_556 S
C963   C970    1.436   .     A
C963   C967    1.413   .     A
C964   C968    1.399   .     A
C965   C966    1.385   .     A
C965   C388    1.420   1_556 S
C965   C408    1.407   1_556 S
C966   C967    1.377   .     A
C966   H995    1.084   .     S
C967   H999    1.067   .     S
C968   C985    1.399   .     A
C968   H996    1.075   .     S
C969   C984    1.392   .     A
C969   F1011   1.358   .     S
C969   C985    1.401   .     A
C970   C972    1.491   .     S
C970   C986    1.407   .     A
C971   H1000   1.083   .     S
C971   C977    1.402   .     A
C971   C589    1.384   1_565 S
C972   O1006   1.289   .     A
C972   O1005   1.313   .     A
C973   C974    1.399   .     A
C973   H991    1.083   .     S
C974   C982    1.448   .     S
C974   C975    1.400   .     A
C975   H992    1.084   .     S
C976   C977    1.406   .     A
C976   F1012   1.358   .     S
C976   C591    1.383   1_565 S
C978   N1002   1.365   .     A
C978   H993    1.080   .     S
C978   C1043   1.413   .     S
C979   F1013   1.355   .     S
C979   N1001   1.367   .     A
C979   C1106   1.413   1_455 S
C980   H994    1.080   .     S
C980   N1001   1.364   .     A
C980   C1109   1.434   1_455 S
C981   O1014   1.390   .     S
C981   N1002   1.374   .     A
C981   C1044   1.434   .     S
C982   O1008   1.292   .     A
C982   O1007   1.290   .     A
C983   O1009   1.293   .     A
C983   C985    1.459   .     S
C983   O1010   1.294   .     A
C986   F1024   1.357   .     S
C986   C987    1.389   .     A
C987   C412    1.388   1_556 S
C987   H422    1.082   1_556 S
C988   H997    1.076   .     S
Cu989  O1009   1.973   .     S
Cu989  O1003   1.966   .     S
Cu989  Cu990   2.679   .     S
Cu989  O1007   1.963   .     S
Cu989  N1001   2.013   .     S
Cu989  O1005   1.980   .     S
Cu990  O1006   1.973   .     S
Cu990  O1010   1.980   .     S
Cu990  O1004   1.963   .     S
Cu990  O1008   1.966   .     S
Cu990  N1002   2.013   .     S
O1014  C1015   1.412   .     S
C1015  H1016   1.109   .     S
C1015  H1017   1.114   .     S
C1015  H1082   1.111   .     S
H1018  C1143   1.111   1_455 S
O1019  C1020   1.409   .     S
O1019  C408    1.381   1_556 S
C1020  H1021   1.113   .     S
C1020  H446    1.113   1_556 S
C1020  H1087   1.109   .     S
H1023  C1148   1.109   1_455 S
C1025  O1068   1.293   .     A
C1025  C1041   1.452   .     S
C1025  O1067   1.291   .     A
C1026  C1027   1.420   .     A
C1026  C452    1.429   1_556 S
C1026  C476    1.415   1_556 S
C1027  C1034   1.436   .     A
C1027  C1031   1.413   .     A
C1028  C1032   1.399   .     A
C1029  C1030   1.385   .     A
C1029  C452    1.420   1_556 S
C1029  C472    1.407   1_556 S
C1030  C1031   1.377   .     A
C1030  H1059   1.084   .     S
C1031  H1063   1.067   .     S
C1032  C1049   1.399   .     A
C1032  H1060   1.075   .     S
C1033  C1048   1.392   .     A
C1033  F1075   1.358   .     S
C1033  C1049   1.401   .     A
C1034  C1036   1.491   .     S
C1034  C1050   1.407   .     A
C1035  H1064   1.083   .     S
C1035  C1041   1.402   .     A
C1035  C653    1.384   1_565 S
C1036  O1070   1.289   .     A
C1036  O1069   1.313   .     A
C1037  C1038   1.399   .     A
C1037  H1055   1.083   .     S
C1038  C1046   1.448   .     S
C1038  C1039   1.400   .     A
C1039  H1056   1.084   .     S
C1040  C1041   1.406   .     A
C1040  F1076   1.358   .     S
C1040  C655    1.383   1_565 S
C1042  N1066   1.365   .     A
C1042  H1057   1.080   .     S
C1042  C1107   1.413   .     S
C1043  F1077   1.355   .     S
C1043  N1065   1.367   .     A
C1044  H1058   1.080   .     S
C1044  N1065   1.364   .     A
C1045  O1078   1.390   .     S
C1045  N1066   1.374   .     A
C1045  C1108   1.434   .     S
C1046  O1072   1.292   .     A
C1046  O1071   1.290   .     A
C1047  O1073   1.293   .     A
C1047  C1049   1.459   .     S
C1047  O1074   1.294   .     A
C1050  F1088   1.357   .     S
C1050  C1051   1.389   .     A
C1051  C476    1.388   1_556 S
C1051  H486    1.082   1_556 S
C1052  H1061   1.076   .     S
Cu1053 O1073   1.973   .     S
Cu1053 O1067   1.966   .     S
Cu1053 Cu1054  2.679   .     S
Cu1053 O1071   1.963   .     S
Cu1053 N1065   2.013   .     S
Cu1053 O1069   1.980   .     S
Cu1054 O1070   1.973   .     S
Cu1054 O1074   1.980   .     S
Cu1054 O1068   1.963   .     S
Cu1054 O1072   1.966   .     S
Cu1054 N1066   2.013   .     S
O1078  C1079   1.412   .     S
C1079  H1080   1.109   .     S
C1079  H1081   1.114   .     S
C1079  H1146   1.111   .     S
O1083  C1084   1.409   .     S
O1083  C472    1.381   1_556 S
C1084  H1085   1.113   .     S
C1084  H510    1.113   1_556 S
C1084  H1151   1.109   .     S
C1089  O1132   1.293   .     A
C1089  C1105   1.452   .     S
C1089  O1131   1.291   .     A
C1090  C1091   1.420   .     A
C1090  C516    1.429   1_556 S
C1090  C540    1.415   1_556 S
C1091  C1098   1.436   .     A
C1091  C1095   1.413   .     A
C1092  C1096   1.399   .     A
C1093  C1094   1.385   .     A
C1093  C516    1.420   1_556 S
C1093  C536    1.407   1_556 S
C1094  C1095   1.377   .     A
C1094  H1123   1.084   .     S
C1095  H1127   1.067   .     S
C1096  C1113   1.399   .     A
C1096  H1124   1.075   .     S
C1097  C1112   1.392   .     A
C1097  F1139   1.358   .     S
C1097  C1113   1.401   .     A
C1098  C1100   1.491   .     S
C1098  C1114   1.407   .     A
C1099  H1128   1.083   .     S
C1099  C1105   1.402   .     A
C1099  C717    1.384   1_565 S
C1100  O1134   1.289   .     A
C1100  O1133   1.313   .     A
C1101  C1102   1.399   .     A
C1101  H1119   1.083   .     S
C1102  C1110   1.448   .     S
C1102  C1103   1.400   .     A
C1103  H1120   1.084   .     S
C1104  C1105   1.406   .     A
C1104  F1140   1.358   .     S
C1104  C719    1.383   1_565 S
C1106  N1130   1.365   .     A
C1106  H1121   1.080   .     S
C1106  C979    1.413   1_655 S
C1107  F1141   1.355   .     S
C1107  N1129   1.367   .     A
C1108  H1122   1.080   .     S
C1108  N1129   1.364   .     A
C1109  O1142   1.390   .     S
C1109  N1130   1.374   .     A
C1109  C980    1.434   1_655 S
C1110  O1136   1.292   .     A
C1110  O1135   1.290   .     A
C1111  O1137   1.293   .     A
C1111  C1113   1.459   .     S
C1111  O1138   1.294   .     A
C1114  F1152   1.357   .     S
C1114  C1115   1.389   .     A
C1115  C540    1.388   1_556 S
C1115  H550    1.082   1_556 S
C1116  H1125   1.076   .     S
Cu1117 O1137   1.973   .     S
Cu1117 O1131   1.966   .     S
Cu1117 Cu1118  2.679   .     S
Cu1117 O1135   1.963   .     S
Cu1117 N1129   2.013   .     S
Cu1117 O1133   1.980   .     S
Cu1118 O1134   1.973   .     S
Cu1118 O1138   1.980   .     S
Cu1118 O1132   1.963   .     S
Cu1118 O1136   1.966   .     S
Cu1118 N1130   2.013   .     S
O1142  C1143   1.412   .     S
C1143  H1144   1.109   .     S
C1143  H1145   1.114   .     S
C1143  H1018   1.111   1_655 S
O1147  C1148   1.409   .     S
O1147  C536    1.381   1_556 S
C1148  H1149   1.113   .     S
C1148  H574    1.113   1_556 S
C1148  H1023   1.109   1_655 S
