data_str_m2_o5_o17_pcu_sym.39
_audit_creation_date              2020-01-03
_audit_creation_method            'Materials Studio'
_symmetry_space_group_name_H-M    'P1'
_symmetry_Int_Tables_number       1
_symmetry_cell_setting            triclinic
loop_
_symmetry_equiv_pos_as_xyz
  x,y,z
_cell_length_a                    30.0559
_cell_length_b                    27.2414
_cell_length_c                    23.3821
_cell_angle_alpha                 89.8606
_cell_angle_beta                  90.0000
_cell_angle_gamma                 89.9999
loop_
_atom_site_label
_atom_site_type_symbol
_atom_site_fract_x
_atom_site_fract_y
_atom_site_fract_z
_atom_site_U_iso_or_equiv
_atom_site_adp_type
_atom_site_occupancy
O1     O     0.25000   0.09613   0.21425   0.00000  Uiso   1.00
O2     O     0.25000   0.23720   0.11908   0.00000  Uiso   1.00
O3     O     0.25000   0.23720   0.21425   0.00000  Uiso   1.00
O4     O     0.25000   0.09613   0.11908   0.00000  Uiso   1.00
H5     H     0.45976   0.04357   0.14570   0.00000  Uiso   1.00
H6     H     0.04024   0.28976   0.18764   0.00000  Uiso   1.00
H7     H     0.45976   0.28976   0.18764   0.00000  Uiso   1.00
H8     H     0.04024   0.04357   0.14570   0.00000  Uiso   1.00
C9     C     0.25000   0.07336   0.16671   0.00000  Uiso   1.00
C10    C     0.25000   0.25998   0.16662   0.00000  Uiso   1.00
O11    O     0.18513   0.16667   0.21427   0.00000  Uiso   1.00
O12    O     0.31487   0.16667   0.11907   0.00000  Uiso   1.00
O13    O     0.31487   0.16667   0.21427   0.00000  Uiso   1.00
O14    O     0.18513   0.16667   0.11907   0.00000  Uiso   1.00
C15    C     0.16434   0.16667   0.16667   0.00000  Uiso   1.00
C16    C     0.33566   0.16667   0.16667   0.00000  Uiso   1.00
Cu17   Cu    0.25000   0.16667   0.22303   0.00000  Uiso   1.00
Cu18   Cu    0.25000   0.16667   0.11031   0.00000  Uiso   1.00
N19    N     0.25000   0.16667   0.02561   0.00000  Uiso   1.00
N20    N     0.25000   0.16667   0.30773   0.00000  Uiso   1.00
C21    C     0.40654   0.21147   0.17073   0.00000  Uiso   1.00
C22    C     0.09346   0.12186   0.16260   0.00000  Uiso   1.00
C23    C     0.40654   0.12186   0.16261   0.00000  Uiso   1.00
C24    C     0.09346   0.21147   0.17073   0.00000  Uiso   1.00
C25    C     0.38376   0.16667   0.16667   0.00000  Uiso   1.00
C26    C     0.11625   0.16667   0.16667   0.00000  Uiso   1.00
C27    C     0.45319   0.12191   0.16031   0.00000  Uiso   1.00
C28    C     0.04681   0.21142   0.17302   0.00000  Uiso   1.00
C29    C     0.45319   0.21142   0.17302   0.00000  Uiso   1.00
C30    C     0.04681   0.12191   0.16031   0.00000  Uiso   1.00
C31    C     0.47657   0.16667   0.16667   0.00000  Uiso   1.00
C32    C     0.02343   0.16667   0.16667   0.00000  Uiso   1.00
C33    C     0.47688   0.07810   0.15208   0.00000  Uiso   1.00
C34    C     0.02312   0.25523   0.18125   0.00000  Uiso   1.00
C35    C     0.47688   0.25523   0.18125   0.00000  Uiso   1.00
C36    C     0.02312   0.07810   0.15208   0.00000  Uiso   1.00
C37    C     0.25000   0.02180   0.16673   0.00000  Uiso   1.00
C38    C     0.25000   0.31153   0.16661   0.00000  Uiso   1.00
O39    O     0.38283   0.25491   0.17535   0.00000  Uiso   1.00
C40    C     0.37712   0.27479   0.12002   0.00000  Uiso   1.00
H41    H     0.36005   0.24863   0.09086   0.00000  Uiso   1.00
H42    H     0.40949   0.28631   0.10125   0.00000  Uiso   1.00
H43    H     0.35578   0.30787   0.12311   0.00000  Uiso   1.00
O44    O     0.11717   0.07843   0.15798   0.00000  Uiso   1.00
C45    C     0.12289   0.05854   0.21331   0.00000  Uiso   1.00
H46    H     0.14422   0.02546   0.21022   0.00000  Uiso   1.00
H47    H     0.09051   0.04702   0.23208   0.00000  Uiso   1.00
H48    H     0.13995   0.08470   0.24247   0.00000  Uiso   1.00
O49    O     0.38283   0.07842   0.15798   0.00000  Uiso   1.00
C50    C     0.37712   0.05854   0.21331   0.00000  Uiso   1.00
H51    H     0.36002   0.08469   0.24246   0.00000  Uiso   1.00
H52    H     0.40949   0.04706   0.23210   0.00000  Uiso   1.00
H53    H     0.35580   0.02544   0.21022   0.00000  Uiso   1.00
O54    O     0.11717   0.25491   0.17535   0.00000  Uiso   1.00
C55    C     0.12289   0.27479   0.12002   0.00000  Uiso   1.00
H56    H     0.09051   0.28631   0.10126   0.00000  Uiso   1.00
H57    H     0.13995   0.24864   0.09086   0.00000  Uiso   1.00
H58    H     0.14422   0.30788   0.12311   0.00000  Uiso   1.00
O59    O     0.75000   0.09613   0.21425   0.00000  Uiso   1.00
O60    O     0.75000   0.23720   0.11908   0.00000  Uiso   1.00
O61    O     0.75000   0.23720   0.21425   0.00000  Uiso   1.00
O62    O     0.75000   0.09613   0.11908   0.00000  Uiso   1.00
H63    H     0.95976   0.04357   0.14570   0.00000  Uiso   1.00
H64    H     0.54024   0.28976   0.18764   0.00000  Uiso   1.00
H65    H     0.95976   0.28976   0.18764   0.00000  Uiso   1.00
H66    H     0.54024   0.04357   0.14570   0.00000  Uiso   1.00
C67    C     0.75000   0.07336   0.16671   0.00000  Uiso   1.00
C68    C     0.75000   0.25998   0.16662   0.00000  Uiso   1.00
O69    O     0.68513   0.16667   0.21427   0.00000  Uiso   1.00
O70    O     0.81487   0.16667   0.11907   0.00000  Uiso   1.00
O71    O     0.81487   0.16667   0.21427   0.00000  Uiso   1.00
O72    O     0.68513   0.16667   0.11907   0.00000  Uiso   1.00
C73    C     0.66434   0.16667   0.16667   0.00000  Uiso   1.00
C74    C     0.83566   0.16667   0.16667   0.00000  Uiso   1.00
Cu75   Cu    0.75000   0.16667   0.22303   0.00000  Uiso   1.00
Cu76   Cu    0.75000   0.16667   0.11031   0.00000  Uiso   1.00
N77    N     0.75000   0.16667   0.02561   0.00000  Uiso   1.00
N78    N     0.75000   0.16667   0.30773   0.00000  Uiso   1.00
C79    C     0.90654   0.21147   0.17073   0.00000  Uiso   1.00
C80    C     0.59346   0.12186   0.16260   0.00000  Uiso   1.00
C81    C     0.90654   0.12186   0.16261   0.00000  Uiso   1.00
C82    C     0.59346   0.21147   0.17073   0.00000  Uiso   1.00
C83    C     0.88376   0.16667   0.16667   0.00000  Uiso   1.00
C84    C     0.61625   0.16667   0.16667   0.00000  Uiso   1.00
C85    C     0.95319   0.12191   0.16031   0.00000  Uiso   1.00
C86    C     0.54681   0.21142   0.17302   0.00000  Uiso   1.00
C87    C     0.95319   0.21142   0.17302   0.00000  Uiso   1.00
C88    C     0.54681   0.12191   0.16031   0.00000  Uiso   1.00
C89    C     0.97657   0.16667   0.16667   0.00000  Uiso   1.00
C90    C     0.52343   0.16667   0.16667   0.00000  Uiso   1.00
C91    C     0.97688   0.07810   0.15208   0.00000  Uiso   1.00
C92    C     0.52312   0.25523   0.18125   0.00000  Uiso   1.00
C93    C     0.97688   0.25523   0.18125   0.00000  Uiso   1.00
C94    C     0.52312   0.07810   0.15208   0.00000  Uiso   1.00
C95    C     0.75000   0.02180   0.16673   0.00000  Uiso   1.00
C96    C     0.75000   0.31153   0.16661   0.00000  Uiso   1.00
O97    O     0.88283   0.25491   0.17535   0.00000  Uiso   1.00
C98    C     0.87712   0.27479   0.12002   0.00000  Uiso   1.00
H99    H     0.86005   0.24863   0.09086   0.00000  Uiso   1.00
H100   H     0.90949   0.28631   0.10125   0.00000  Uiso   1.00
H101   H     0.85578   0.30787   0.12311   0.00000  Uiso   1.00
O102   O     0.61717   0.07843   0.15798   0.00000  Uiso   1.00
C103   C     0.62289   0.05854   0.21331   0.00000  Uiso   1.00
H104   H     0.64422   0.02546   0.21022   0.00000  Uiso   1.00
H105   H     0.59051   0.04702   0.23208   0.00000  Uiso   1.00
H106   H     0.63995   0.08470   0.24247   0.00000  Uiso   1.00
O107   O     0.88283   0.07842   0.15798   0.00000  Uiso   1.00
C108   C     0.87712   0.05854   0.21331   0.00000  Uiso   1.00
H109   H     0.86002   0.08469   0.24246   0.00000  Uiso   1.00
H110   H     0.90949   0.04706   0.23210   0.00000  Uiso   1.00
H111   H     0.85580   0.02544   0.21022   0.00000  Uiso   1.00
O112   O     0.61717   0.25491   0.17535   0.00000  Uiso   1.00
C113   C     0.62289   0.27479   0.12002   0.00000  Uiso   1.00
H114   H     0.59051   0.28631   0.10126   0.00000  Uiso   1.00
H115   H     0.63995   0.24864   0.09086   0.00000  Uiso   1.00
H116   H     0.64422   0.30788   0.12311   0.00000  Uiso   1.00
O117   O     0.25000   0.42946   0.21425   0.00000  Uiso   1.00
O118   O     0.25000   0.57054   0.11908   0.00000  Uiso   1.00
O119   O     0.25000   0.57054   0.21425   0.00000  Uiso   1.00
O120   O     0.25000   0.42946   0.11908   0.00000  Uiso   1.00
H121   H     0.45976   0.37690   0.14570   0.00000  Uiso   1.00
H122   H     0.04024   0.62310   0.18764   0.00000  Uiso   1.00
H123   H     0.45976   0.62309   0.18764   0.00000  Uiso   1.00
H124   H     0.04024   0.37690   0.14570   0.00000  Uiso   1.00
C125   C     0.25000   0.40669   0.16671   0.00000  Uiso   1.00
C126   C     0.25000   0.59331   0.16662   0.00000  Uiso   1.00
O127   O     0.18513   0.50000   0.21427   0.00000  Uiso   1.00
O128   O     0.31487   0.50000   0.11907   0.00000  Uiso   1.00
O129   O     0.31487   0.50000   0.21427   0.00000  Uiso   1.00
O130   O     0.18513   0.50000   0.11907   0.00000  Uiso   1.00
C131   C     0.16434   0.50000   0.16667   0.00000  Uiso   1.00
C132   C     0.33566   0.50000   0.16667   0.00000  Uiso   1.00
Cu133  Cu    0.25000   0.50000   0.22303   0.00000  Uiso   1.00
Cu134  Cu    0.25000   0.50000   0.11031   0.00000  Uiso   1.00
N135   N     0.25000   0.50000   0.02561   0.00000  Uiso   1.00
N136   N     0.25000   0.50000   0.30773   0.00000  Uiso   1.00
C137   C     0.40654   0.54481   0.17073   0.00000  Uiso   1.00
C138   C     0.09346   0.45519   0.16260   0.00000  Uiso   1.00
C139   C     0.40654   0.45519   0.16261   0.00000  Uiso   1.00
C140   C     0.09346   0.54481   0.17073   0.00000  Uiso   1.00
C141   C     0.38376   0.50000   0.16667   0.00000  Uiso   1.00
C142   C     0.11625   0.50000   0.16667   0.00000  Uiso   1.00
C143   C     0.45319   0.45525   0.16031   0.00000  Uiso   1.00
C144   C     0.04681   0.54475   0.17302   0.00000  Uiso   1.00
C145   C     0.45319   0.54475   0.17302   0.00000  Uiso   1.00
C146   C     0.04681   0.45525   0.16031   0.00000  Uiso   1.00
C147   C     0.47657   0.50000   0.16667   0.00000  Uiso   1.00
C148   C     0.02343   0.50000   0.16667   0.00000  Uiso   1.00
C149   C     0.47688   0.41144   0.15208   0.00000  Uiso   1.00
C150   C     0.02312   0.58856   0.18125   0.00000  Uiso   1.00
C151   C     0.47688   0.58856   0.18125   0.00000  Uiso   1.00
C152   C     0.02312   0.41144   0.15208   0.00000  Uiso   1.00
C153   C     0.25000   0.35513   0.16673   0.00000  Uiso   1.00
C154   C     0.25000   0.64487   0.16661   0.00000  Uiso   1.00
O155   O     0.38283   0.58824   0.17535   0.00000  Uiso   1.00
C156   C     0.37712   0.60812   0.12002   0.00000  Uiso   1.00
H157   H     0.36005   0.58197   0.09086   0.00000  Uiso   1.00
H158   H     0.40949   0.61964   0.10125   0.00000  Uiso   1.00
H159   H     0.35578   0.64121   0.12311   0.00000  Uiso   1.00
O160   O     0.11717   0.41176   0.15798   0.00000  Uiso   1.00
C161   C     0.12289   0.39188   0.21331   0.00000  Uiso   1.00
H162   H     0.14422   0.35879   0.21022   0.00000  Uiso   1.00
H163   H     0.09051   0.38036   0.23208   0.00000  Uiso   1.00
H164   H     0.13995   0.41803   0.24247   0.00000  Uiso   1.00
O165   O     0.38283   0.41176   0.15798   0.00000  Uiso   1.00
C166   C     0.37712   0.39188   0.21331   0.00000  Uiso   1.00
H167   H     0.36002   0.41802   0.24246   0.00000  Uiso   1.00
H168   H     0.40949   0.38039   0.23210   0.00000  Uiso   1.00
H169   H     0.35580   0.35877   0.21022   0.00000  Uiso   1.00
O170   O     0.11717   0.58824   0.17535   0.00000  Uiso   1.00
C171   C     0.12289   0.60812   0.12002   0.00000  Uiso   1.00
H172   H     0.09051   0.61964   0.10126   0.00000  Uiso   1.00
H173   H     0.13995   0.58197   0.09086   0.00000  Uiso   1.00
H174   H     0.14422   0.64121   0.12311   0.00000  Uiso   1.00
O175   O     0.75000   0.42946   0.21425   0.00000  Uiso   1.00
O176   O     0.75000   0.57054   0.11908   0.00000  Uiso   1.00
O177   O     0.75000   0.57054   0.21425   0.00000  Uiso   1.00
O178   O     0.75000   0.42946   0.11908   0.00000  Uiso   1.00
H179   H     0.95976   0.37690   0.14570   0.00000  Uiso   1.00
H180   H     0.54024   0.62310   0.18764   0.00000  Uiso   1.00
H181   H     0.95976   0.62309   0.18764   0.00000  Uiso   1.00
H182   H     0.54024   0.37690   0.14570   0.00000  Uiso   1.00
C183   C     0.75000   0.40669   0.16671   0.00000  Uiso   1.00
C184   C     0.75000   0.59331   0.16662   0.00000  Uiso   1.00
O185   O     0.68513   0.50000   0.21427   0.00000  Uiso   1.00
O186   O     0.81487   0.50000   0.11907   0.00000  Uiso   1.00
O187   O     0.81487   0.50000   0.21427   0.00000  Uiso   1.00
O188   O     0.68513   0.50000   0.11907   0.00000  Uiso   1.00
C189   C     0.66434   0.50000   0.16667   0.00000  Uiso   1.00
C190   C     0.83566   0.50000   0.16667   0.00000  Uiso   1.00
Cu191  Cu    0.75000   0.50000   0.22303   0.00000  Uiso   1.00
Cu192  Cu    0.75000   0.50000   0.11031   0.00000  Uiso   1.00
N193   N     0.75000   0.50000   0.02561   0.00000  Uiso   1.00
N194   N     0.75000   0.50000   0.30773   0.00000  Uiso   1.00
C195   C     0.90654   0.54481   0.17073   0.00000  Uiso   1.00
C196   C     0.59346   0.45519   0.16260   0.00000  Uiso   1.00
C197   C     0.90654   0.45519   0.16261   0.00000  Uiso   1.00
C198   C     0.59346   0.54481   0.17073   0.00000  Uiso   1.00
C199   C     0.88376   0.50000   0.16667   0.00000  Uiso   1.00
C200   C     0.61625   0.50000   0.16667   0.00000  Uiso   1.00
C201   C     0.95319   0.45525   0.16031   0.00000  Uiso   1.00
C202   C     0.54681   0.54475   0.17302   0.00000  Uiso   1.00
C203   C     0.95319   0.54475   0.17302   0.00000  Uiso   1.00
C204   C     0.54681   0.45525   0.16031   0.00000  Uiso   1.00
C205   C     0.97657   0.50000   0.16667   0.00000  Uiso   1.00
C206   C     0.52343   0.50000   0.16667   0.00000  Uiso   1.00
C207   C     0.97688   0.41144   0.15208   0.00000  Uiso   1.00
C208   C     0.52312   0.58856   0.18125   0.00000  Uiso   1.00
C209   C     0.97688   0.58856   0.18125   0.00000  Uiso   1.00
C210   C     0.52312   0.41144   0.15208   0.00000  Uiso   1.00
C211   C     0.75000   0.35513   0.16673   0.00000  Uiso   1.00
C212   C     0.75000   0.64487   0.16661   0.00000  Uiso   1.00
O213   O     0.88283   0.58824   0.17535   0.00000  Uiso   1.00
C214   C     0.87712   0.60812   0.12002   0.00000  Uiso   1.00
H215   H     0.86005   0.58197   0.09086   0.00000  Uiso   1.00
H216   H     0.90949   0.61964   0.10125   0.00000  Uiso   1.00
H217   H     0.85578   0.64121   0.12311   0.00000  Uiso   1.00
O218   O     0.61717   0.41176   0.15798   0.00000  Uiso   1.00
C219   C     0.62289   0.39188   0.21331   0.00000  Uiso   1.00
H220   H     0.64422   0.35879   0.21022   0.00000  Uiso   1.00
H221   H     0.59051   0.38036   0.23208   0.00000  Uiso   1.00
H222   H     0.63995   0.41803   0.24247   0.00000  Uiso   1.00
O223   O     0.88283   0.41176   0.15798   0.00000  Uiso   1.00
C224   C     0.87712   0.39188   0.21331   0.00000  Uiso   1.00
H225   H     0.86002   0.41802   0.24246   0.00000  Uiso   1.00
H226   H     0.90949   0.38039   0.23210   0.00000  Uiso   1.00
H227   H     0.85580   0.35877   0.21022   0.00000  Uiso   1.00
O228   O     0.61717   0.58824   0.17535   0.00000  Uiso   1.00
C229   C     0.62289   0.60812   0.12002   0.00000  Uiso   1.00
H230   H     0.59051   0.61964   0.10126   0.00000  Uiso   1.00
H231   H     0.63995   0.58197   0.09086   0.00000  Uiso   1.00
H232   H     0.64422   0.64121   0.12311   0.00000  Uiso   1.00
O233   O     0.25000   0.76280   0.21425   0.00000  Uiso   1.00
O234   O     0.25000   0.90387   0.11908   0.00000  Uiso   1.00
O235   O     0.25000   0.90387   0.21425   0.00000  Uiso   1.00
O236   O     0.25000   0.76280   0.11908   0.00000  Uiso   1.00
H237   H     0.45976   0.71024   0.14570   0.00000  Uiso   1.00
H238   H     0.04024   0.95643   0.18764   0.00000  Uiso   1.00
H239   H     0.45976   0.95643   0.18764   0.00000  Uiso   1.00
H240   H     0.04024   0.71024   0.14570   0.00000  Uiso   1.00
C241   C     0.25000   0.74002   0.16671   0.00000  Uiso   1.00
C242   C     0.25000   0.92664   0.16662   0.00000  Uiso   1.00
O243   O     0.18513   0.83333   0.21427   0.00000  Uiso   1.00
O244   O     0.31487   0.83333   0.11907   0.00000  Uiso   1.00
O245   O     0.31487   0.83333   0.21427   0.00000  Uiso   1.00
O246   O     0.18513   0.83333   0.11907   0.00000  Uiso   1.00
C247   C     0.16434   0.83333   0.16667   0.00000  Uiso   1.00
C248   C     0.33566   0.83333   0.16667   0.00000  Uiso   1.00
Cu249  Cu    0.25000   0.83333   0.22303   0.00000  Uiso   1.00
Cu250  Cu    0.25000   0.83333   0.11031   0.00000  Uiso   1.00
N251   N     0.25000   0.83333   0.02561   0.00000  Uiso   1.00
N252   N     0.25000   0.83333   0.30773   0.00000  Uiso   1.00
C253   C     0.40654   0.87814   0.17073   0.00000  Uiso   1.00
C254   C     0.09346   0.78853   0.16260   0.00000  Uiso   1.00
C255   C     0.40654   0.78852   0.16261   0.00000  Uiso   1.00
C256   C     0.09346   0.87814   0.17073   0.00000  Uiso   1.00
C257   C     0.38376   0.83333   0.16667   0.00000  Uiso   1.00
C258   C     0.11625   0.83333   0.16667   0.00000  Uiso   1.00
C259   C     0.45319   0.78858   0.16031   0.00000  Uiso   1.00
C260   C     0.04681   0.87809   0.17302   0.00000  Uiso   1.00
C261   C     0.45319   0.87809   0.17302   0.00000  Uiso   1.00
C262   C     0.04681   0.78858   0.16031   0.00000  Uiso   1.00
C263   C     0.47657   0.83333   0.16667   0.00000  Uiso   1.00
C264   C     0.02343   0.83333   0.16667   0.00000  Uiso   1.00
C265   C     0.47688   0.74477   0.15208   0.00000  Uiso   1.00
C266   C     0.02312   0.92190   0.18125   0.00000  Uiso   1.00
C267   C     0.47688   0.92190   0.18125   0.00000  Uiso   1.00
C268   C     0.02312   0.74477   0.15208   0.00000  Uiso   1.00
C269   C     0.25000   0.68847   0.16673   0.00000  Uiso   1.00
C270   C     0.25000   0.97820   0.16661   0.00000  Uiso   1.00
O271   O     0.38283   0.92157   0.17535   0.00000  Uiso   1.00
C272   C     0.37712   0.94146   0.12002   0.00000  Uiso   1.00
H273   H     0.36005   0.91530   0.09086   0.00000  Uiso   1.00
H274   H     0.40949   0.95297   0.10125   0.00000  Uiso   1.00
H275   H     0.35578   0.97454   0.12311   0.00000  Uiso   1.00
O276   O     0.11717   0.74509   0.15798   0.00000  Uiso   1.00
C277   C     0.12289   0.72521   0.21331   0.00000  Uiso   1.00
H278   H     0.14422   0.69212   0.21022   0.00000  Uiso   1.00
H279   H     0.09051   0.71369   0.23208   0.00000  Uiso   1.00
H280   H     0.13995   0.75136   0.24247   0.00000  Uiso   1.00
O281   O     0.38283   0.74509   0.15798   0.00000  Uiso   1.00
C282   C     0.37712   0.72521   0.21331   0.00000  Uiso   1.00
H283   H     0.36002   0.75135   0.24246   0.00000  Uiso   1.00
H284   H     0.40949   0.71372   0.23210   0.00000  Uiso   1.00
H285   H     0.35580   0.69211   0.21022   0.00000  Uiso   1.00
O286   O     0.11717   0.92157   0.17535   0.00000  Uiso   1.00
C287   C     0.12289   0.94146   0.12002   0.00000  Uiso   1.00
H288   H     0.09051   0.95297   0.10126   0.00000  Uiso   1.00
H289   H     0.13995   0.91531   0.09086   0.00000  Uiso   1.00
H290   H     0.14422   0.97454   0.12311   0.00000  Uiso   1.00
O291   O     0.75000   0.76280   0.21425   0.00000  Uiso   1.00
O292   O     0.75000   0.90387   0.11908   0.00000  Uiso   1.00
O293   O     0.75000   0.90387   0.21425   0.00000  Uiso   1.00
O294   O     0.75000   0.76280   0.11908   0.00000  Uiso   1.00
H295   H     0.95976   0.71024   0.14570   0.00000  Uiso   1.00
H296   H     0.54024   0.95643   0.18764   0.00000  Uiso   1.00
H297   H     0.95976   0.95643   0.18764   0.00000  Uiso   1.00
H298   H     0.54024   0.71024   0.14570   0.00000  Uiso   1.00
C299   C     0.75000   0.74002   0.16671   0.00000  Uiso   1.00
C300   C     0.75000   0.92664   0.16662   0.00000  Uiso   1.00
O301   O     0.68513   0.83333   0.21427   0.00000  Uiso   1.00
O302   O     0.81487   0.83333   0.11907   0.00000  Uiso   1.00
O303   O     0.81487   0.83333   0.21427   0.00000  Uiso   1.00
O304   O     0.68513   0.83333   0.11907   0.00000  Uiso   1.00
C305   C     0.66434   0.83333   0.16667   0.00000  Uiso   1.00
C306   C     0.83566   0.83333   0.16667   0.00000  Uiso   1.00
Cu307  Cu    0.75000   0.83333   0.22303   0.00000  Uiso   1.00
Cu308  Cu    0.75000   0.83333   0.11031   0.00000  Uiso   1.00
N309   N     0.75000   0.83333   0.02561   0.00000  Uiso   1.00
N310   N     0.75000   0.83333   0.30773   0.00000  Uiso   1.00
C311   C     0.90654   0.87814   0.17073   0.00000  Uiso   1.00
C312   C     0.59346   0.78853   0.16260   0.00000  Uiso   1.00
C313   C     0.90654   0.78852   0.16261   0.00000  Uiso   1.00
C314   C     0.59346   0.87814   0.17073   0.00000  Uiso   1.00
C315   C     0.88376   0.83333   0.16667   0.00000  Uiso   1.00
C316   C     0.61625   0.83333   0.16667   0.00000  Uiso   1.00
C317   C     0.95319   0.78858   0.16031   0.00000  Uiso   1.00
C318   C     0.54681   0.87809   0.17302   0.00000  Uiso   1.00
C319   C     0.95319   0.87809   0.17302   0.00000  Uiso   1.00
C320   C     0.54681   0.78858   0.16031   0.00000  Uiso   1.00
C321   C     0.97657   0.83333   0.16667   0.00000  Uiso   1.00
C322   C     0.52343   0.83333   0.16667   0.00000  Uiso   1.00
C323   C     0.97688   0.74477   0.15208   0.00000  Uiso   1.00
C324   C     0.52312   0.92190   0.18125   0.00000  Uiso   1.00
C325   C     0.97688   0.92190   0.18125   0.00000  Uiso   1.00
C326   C     0.52312   0.74477   0.15208   0.00000  Uiso   1.00
C327   C     0.75000   0.68847   0.16673   0.00000  Uiso   1.00
C328   C     0.75000   0.97820   0.16661   0.00000  Uiso   1.00
O329   O     0.88283   0.92157   0.17535   0.00000  Uiso   1.00
C330   C     0.87712   0.94146   0.12002   0.00000  Uiso   1.00
H331   H     0.86005   0.91530   0.09086   0.00000  Uiso   1.00
H332   H     0.90949   0.95297   0.10125   0.00000  Uiso   1.00
H333   H     0.85578   0.97454   0.12311   0.00000  Uiso   1.00
O334   O     0.61717   0.74509   0.15798   0.00000  Uiso   1.00
C335   C     0.62289   0.72521   0.21331   0.00000  Uiso   1.00
H336   H     0.64422   0.69212   0.21022   0.00000  Uiso   1.00
H337   H     0.59051   0.71369   0.23208   0.00000  Uiso   1.00
H338   H     0.63995   0.75136   0.24247   0.00000  Uiso   1.00
O339   O     0.88283   0.74509   0.15798   0.00000  Uiso   1.00
C340   C     0.87712   0.72521   0.21331   0.00000  Uiso   1.00
H341   H     0.86002   0.75135   0.24246   0.00000  Uiso   1.00
H342   H     0.90949   0.71372   0.23210   0.00000  Uiso   1.00
H343   H     0.85580   0.69211   0.21022   0.00000  Uiso   1.00
O344   O     0.61717   0.92157   0.17535   0.00000  Uiso   1.00
C345   C     0.62289   0.94146   0.12002   0.00000  Uiso   1.00
H346   H     0.59051   0.95297   0.10126   0.00000  Uiso   1.00
H347   H     0.63995   0.91531   0.09086   0.00000  Uiso   1.00
H348   H     0.64422   0.97454   0.12311   0.00000  Uiso   1.00
O349   O     0.25000   0.09613   0.54759   0.00000  Uiso   1.00
O350   O     0.25000   0.23720   0.45241   0.00000  Uiso   1.00
O351   O     0.25000   0.23720   0.54759   0.00000  Uiso   1.00
O352   O     0.25000   0.09613   0.45241   0.00000  Uiso   1.00
H353   H     0.45976   0.04357   0.47903   0.00000  Uiso   1.00
H354   H     0.04024   0.28976   0.52097   0.00000  Uiso   1.00
H355   H     0.45976   0.28976   0.52097   0.00000  Uiso   1.00
H356   H     0.04024   0.04357   0.47903   0.00000  Uiso   1.00
C357   C     0.25000   0.07336   0.50004   0.00000  Uiso   1.00
C358   C     0.25000   0.25998   0.49996   0.00000  Uiso   1.00
O359   O     0.18513   0.16667   0.54760   0.00000  Uiso   1.00
O360   O     0.31487   0.16667   0.45240   0.00000  Uiso   1.00
O361   O     0.31487   0.16667   0.54760   0.00000  Uiso   1.00
O362   O     0.18513   0.16667   0.45240   0.00000  Uiso   1.00
C363   C     0.16434   0.16667   0.50000   0.00000  Uiso   1.00
C364   C     0.33566   0.16667   0.50000   0.00000  Uiso   1.00
Cu365  Cu    0.25000   0.16667   0.55636   0.00000  Uiso   1.00
Cu366  Cu    0.25000   0.16667   0.44364   0.00000  Uiso   1.00
N367   N     0.25000   0.16667   0.35894   0.00000  Uiso   1.00
N368   N     0.25000   0.16667   0.64106   0.00000  Uiso   1.00
C369   C     0.40654   0.21147   0.50406   0.00000  Uiso   1.00
C370   C     0.09346   0.12186   0.49594   0.00000  Uiso   1.00
C371   C     0.40654   0.12186   0.49594   0.00000  Uiso   1.00
C372   C     0.09346   0.21147   0.50406   0.00000  Uiso   1.00
C373   C     0.38376   0.16667   0.50000   0.00000  Uiso   1.00
C374   C     0.11625   0.16667   0.50000   0.00000  Uiso   1.00
C375   C     0.45319   0.12191   0.49364   0.00000  Uiso   1.00
C376   C     0.04681   0.21142   0.50636   0.00000  Uiso   1.00
C377   C     0.45319   0.21142   0.50636   0.00000  Uiso   1.00
C378   C     0.04681   0.12191   0.49364   0.00000  Uiso   1.00
C379   C     0.47657   0.16667   0.50000   0.00000  Uiso   1.00
C380   C     0.02343   0.16667   0.50000   0.00000  Uiso   1.00
C381   C     0.47688   0.07810   0.48542   0.00000  Uiso   1.00
C382   C     0.02312   0.25523   0.51458   0.00000  Uiso   1.00
C383   C     0.47688   0.25523   0.51458   0.00000  Uiso   1.00
C384   C     0.02312   0.07810   0.48542   0.00000  Uiso   1.00
C385   C     0.25000   0.02180   0.50006   0.00000  Uiso   1.00
C386   C     0.25000   0.31153   0.49994   0.00000  Uiso   1.00
O387   O     0.38283   0.25491   0.50868   0.00000  Uiso   1.00
C388   C     0.37712   0.27479   0.45335   0.00000  Uiso   1.00
H389   H     0.36005   0.24863   0.42419   0.00000  Uiso   1.00
H390   H     0.40949   0.28631   0.43459   0.00000  Uiso   1.00
H391   H     0.35578   0.30787   0.45644   0.00000  Uiso   1.00
O392   O     0.11717   0.07843   0.49132   0.00000  Uiso   1.00
C393   C     0.12289   0.05854   0.54664   0.00000  Uiso   1.00
H394   H     0.14422   0.02546   0.54355   0.00000  Uiso   1.00
H395   H     0.09051   0.04702   0.56541   0.00000  Uiso   1.00
H396   H     0.13995   0.08470   0.57580   0.00000  Uiso   1.00
O397   O     0.38283   0.07842   0.49132   0.00000  Uiso   1.00
C398   C     0.37712   0.05854   0.54665   0.00000  Uiso   1.00
H399   H     0.36002   0.08469   0.57579   0.00000  Uiso   1.00
H400   H     0.40949   0.04706   0.56543   0.00000  Uiso   1.00
H401   H     0.35580   0.02544   0.54355   0.00000  Uiso   1.00
O402   O     0.11717   0.25491   0.50869   0.00000  Uiso   1.00
C403   C     0.12289   0.27479   0.45336   0.00000  Uiso   1.00
H404   H     0.09051   0.28631   0.43459   0.00000  Uiso   1.00
H405   H     0.13995   0.24864   0.42420   0.00000  Uiso   1.00
H406   H     0.14422   0.30788   0.45645   0.00000  Uiso   1.00
O407   O     0.75000   0.09613   0.54759   0.00000  Uiso   1.00
O408   O     0.75000   0.23720   0.45241   0.00000  Uiso   1.00
O409   O     0.75000   0.23720   0.54759   0.00000  Uiso   1.00
O410   O     0.75000   0.09613   0.45241   0.00000  Uiso   1.00
H411   H     0.95976   0.04357   0.47903   0.00000  Uiso   1.00
H412   H     0.54024   0.28976   0.52097   0.00000  Uiso   1.00
H413   H     0.95976   0.28976   0.52097   0.00000  Uiso   1.00
H414   H     0.54024   0.04357   0.47903   0.00000  Uiso   1.00
C415   C     0.75000   0.07336   0.50004   0.00000  Uiso   1.00
C416   C     0.75000   0.25998   0.49996   0.00000  Uiso   1.00
O417   O     0.68513   0.16667   0.54760   0.00000  Uiso   1.00
O418   O     0.81487   0.16667   0.45240   0.00000  Uiso   1.00
O419   O     0.81487   0.16667   0.54760   0.00000  Uiso   1.00
O420   O     0.68513   0.16667   0.45240   0.00000  Uiso   1.00
C421   C     0.66434   0.16667   0.50000   0.00000  Uiso   1.00
C422   C     0.83566   0.16667   0.50000   0.00000  Uiso   1.00
Cu423  Cu    0.75000   0.16667   0.55636   0.00000  Uiso   1.00
Cu424  Cu    0.75000   0.16667   0.44364   0.00000  Uiso   1.00
N425   N     0.75000   0.16667   0.35894   0.00000  Uiso   1.00
N426   N     0.75000   0.16667   0.64106   0.00000  Uiso   1.00
C427   C     0.90654   0.21147   0.50406   0.00000  Uiso   1.00
C428   C     0.59346   0.12186   0.49594   0.00000  Uiso   1.00
C429   C     0.90654   0.12186   0.49594   0.00000  Uiso   1.00
C430   C     0.59346   0.21147   0.50406   0.00000  Uiso   1.00
C431   C     0.88376   0.16667   0.50000   0.00000  Uiso   1.00
C432   C     0.61625   0.16667   0.50000   0.00000  Uiso   1.00
C433   C     0.95319   0.12191   0.49364   0.00000  Uiso   1.00
C434   C     0.54681   0.21142   0.50636   0.00000  Uiso   1.00
C435   C     0.95319   0.21142   0.50636   0.00000  Uiso   1.00
C436   C     0.54681   0.12191   0.49364   0.00000  Uiso   1.00
C437   C     0.97657   0.16667   0.50000   0.00000  Uiso   1.00
C438   C     0.52343   0.16667   0.50000   0.00000  Uiso   1.00
C439   C     0.97688   0.07810   0.48542   0.00000  Uiso   1.00
C440   C     0.52312   0.25523   0.51458   0.00000  Uiso   1.00
C441   C     0.97688   0.25523   0.51458   0.00000  Uiso   1.00
C442   C     0.52312   0.07810   0.48542   0.00000  Uiso   1.00
C443   C     0.75000   0.02180   0.50006   0.00000  Uiso   1.00
C444   C     0.75000   0.31153   0.49994   0.00000  Uiso   1.00
O445   O     0.88283   0.25491   0.50868   0.00000  Uiso   1.00
C446   C     0.87712   0.27479   0.45335   0.00000  Uiso   1.00
H447   H     0.86005   0.24863   0.42419   0.00000  Uiso   1.00
H448   H     0.90949   0.28631   0.43459   0.00000  Uiso   1.00
H449   H     0.85578   0.30787   0.45644   0.00000  Uiso   1.00
O450   O     0.61717   0.07843   0.49132   0.00000  Uiso   1.00
C451   C     0.62289   0.05854   0.54664   0.00000  Uiso   1.00
H452   H     0.64422   0.02546   0.54355   0.00000  Uiso   1.00
H453   H     0.59051   0.04702   0.56541   0.00000  Uiso   1.00
H454   H     0.63995   0.08470   0.57580   0.00000  Uiso   1.00
O455   O     0.88283   0.07842   0.49132   0.00000  Uiso   1.00
C456   C     0.87712   0.05854   0.54665   0.00000  Uiso   1.00
H457   H     0.86002   0.08469   0.57579   0.00000  Uiso   1.00
H458   H     0.90949   0.04706   0.56543   0.00000  Uiso   1.00
H459   H     0.85580   0.02544   0.54355   0.00000  Uiso   1.00
O460   O     0.61717   0.25491   0.50869   0.00000  Uiso   1.00
C461   C     0.62289   0.27479   0.45336   0.00000  Uiso   1.00
H462   H     0.59051   0.28631   0.43459   0.00000  Uiso   1.00
H463   H     0.63995   0.24864   0.42420   0.00000  Uiso   1.00
H464   H     0.64422   0.30788   0.45645   0.00000  Uiso   1.00
O465   O     0.25000   0.42946   0.54759   0.00000  Uiso   1.00
O466   O     0.25000   0.57054   0.45241   0.00000  Uiso   1.00
O467   O     0.25000   0.57054   0.54759   0.00000  Uiso   1.00
O468   O     0.25000   0.42946   0.45241   0.00000  Uiso   1.00
H469   H     0.45976   0.37690   0.47903   0.00000  Uiso   1.00
H470   H     0.04024   0.62310   0.52097   0.00000  Uiso   1.00
H471   H     0.45976   0.62309   0.52097   0.00000  Uiso   1.00
H472   H     0.04024   0.37690   0.47903   0.00000  Uiso   1.00
C473   C     0.25000   0.40669   0.50004   0.00000  Uiso   1.00
C474   C     0.25000   0.59331   0.49996   0.00000  Uiso   1.00
O475   O     0.18513   0.50000   0.54760   0.00000  Uiso   1.00
O476   O     0.31487   0.50000   0.45240   0.00000  Uiso   1.00
O477   O     0.31487   0.50000   0.54760   0.00000  Uiso   1.00
O478   O     0.18513   0.50000   0.45240   0.00000  Uiso   1.00
C479   C     0.16434   0.50000   0.50000   0.00000  Uiso   1.00
C480   C     0.33566   0.50000   0.50000   0.00000  Uiso   1.00
Cu481  Cu    0.25000   0.50000   0.55636   0.00000  Uiso   1.00
Cu482  Cu    0.25000   0.50000   0.44364   0.00000  Uiso   1.00
N483   N     0.25000   0.50000   0.35894   0.00000  Uiso   1.00
N484   N     0.25000   0.50000   0.64106   0.00000  Uiso   1.00
C485   C     0.40654   0.54481   0.50406   0.00000  Uiso   1.00
C486   C     0.09346   0.45519   0.49594   0.00000  Uiso   1.00
C487   C     0.40654   0.45519   0.49594   0.00000  Uiso   1.00
C488   C     0.09346   0.54481   0.50406   0.00000  Uiso   1.00
C489   C     0.38376   0.50000   0.50000   0.00000  Uiso   1.00
C490   C     0.11625   0.50000   0.50000   0.00000  Uiso   1.00
C491   C     0.45319   0.45525   0.49364   0.00000  Uiso   1.00
C492   C     0.04681   0.54475   0.50636   0.00000  Uiso   1.00
C493   C     0.45319   0.54475   0.50636   0.00000  Uiso   1.00
C494   C     0.04681   0.45525   0.49364   0.00000  Uiso   1.00
C495   C     0.47657   0.50000   0.50000   0.00000  Uiso   1.00
C496   C     0.02343   0.50000   0.50000   0.00000  Uiso   1.00
C497   C     0.47688   0.41144   0.48542   0.00000  Uiso   1.00
C498   C     0.02312   0.58856   0.51458   0.00000  Uiso   1.00
C499   C     0.47688   0.58856   0.51458   0.00000  Uiso   1.00
C500   C     0.02312   0.41144   0.48542   0.00000  Uiso   1.00
C501   C     0.25000   0.35513   0.50006   0.00000  Uiso   1.00
C502   C     0.25000   0.64487   0.49994   0.00000  Uiso   1.00
O503   O     0.38283   0.58824   0.50868   0.00000  Uiso   1.00
C504   C     0.37712   0.60812   0.45335   0.00000  Uiso   1.00
H505   H     0.36005   0.58197   0.42419   0.00000  Uiso   1.00
H506   H     0.40949   0.61964   0.43459   0.00000  Uiso   1.00
H507   H     0.35578   0.64121   0.45644   0.00000  Uiso   1.00
O508   O     0.11717   0.41176   0.49132   0.00000  Uiso   1.00
C509   C     0.12289   0.39188   0.54664   0.00000  Uiso   1.00
H510   H     0.14422   0.35879   0.54355   0.00000  Uiso   1.00
H511   H     0.09051   0.38036   0.56541   0.00000  Uiso   1.00
H512   H     0.13995   0.41803   0.57580   0.00000  Uiso   1.00
O513   O     0.38283   0.41176   0.49132   0.00000  Uiso   1.00
C514   C     0.37712   0.39188   0.54665   0.00000  Uiso   1.00
H515   H     0.36002   0.41802   0.57579   0.00000  Uiso   1.00
H516   H     0.40949   0.38039   0.56543   0.00000  Uiso   1.00
H517   H     0.35580   0.35877   0.54355   0.00000  Uiso   1.00
O518   O     0.11717   0.58824   0.50869   0.00000  Uiso   1.00
C519   C     0.12289   0.60812   0.45336   0.00000  Uiso   1.00
H520   H     0.09051   0.61964   0.43459   0.00000  Uiso   1.00
H521   H     0.13995   0.58197   0.42420   0.00000  Uiso   1.00
H522   H     0.14422   0.64121   0.45645   0.00000  Uiso   1.00
O523   O     0.75000   0.42946   0.54759   0.00000  Uiso   1.00
O524   O     0.75000   0.57054   0.45241   0.00000  Uiso   1.00
O525   O     0.75000   0.57054   0.54759   0.00000  Uiso   1.00
O526   O     0.75000   0.42946   0.45241   0.00000  Uiso   1.00
H527   H     0.95976   0.37690   0.47903   0.00000  Uiso   1.00
H528   H     0.54024   0.62310   0.52097   0.00000  Uiso   1.00
H529   H     0.95976   0.62309   0.52097   0.00000  Uiso   1.00
H530   H     0.54024   0.37690   0.47903   0.00000  Uiso   1.00
C531   C     0.75000   0.40669   0.50004   0.00000  Uiso   1.00
C532   C     0.75000   0.59331   0.49996   0.00000  Uiso   1.00
O533   O     0.68513   0.50000   0.54760   0.00000  Uiso   1.00
O534   O     0.81487   0.50000   0.45240   0.00000  Uiso   1.00
O535   O     0.81487   0.50000   0.54760   0.00000  Uiso   1.00
O536   O     0.68513   0.50000   0.45240   0.00000  Uiso   1.00
C537   C     0.66434   0.50000   0.50000   0.00000  Uiso   1.00
C538   C     0.83566   0.50000   0.50000   0.00000  Uiso   1.00
Cu539  Cu    0.75000   0.50000   0.55636   0.00000  Uiso   1.00
Cu540  Cu    0.75000   0.50000   0.44364   0.00000  Uiso   1.00
N541   N     0.75000   0.50000   0.35894   0.00000  Uiso   1.00
N542   N     0.75000   0.50000   0.64106   0.00000  Uiso   1.00
C543   C     0.90654   0.54481   0.50406   0.00000  Uiso   1.00
C544   C     0.59346   0.45519   0.49594   0.00000  Uiso   1.00
C545   C     0.90654   0.45519   0.49594   0.00000  Uiso   1.00
C546   C     0.59346   0.54481   0.50406   0.00000  Uiso   1.00
C547   C     0.88376   0.50000   0.50000   0.00000  Uiso   1.00
C548   C     0.61625   0.50000   0.50000   0.00000  Uiso   1.00
C549   C     0.95319   0.45525   0.49364   0.00000  Uiso   1.00
C550   C     0.54681   0.54475   0.50636   0.00000  Uiso   1.00
C551   C     0.95319   0.54475   0.50636   0.00000  Uiso   1.00
C552   C     0.54681   0.45525   0.49364   0.00000  Uiso   1.00
C553   C     0.97657   0.50000   0.50000   0.00000  Uiso   1.00
C554   C     0.52343   0.50000   0.50000   0.00000  Uiso   1.00
C555   C     0.97688   0.41144   0.48542   0.00000  Uiso   1.00
C556   C     0.52312   0.58856   0.51458   0.00000  Uiso   1.00
C557   C     0.97688   0.58856   0.51458   0.00000  Uiso   1.00
C558   C     0.52312   0.41144   0.48542   0.00000  Uiso   1.00
C559   C     0.75000   0.35513   0.50006   0.00000  Uiso   1.00
C560   C     0.75000   0.64487   0.49994   0.00000  Uiso   1.00
O561   O     0.88283   0.58824   0.50868   0.00000  Uiso   1.00
C562   C     0.87712   0.60812   0.45335   0.00000  Uiso   1.00
H563   H     0.86005   0.58197   0.42419   0.00000  Uiso   1.00
H564   H     0.90949   0.61964   0.43459   0.00000  Uiso   1.00
H565   H     0.85578   0.64121   0.45644   0.00000  Uiso   1.00
O566   O     0.61717   0.41176   0.49132   0.00000  Uiso   1.00
C567   C     0.62289   0.39188   0.54664   0.00000  Uiso   1.00
H568   H     0.64422   0.35879   0.54355   0.00000  Uiso   1.00
H569   H     0.59051   0.38036   0.56541   0.00000  Uiso   1.00
H570   H     0.63995   0.41803   0.57580   0.00000  Uiso   1.00
O571   O     0.88283   0.41176   0.49132   0.00000  Uiso   1.00
C572   C     0.87712   0.39188   0.54665   0.00000  Uiso   1.00
H573   H     0.86002   0.41802   0.57579   0.00000  Uiso   1.00
H574   H     0.90949   0.38039   0.56543   0.00000  Uiso   1.00
H575   H     0.85580   0.35877   0.54355   0.00000  Uiso   1.00
O576   O     0.61717   0.58824   0.50869   0.00000  Uiso   1.00
C577   C     0.62289   0.60812   0.45336   0.00000  Uiso   1.00
H578   H     0.59051   0.61964   0.43459   0.00000  Uiso   1.00
H579   H     0.63995   0.58197   0.42420   0.00000  Uiso   1.00
H580   H     0.64422   0.64121   0.45645   0.00000  Uiso   1.00
O581   O     0.25000   0.76280   0.54759   0.00000  Uiso   1.00
O582   O     0.25000   0.90387   0.45241   0.00000  Uiso   1.00
O583   O     0.25000   0.90387   0.54759   0.00000  Uiso   1.00
O584   O     0.25000   0.76280   0.45241   0.00000  Uiso   1.00
H585   H     0.45976   0.71024   0.47903   0.00000  Uiso   1.00
H586   H     0.04024   0.95643   0.52097   0.00000  Uiso   1.00
H587   H     0.45976   0.95643   0.52097   0.00000  Uiso   1.00
H588   H     0.04024   0.71024   0.47903   0.00000  Uiso   1.00
C589   C     0.25000   0.74002   0.50004   0.00000  Uiso   1.00
C590   C     0.25000   0.92664   0.49996   0.00000  Uiso   1.00
O591   O     0.18513   0.83333   0.54760   0.00000  Uiso   1.00
O592   O     0.31487   0.83333   0.45240   0.00000  Uiso   1.00
O593   O     0.31487   0.83333   0.54760   0.00000  Uiso   1.00
O594   O     0.18513   0.83333   0.45240   0.00000  Uiso   1.00
C595   C     0.16434   0.83333   0.50000   0.00000  Uiso   1.00
C596   C     0.33566   0.83333   0.50000   0.00000  Uiso   1.00
Cu597  Cu    0.25000   0.83333   0.55636   0.00000  Uiso   1.00
Cu598  Cu    0.25000   0.83333   0.44364   0.00000  Uiso   1.00
N599   N     0.25000   0.83333   0.35894   0.00000  Uiso   1.00
N600   N     0.25000   0.83333   0.64106   0.00000  Uiso   1.00
C601   C     0.40654   0.87814   0.50406   0.00000  Uiso   1.00
C602   C     0.09346   0.78853   0.49594   0.00000  Uiso   1.00
C603   C     0.40654   0.78852   0.49594   0.00000  Uiso   1.00
C604   C     0.09346   0.87814   0.50406   0.00000  Uiso   1.00
C605   C     0.38376   0.83333   0.50000   0.00000  Uiso   1.00
C606   C     0.11625   0.83333   0.50000   0.00000  Uiso   1.00
C607   C     0.45319   0.78858   0.49364   0.00000  Uiso   1.00
C608   C     0.04681   0.87809   0.50636   0.00000  Uiso   1.00
C609   C     0.45319   0.87809   0.50636   0.00000  Uiso   1.00
C610   C     0.04681   0.78858   0.49364   0.00000  Uiso   1.00
C611   C     0.47657   0.83333   0.50000   0.00000  Uiso   1.00
C612   C     0.02343   0.83333   0.50000   0.00000  Uiso   1.00
C613   C     0.47688   0.74477   0.48542   0.00000  Uiso   1.00
C614   C     0.02312   0.92190   0.51458   0.00000  Uiso   1.00
C615   C     0.47688   0.92190   0.51458   0.00000  Uiso   1.00
C616   C     0.02312   0.74477   0.48542   0.00000  Uiso   1.00
C617   C     0.25000   0.68847   0.50006   0.00000  Uiso   1.00
C618   C     0.25000   0.97820   0.49994   0.00000  Uiso   1.00
O619   O     0.38283   0.92157   0.50868   0.00000  Uiso   1.00
C620   C     0.37712   0.94146   0.45335   0.00000  Uiso   1.00
H621   H     0.36005   0.91530   0.42419   0.00000  Uiso   1.00
H622   H     0.40949   0.95297   0.43459   0.00000  Uiso   1.00
H623   H     0.35578   0.97454   0.45644   0.00000  Uiso   1.00
O624   O     0.11717   0.74509   0.49132   0.00000  Uiso   1.00
C625   C     0.12289   0.72521   0.54664   0.00000  Uiso   1.00
H626   H     0.14422   0.69212   0.54355   0.00000  Uiso   1.00
H627   H     0.09051   0.71369   0.56541   0.00000  Uiso   1.00
H628   H     0.13995   0.75136   0.57580   0.00000  Uiso   1.00
O629   O     0.38283   0.74509   0.49132   0.00000  Uiso   1.00
C630   C     0.37712   0.72521   0.54665   0.00000  Uiso   1.00
H631   H     0.36002   0.75135   0.57579   0.00000  Uiso   1.00
H632   H     0.40949   0.71372   0.56543   0.00000  Uiso   1.00
H633   H     0.35580   0.69211   0.54355   0.00000  Uiso   1.00
O634   O     0.11717   0.92157   0.50869   0.00000  Uiso   1.00
C635   C     0.12289   0.94146   0.45336   0.00000  Uiso   1.00
H636   H     0.09051   0.95297   0.43459   0.00000  Uiso   1.00
H637   H     0.13995   0.91531   0.42420   0.00000  Uiso   1.00
H638   H     0.14422   0.97454   0.45645   0.00000  Uiso   1.00
O639   O     0.75000   0.76280   0.54759   0.00000  Uiso   1.00
O640   O     0.75000   0.90387   0.45241   0.00000  Uiso   1.00
O641   O     0.75000   0.90387   0.54759   0.00000  Uiso   1.00
O642   O     0.75000   0.76280   0.45241   0.00000  Uiso   1.00
H643   H     0.95976   0.71024   0.47903   0.00000  Uiso   1.00
H644   H     0.54024   0.95643   0.52097   0.00000  Uiso   1.00
H645   H     0.95976   0.95643   0.52097   0.00000  Uiso   1.00
H646   H     0.54024   0.71024   0.47903   0.00000  Uiso   1.00
C647   C     0.75000   0.74002   0.50004   0.00000  Uiso   1.00
C648   C     0.75000   0.92664   0.49996   0.00000  Uiso   1.00
O649   O     0.68513   0.83333   0.54760   0.00000  Uiso   1.00
O650   O     0.81487   0.83333   0.45240   0.00000  Uiso   1.00
O651   O     0.81487   0.83333   0.54760   0.00000  Uiso   1.00
O652   O     0.68513   0.83333   0.45240   0.00000  Uiso   1.00
C653   C     0.66434   0.83333   0.50000   0.00000  Uiso   1.00
C654   C     0.83566   0.83333   0.50000   0.00000  Uiso   1.00
Cu655  Cu    0.75000   0.83333   0.55636   0.00000  Uiso   1.00
Cu656  Cu    0.75000   0.83333   0.44364   0.00000  Uiso   1.00
N657   N     0.75000   0.83333   0.35894   0.00000  Uiso   1.00
N658   N     0.75000   0.83333   0.64106   0.00000  Uiso   1.00
C659   C     0.90654   0.87814   0.50406   0.00000  Uiso   1.00
C660   C     0.59346   0.78853   0.49594   0.00000  Uiso   1.00
C661   C     0.90654   0.78852   0.49594   0.00000  Uiso   1.00
C662   C     0.59346   0.87814   0.50406   0.00000  Uiso   1.00
C663   C     0.88376   0.83333   0.50000   0.00000  Uiso   1.00
C664   C     0.61625   0.83333   0.50000   0.00000  Uiso   1.00
C665   C     0.95319   0.78858   0.49364   0.00000  Uiso   1.00
C666   C     0.54681   0.87809   0.50636   0.00000  Uiso   1.00
C667   C     0.95319   0.87809   0.50636   0.00000  Uiso   1.00
C668   C     0.54681   0.78858   0.49364   0.00000  Uiso   1.00
C669   C     0.97657   0.83333   0.50000   0.00000  Uiso   1.00
C670   C     0.52343   0.83333   0.50000   0.00000  Uiso   1.00
C671   C     0.97688   0.74477   0.48542   0.00000  Uiso   1.00
C672   C     0.52312   0.92190   0.51458   0.00000  Uiso   1.00
C673   C     0.97688   0.92190   0.51458   0.00000  Uiso   1.00
C674   C     0.52312   0.74477   0.48542   0.00000  Uiso   1.00
C675   C     0.75000   0.68847   0.50006   0.00000  Uiso   1.00
C676   C     0.75000   0.97820   0.49994   0.00000  Uiso   1.00
O677   O     0.88283   0.92157   0.50868   0.00000  Uiso   1.00
C678   C     0.87712   0.94146   0.45335   0.00000  Uiso   1.00
H679   H     0.86005   0.91530   0.42419   0.00000  Uiso   1.00
H680   H     0.90949   0.95297   0.43459   0.00000  Uiso   1.00
H681   H     0.85578   0.97454   0.45644   0.00000  Uiso   1.00
O682   O     0.61717   0.74509   0.49132   0.00000  Uiso   1.00
C683   C     0.62289   0.72521   0.54664   0.00000  Uiso   1.00
H684   H     0.64422   0.69212   0.54355   0.00000  Uiso   1.00
H685   H     0.59051   0.71369   0.56541   0.00000  Uiso   1.00
H686   H     0.63995   0.75136   0.57580   0.00000  Uiso   1.00
O687   O     0.88283   0.74509   0.49132   0.00000  Uiso   1.00
C688   C     0.87712   0.72521   0.54665   0.00000  Uiso   1.00
H689   H     0.86002   0.75135   0.57579   0.00000  Uiso   1.00
H690   H     0.90949   0.71372   0.56543   0.00000  Uiso   1.00
H691   H     0.85580   0.69211   0.54355   0.00000  Uiso   1.00
O692   O     0.61717   0.92157   0.50869   0.00000  Uiso   1.00
C693   C     0.62289   0.94146   0.45336   0.00000  Uiso   1.00
H694   H     0.59051   0.95297   0.43459   0.00000  Uiso   1.00
H695   H     0.63995   0.91531   0.42420   0.00000  Uiso   1.00
H696   H     0.64422   0.97454   0.45645   0.00000  Uiso   1.00
O697   O     0.25000   0.09613   0.88092   0.00000  Uiso   1.00
O698   O     0.25000   0.23720   0.78575   0.00000  Uiso   1.00
O699   O     0.25000   0.23720   0.88092   0.00000  Uiso   1.00
O700   O     0.25000   0.09613   0.78575   0.00000  Uiso   1.00
H701   H     0.45976   0.04357   0.81237   0.00000  Uiso   1.00
H702   H     0.04024   0.28976   0.85430   0.00000  Uiso   1.00
H703   H     0.45976   0.28976   0.85430   0.00000  Uiso   1.00
H704   H     0.04024   0.04357   0.81236   0.00000  Uiso   1.00
C705   C     0.25000   0.07336   0.83338   0.00000  Uiso   1.00
C706   C     0.25000   0.25998   0.83329   0.00000  Uiso   1.00
O707   O     0.18513   0.16667   0.88093   0.00000  Uiso   1.00
O708   O     0.31487   0.16667   0.78573   0.00000  Uiso   1.00
O709   O     0.31487   0.16667   0.88093   0.00000  Uiso   1.00
O710   O     0.18513   0.16667   0.78573   0.00000  Uiso   1.00
C711   C     0.16434   0.16667   0.83333   0.00000  Uiso   1.00
C712   C     0.33566   0.16667   0.83333   0.00000  Uiso   1.00
Cu713  Cu    0.25000   0.16667   0.88969   0.00000  Uiso   1.00
Cu714  Cu    0.25000   0.16667   0.77697   0.00000  Uiso   1.00
N715   N     0.25000   0.16667   0.69227   0.00000  Uiso   1.00
N716   N     0.25000   0.16667   0.97439   0.00000  Uiso   1.00
C717   C     0.40654   0.21147   0.83739   0.00000  Uiso   1.00
C718   C     0.09346   0.12186   0.82927   0.00000  Uiso   1.00
C719   C     0.40654   0.12186   0.82927   0.00000  Uiso   1.00
C720   C     0.09346   0.21147   0.83740   0.00000  Uiso   1.00
C721   C     0.38376   0.16667   0.83333   0.00000  Uiso   1.00
C722   C     0.11625   0.16667   0.83333   0.00000  Uiso   1.00
C723   C     0.45319   0.12191   0.82698   0.00000  Uiso   1.00
C724   C     0.04681   0.21142   0.83969   0.00000  Uiso   1.00
C725   C     0.45319   0.21142   0.83969   0.00000  Uiso   1.00
C726   C     0.04681   0.12191   0.82698   0.00000  Uiso   1.00
C727   C     0.47657   0.16667   0.83333   0.00000  Uiso   1.00
C728   C     0.02343   0.16667   0.83333   0.00000  Uiso   1.00
C729   C     0.47688   0.07810   0.81875   0.00000  Uiso   1.00
C730   C     0.02312   0.25523   0.84792   0.00000  Uiso   1.00
C731   C     0.47688   0.25523   0.84792   0.00000  Uiso   1.00
C732   C     0.02312   0.07810   0.81875   0.00000  Uiso   1.00
C733   C     0.25000   0.02180   0.83339   0.00000  Uiso   1.00
C734   C     0.25000   0.31153   0.83327   0.00000  Uiso   1.00
O735   O     0.38283   0.25491   0.84201   0.00000  Uiso   1.00
C736   C     0.37712   0.27479   0.78669   0.00000  Uiso   1.00
H737   H     0.36005   0.24863   0.75752   0.00000  Uiso   1.00
H738   H     0.40949   0.28631   0.76792   0.00000  Uiso   1.00
H739   H     0.35578   0.30787   0.78977   0.00000  Uiso   1.00
O740   O     0.11717   0.07843   0.82465   0.00000  Uiso   1.00
C741   C     0.12289   0.05854   0.87998   0.00000  Uiso   1.00
H742   H     0.14422   0.02546   0.87689   0.00000  Uiso   1.00
H743   H     0.09051   0.04702   0.89874   0.00000  Uiso   1.00
H744   H     0.13995   0.08470   0.90914   0.00000  Uiso   1.00
O745   O     0.38283   0.07842   0.82465   0.00000  Uiso   1.00
C746   C     0.37712   0.05854   0.87998   0.00000  Uiso   1.00
H747   H     0.36002   0.08469   0.90913   0.00000  Uiso   1.00
H748   H     0.40949   0.04706   0.89877   0.00000  Uiso   1.00
H749   H     0.35580   0.02544   0.87689   0.00000  Uiso   1.00
O750   O     0.11717   0.25491   0.84202   0.00000  Uiso   1.00
C751   C     0.12289   0.27479   0.78669   0.00000  Uiso   1.00
H752   H     0.09051   0.28631   0.76792   0.00000  Uiso   1.00
H753   H     0.13995   0.24864   0.75753   0.00000  Uiso   1.00
H754   H     0.14422   0.30788   0.78978   0.00000  Uiso   1.00
O755   O     0.75000   0.09613   0.88092   0.00000  Uiso   1.00
O756   O     0.75000   0.23720   0.78575   0.00000  Uiso   1.00
O757   O     0.75000   0.23720   0.88092   0.00000  Uiso   1.00
O758   O     0.75000   0.09613   0.78575   0.00000  Uiso   1.00
H759   H     0.95976   0.04357   0.81237   0.00000  Uiso   1.00
H760   H     0.54024   0.28976   0.85430   0.00000  Uiso   1.00
H761   H     0.95976   0.28976   0.85430   0.00000  Uiso   1.00
H762   H     0.54024   0.04357   0.81236   0.00000  Uiso   1.00
C763   C     0.75000   0.07336   0.83338   0.00000  Uiso   1.00
C764   C     0.75000   0.25998   0.83329   0.00000  Uiso   1.00
O765   O     0.68513   0.16667   0.88093   0.00000  Uiso   1.00
O766   O     0.81487   0.16667   0.78573   0.00000  Uiso   1.00
O767   O     0.81487   0.16667   0.88093   0.00000  Uiso   1.00
O768   O     0.68513   0.16667   0.78573   0.00000  Uiso   1.00
C769   C     0.66434   0.16667   0.83333   0.00000  Uiso   1.00
C770   C     0.83566   0.16667   0.83333   0.00000  Uiso   1.00
Cu771  Cu    0.75000   0.16667   0.88969   0.00000  Uiso   1.00
Cu772  Cu    0.75000   0.16667   0.77697   0.00000  Uiso   1.00
N773   N     0.75000   0.16667   0.69227   0.00000  Uiso   1.00
N774   N     0.75000   0.16667   0.97439   0.00000  Uiso   1.00
C775   C     0.90654   0.21147   0.83739   0.00000  Uiso   1.00
C776   C     0.59346   0.12186   0.82927   0.00000  Uiso   1.00
C777   C     0.90654   0.12186   0.82927   0.00000  Uiso   1.00
C778   C     0.59346   0.21147   0.83740   0.00000  Uiso   1.00
C779   C     0.88376   0.16667   0.83333   0.00000  Uiso   1.00
C780   C     0.61625   0.16667   0.83333   0.00000  Uiso   1.00
C781   C     0.95319   0.12191   0.82698   0.00000  Uiso   1.00
C782   C     0.54681   0.21142   0.83969   0.00000  Uiso   1.00
C783   C     0.95319   0.21142   0.83969   0.00000  Uiso   1.00
C784   C     0.54681   0.12191   0.82698   0.00000  Uiso   1.00
C785   C     0.97657   0.16667   0.83333   0.00000  Uiso   1.00
C786   C     0.52343   0.16667   0.83333   0.00000  Uiso   1.00
C787   C     0.97688   0.07810   0.81875   0.00000  Uiso   1.00
C788   C     0.52312   0.25523   0.84792   0.00000  Uiso   1.00
C789   C     0.97688   0.25523   0.84792   0.00000  Uiso   1.00
C790   C     0.52312   0.07810   0.81875   0.00000  Uiso   1.00
C791   C     0.75000   0.02180   0.83339   0.00000  Uiso   1.00
C792   C     0.75000   0.31153   0.83327   0.00000  Uiso   1.00
O793   O     0.88283   0.25491   0.84201   0.00000  Uiso   1.00
C794   C     0.87712   0.27479   0.78669   0.00000  Uiso   1.00
H795   H     0.86005   0.24863   0.75752   0.00000  Uiso   1.00
H796   H     0.90949   0.28631   0.76792   0.00000  Uiso   1.00
H797   H     0.85578   0.30787   0.78977   0.00000  Uiso   1.00
O798   O     0.61717   0.07843   0.82465   0.00000  Uiso   1.00
C799   C     0.62289   0.05854   0.87998   0.00000  Uiso   1.00
H800   H     0.64422   0.02546   0.87689   0.00000  Uiso   1.00
H801   H     0.59051   0.04702   0.89874   0.00000  Uiso   1.00
H802   H     0.63995   0.08470   0.90914   0.00000  Uiso   1.00
O803   O     0.88283   0.07842   0.82465   0.00000  Uiso   1.00
C804   C     0.87712   0.05854   0.87998   0.00000  Uiso   1.00
H805   H     0.86002   0.08469   0.90913   0.00000  Uiso   1.00
H806   H     0.90949   0.04706   0.89877   0.00000  Uiso   1.00
H807   H     0.85580   0.02544   0.87689   0.00000  Uiso   1.00
O808   O     0.61717   0.25491   0.84202   0.00000  Uiso   1.00
C809   C     0.62289   0.27479   0.78669   0.00000  Uiso   1.00
H810   H     0.59051   0.28631   0.76792   0.00000  Uiso   1.00
H811   H     0.63995   0.24864   0.75753   0.00000  Uiso   1.00
H812   H     0.64422   0.30788   0.78978   0.00000  Uiso   1.00
O813   O     0.25000   0.42946   0.88092   0.00000  Uiso   1.00
O814   O     0.25000   0.57054   0.78575   0.00000  Uiso   1.00
O815   O     0.25000   0.57054   0.88092   0.00000  Uiso   1.00
O816   O     0.25000   0.42946   0.78575   0.00000  Uiso   1.00
H817   H     0.45976   0.37690   0.81237   0.00000  Uiso   1.00
H818   H     0.04024   0.62310   0.85430   0.00000  Uiso   1.00
H819   H     0.45976   0.62309   0.85430   0.00000  Uiso   1.00
H820   H     0.04024   0.37690   0.81236   0.00000  Uiso   1.00
C821   C     0.25000   0.40669   0.83338   0.00000  Uiso   1.00
C822   C     0.25000   0.59331   0.83329   0.00000  Uiso   1.00
O823   O     0.18513   0.50000   0.88093   0.00000  Uiso   1.00
O824   O     0.31487   0.50000   0.78573   0.00000  Uiso   1.00
O825   O     0.31487   0.50000   0.88093   0.00000  Uiso   1.00
O826   O     0.18513   0.50000   0.78573   0.00000  Uiso   1.00
C827   C     0.16434   0.50000   0.83333   0.00000  Uiso   1.00
C828   C     0.33566   0.50000   0.83333   0.00000  Uiso   1.00
Cu829  Cu    0.25000   0.50000   0.88969   0.00000  Uiso   1.00
Cu830  Cu    0.25000   0.50000   0.77697   0.00000  Uiso   1.00
N831   N     0.25000   0.50000   0.69227   0.00000  Uiso   1.00
N832   N     0.25000   0.50000   0.97439   0.00000  Uiso   1.00
C833   C     0.40654   0.54481   0.83739   0.00000  Uiso   1.00
C834   C     0.09346   0.45519   0.82927   0.00000  Uiso   1.00
C835   C     0.40654   0.45519   0.82927   0.00000  Uiso   1.00
C836   C     0.09346   0.54481   0.83740   0.00000  Uiso   1.00
C837   C     0.38376   0.50000   0.83333   0.00000  Uiso   1.00
C838   C     0.11625   0.50000   0.83333   0.00000  Uiso   1.00
C839   C     0.45319   0.45525   0.82698   0.00000  Uiso   1.00
C840   C     0.04681   0.54475   0.83969   0.00000  Uiso   1.00
C841   C     0.45319   0.54475   0.83969   0.00000  Uiso   1.00
C842   C     0.04681   0.45525   0.82698   0.00000  Uiso   1.00
C843   C     0.47657   0.50000   0.83333   0.00000  Uiso   1.00
C844   C     0.02343   0.50000   0.83333   0.00000  Uiso   1.00
C845   C     0.47688   0.41144   0.81875   0.00000  Uiso   1.00
C846   C     0.02312   0.58856   0.84792   0.00000  Uiso   1.00
C847   C     0.47688   0.58856   0.84792   0.00000  Uiso   1.00
C848   C     0.02312   0.41144   0.81875   0.00000  Uiso   1.00
C849   C     0.25000   0.35513   0.83339   0.00000  Uiso   1.00
C850   C     0.25000   0.64487   0.83327   0.00000  Uiso   1.00
O851   O     0.38283   0.58824   0.84201   0.00000  Uiso   1.00
C852   C     0.37712   0.60812   0.78669   0.00000  Uiso   1.00
H853   H     0.36005   0.58197   0.75752   0.00000  Uiso   1.00
H854   H     0.40949   0.61964   0.76792   0.00000  Uiso   1.00
H855   H     0.35578   0.64121   0.78977   0.00000  Uiso   1.00
O856   O     0.11717   0.41176   0.82465   0.00000  Uiso   1.00
C857   C     0.12289   0.39188   0.87998   0.00000  Uiso   1.00
H858   H     0.14422   0.35879   0.87689   0.00000  Uiso   1.00
H859   H     0.09051   0.38036   0.89874   0.00000  Uiso   1.00
H860   H     0.13995   0.41803   0.90914   0.00000  Uiso   1.00
O861   O     0.38283   0.41176   0.82465   0.00000  Uiso   1.00
C862   C     0.37712   0.39188   0.87998   0.00000  Uiso   1.00
H863   H     0.36002   0.41802   0.90913   0.00000  Uiso   1.00
H864   H     0.40949   0.38039   0.89877   0.00000  Uiso   1.00
H865   H     0.35580   0.35877   0.87689   0.00000  Uiso   1.00
O866   O     0.11717   0.58824   0.84202   0.00000  Uiso   1.00
C867   C     0.12289   0.60812   0.78669   0.00000  Uiso   1.00
H868   H     0.09051   0.61964   0.76792   0.00000  Uiso   1.00
H869   H     0.13995   0.58197   0.75753   0.00000  Uiso   1.00
H870   H     0.14422   0.64121   0.78978   0.00000  Uiso   1.00
O871   O     0.75000   0.42946   0.88092   0.00000  Uiso   1.00
O872   O     0.75000   0.57054   0.78575   0.00000  Uiso   1.00
O873   O     0.75000   0.57054   0.88092   0.00000  Uiso   1.00
O874   O     0.75000   0.42946   0.78575   0.00000  Uiso   1.00
H875   H     0.95976   0.37690   0.81237   0.00000  Uiso   1.00
H876   H     0.54024   0.62310   0.85430   0.00000  Uiso   1.00
H877   H     0.95976   0.62309   0.85430   0.00000  Uiso   1.00
H878   H     0.54024   0.37690   0.81236   0.00000  Uiso   1.00
C879   C     0.75000   0.40669   0.83338   0.00000  Uiso   1.00
C880   C     0.75000   0.59331   0.83329   0.00000  Uiso   1.00
O881   O     0.68513   0.50000   0.88093   0.00000  Uiso   1.00
O882   O     0.81487   0.50000   0.78573   0.00000  Uiso   1.00
O883   O     0.81487   0.50000   0.88093   0.00000  Uiso   1.00
O884   O     0.68513   0.50000   0.78573   0.00000  Uiso   1.00
C885   C     0.66434   0.50000   0.83333   0.00000  Uiso   1.00
C886   C     0.83566   0.50000   0.83333   0.00000  Uiso   1.00
Cu887  Cu    0.75000   0.50000   0.88969   0.00000  Uiso   1.00
Cu888  Cu    0.75000   0.50000   0.77697   0.00000  Uiso   1.00
N889   N     0.75000   0.50000   0.69227   0.00000  Uiso   1.00
N890   N     0.75000   0.50000   0.97439   0.00000  Uiso   1.00
C891   C     0.90654   0.54481   0.83739   0.00000  Uiso   1.00
C892   C     0.59346   0.45519   0.82927   0.00000  Uiso   1.00
C893   C     0.90654   0.45519   0.82927   0.00000  Uiso   1.00
C894   C     0.59346   0.54481   0.83740   0.00000  Uiso   1.00
C895   C     0.88376   0.50000   0.83333   0.00000  Uiso   1.00
C896   C     0.61625   0.50000   0.83333   0.00000  Uiso   1.00
C897   C     0.95319   0.45525   0.82698   0.00000  Uiso   1.00
C898   C     0.54681   0.54475   0.83969   0.00000  Uiso   1.00
C899   C     0.95319   0.54475   0.83969   0.00000  Uiso   1.00
C900   C     0.54681   0.45525   0.82698   0.00000  Uiso   1.00
C901   C     0.97657   0.50000   0.83333   0.00000  Uiso   1.00
C902   C     0.52343   0.50000   0.83333   0.00000  Uiso   1.00
C903   C     0.97688   0.41144   0.81875   0.00000  Uiso   1.00
C904   C     0.52312   0.58856   0.84792   0.00000  Uiso   1.00
C905   C     0.97688   0.58856   0.84792   0.00000  Uiso   1.00
C906   C     0.52312   0.41144   0.81875   0.00000  Uiso   1.00
C907   C     0.75000   0.35513   0.83339   0.00000  Uiso   1.00
C908   C     0.75000   0.64487   0.83327   0.00000  Uiso   1.00
O909   O     0.88283   0.58824   0.84201   0.00000  Uiso   1.00
C910   C     0.87712   0.60812   0.78669   0.00000  Uiso   1.00
H911   H     0.86005   0.58197   0.75752   0.00000  Uiso   1.00
H912   H     0.90949   0.61964   0.76792   0.00000  Uiso   1.00
H913   H     0.85578   0.64121   0.78977   0.00000  Uiso   1.00
O914   O     0.61717   0.41176   0.82465   0.00000  Uiso   1.00
C915   C     0.62289   0.39188   0.87998   0.00000  Uiso   1.00
H916   H     0.64422   0.35879   0.87689   0.00000  Uiso   1.00
H917   H     0.59051   0.38036   0.89874   0.00000  Uiso   1.00
H918   H     0.63995   0.41803   0.90914   0.00000  Uiso   1.00
O919   O     0.88283   0.41176   0.82465   0.00000  Uiso   1.00
C920   C     0.87712   0.39188   0.87998   0.00000  Uiso   1.00
H921   H     0.86002   0.41802   0.90913   0.00000  Uiso   1.00
H922   H     0.90949   0.38039   0.89877   0.00000  Uiso   1.00
H923   H     0.85580   0.35877   0.87689   0.00000  Uiso   1.00
O924   O     0.61717   0.58824   0.84202   0.00000  Uiso   1.00
C925   C     0.62289   0.60812   0.78669   0.00000  Uiso   1.00
H926   H     0.59051   0.61964   0.76792   0.00000  Uiso   1.00
H927   H     0.63995   0.58197   0.75753   0.00000  Uiso   1.00
H928   H     0.64422   0.64121   0.78978   0.00000  Uiso   1.00
O929   O     0.25000   0.76280   0.88092   0.00000  Uiso   1.00
O930   O     0.25000   0.90387   0.78575   0.00000  Uiso   1.00
O931   O     0.25000   0.90387   0.88092   0.00000  Uiso   1.00
O932   O     0.25000   0.76280   0.78575   0.00000  Uiso   1.00
H933   H     0.45976   0.71024   0.81237   0.00000  Uiso   1.00
H934   H     0.04024   0.95643   0.85430   0.00000  Uiso   1.00
H935   H     0.45976   0.95643   0.85430   0.00000  Uiso   1.00
H936   H     0.04024   0.71024   0.81236   0.00000  Uiso   1.00
C937   C     0.25000   0.74002   0.83338   0.00000  Uiso   1.00
C938   C     0.25000   0.92664   0.83329   0.00000  Uiso   1.00
O939   O     0.18513   0.83333   0.88093   0.00000  Uiso   1.00
O940   O     0.31487   0.83333   0.78573   0.00000  Uiso   1.00
O941   O     0.31487   0.83333   0.88093   0.00000  Uiso   1.00
O942   O     0.18513   0.83333   0.78573   0.00000  Uiso   1.00
C943   C     0.16434   0.83333   0.83333   0.00000  Uiso   1.00
C944   C     0.33566   0.83333   0.83333   0.00000  Uiso   1.00
Cu945  Cu    0.25000   0.83333   0.88969   0.00000  Uiso   1.00
Cu946  Cu    0.25000   0.83333   0.77697   0.00000  Uiso   1.00
N947   N     0.25000   0.83333   0.69227   0.00000  Uiso   1.00
N948   N     0.25000   0.83333   0.97439   0.00000  Uiso   1.00
C949   C     0.40654   0.87814   0.83739   0.00000  Uiso   1.00
C950   C     0.09346   0.78853   0.82927   0.00000  Uiso   1.00
C951   C     0.40654   0.78852   0.82927   0.00000  Uiso   1.00
C952   C     0.09346   0.87814   0.83740   0.00000  Uiso   1.00
C953   C     0.38376   0.83333   0.83333   0.00000  Uiso   1.00
C954   C     0.11625   0.83333   0.83333   0.00000  Uiso   1.00
C955   C     0.45319   0.78858   0.82698   0.00000  Uiso   1.00
C956   C     0.04681   0.87809   0.83969   0.00000  Uiso   1.00
C957   C     0.45319   0.87809   0.83969   0.00000  Uiso   1.00
C958   C     0.04681   0.78858   0.82698   0.00000  Uiso   1.00
C959   C     0.47657   0.83333   0.83333   0.00000  Uiso   1.00
C960   C     0.02343   0.83333   0.83333   0.00000  Uiso   1.00
C961   C     0.47688   0.74477   0.81875   0.00000  Uiso   1.00
C962   C     0.02312   0.92190   0.84792   0.00000  Uiso   1.00
C963   C     0.47688   0.92190   0.84792   0.00000  Uiso   1.00
C964   C     0.02312   0.74477   0.81875   0.00000  Uiso   1.00
C965   C     0.25000   0.68847   0.83339   0.00000  Uiso   1.00
C966   C     0.25000   0.97820   0.83327   0.00000  Uiso   1.00
O967   O     0.38283   0.92157   0.84201   0.00000  Uiso   1.00
C968   C     0.37712   0.94146   0.78669   0.00000  Uiso   1.00
H969   H     0.36005   0.91530   0.75752   0.00000  Uiso   1.00
H970   H     0.40949   0.95297   0.76792   0.00000  Uiso   1.00
H971   H     0.35578   0.97454   0.78977   0.00000  Uiso   1.00
O972   O     0.11717   0.74509   0.82465   0.00000  Uiso   1.00
C973   C     0.12289   0.72521   0.87998   0.00000  Uiso   1.00
H974   H     0.14422   0.69212   0.87689   0.00000  Uiso   1.00
H975   H     0.09051   0.71369   0.89874   0.00000  Uiso   1.00
H976   H     0.13995   0.75136   0.90914   0.00000  Uiso   1.00
O977   O     0.38283   0.74509   0.82465   0.00000  Uiso   1.00
C978   C     0.37712   0.72521   0.87998   0.00000  Uiso   1.00
H979   H     0.36002   0.75135   0.90913   0.00000  Uiso   1.00
H980   H     0.40949   0.71372   0.89877   0.00000  Uiso   1.00
H981   H     0.35580   0.69211   0.87689   0.00000  Uiso   1.00
O982   O     0.11717   0.92157   0.84202   0.00000  Uiso   1.00
C983   C     0.12289   0.94146   0.78669   0.00000  Uiso   1.00
H984   H     0.09051   0.95297   0.76792   0.00000  Uiso   1.00
H985   H     0.13995   0.91531   0.75753   0.00000  Uiso   1.00
H986   H     0.14422   0.97454   0.78978   0.00000  Uiso   1.00
O987   O     0.75000   0.76280   0.88092   0.00000  Uiso   1.00
O988   O     0.75000   0.90387   0.78575   0.00000  Uiso   1.00
O989   O     0.75000   0.90387   0.88092   0.00000  Uiso   1.00
O990   O     0.75000   0.76280   0.78575   0.00000  Uiso   1.00
H991   H     0.95976   0.71024   0.81237   0.00000  Uiso   1.00
H992   H     0.54024   0.95643   0.85430   0.00000  Uiso   1.00
H993   H     0.95976   0.95643   0.85430   0.00000  Uiso   1.00
H994   H     0.54024   0.71024   0.81236   0.00000  Uiso   1.00
C995   C     0.75000   0.74002   0.83338   0.00000  Uiso   1.00
C996   C     0.75000   0.92664   0.83329   0.00000  Uiso   1.00
O997   O     0.68513   0.83333   0.88093   0.00000  Uiso   1.00
O998   O     0.81487   0.83333   0.78573   0.00000  Uiso   1.00
O999   O     0.81487   0.83333   0.88093   0.00000  Uiso   1.00
O1000  O     0.68513   0.83333   0.78573   0.00000  Uiso   1.00
C1001  C     0.66434   0.83333   0.83333   0.00000  Uiso   1.00
C1002  C     0.83566   0.83333   0.83333   0.00000  Uiso   1.00
Cu1003 Cu    0.75000   0.83333   0.88969   0.00000  Uiso   1.00
Cu1004 Cu    0.75000   0.83333   0.77697   0.00000  Uiso   1.00
N1005  N     0.75000   0.83333   0.69227   0.00000  Uiso   1.00
N1006  N     0.75000   0.83333   0.97439   0.00000  Uiso   1.00
C1007  C     0.90654   0.87814   0.83739   0.00000  Uiso   1.00
C1008  C     0.59346   0.78853   0.82927   0.00000  Uiso   1.00
C1009  C     0.90654   0.78852   0.82927   0.00000  Uiso   1.00
C1010  C     0.59346   0.87814   0.83740   0.00000  Uiso   1.00
C1011  C     0.88376   0.83333   0.83333   0.00000  Uiso   1.00
C1012  C     0.61625   0.83333   0.83333   0.00000  Uiso   1.00
C1013  C     0.95319   0.78858   0.82698   0.00000  Uiso   1.00
C1014  C     0.54681   0.87809   0.83969   0.00000  Uiso   1.00
C1015  C     0.95319   0.87809   0.83969   0.00000  Uiso   1.00
C1016  C     0.54681   0.78858   0.82698   0.00000  Uiso   1.00
C1017  C     0.97657   0.83333   0.83333   0.00000  Uiso   1.00
C1018  C     0.52343   0.83333   0.83333   0.00000  Uiso   1.00
C1019  C     0.97688   0.74477   0.81875   0.00000  Uiso   1.00
C1020  C     0.52312   0.92190   0.84792   0.00000  Uiso   1.00
C1021  C     0.97688   0.92190   0.84792   0.00000  Uiso   1.00
C1022  C     0.52312   0.74477   0.81875   0.00000  Uiso   1.00
C1023  C     0.75000   0.68847   0.83339   0.00000  Uiso   1.00
C1024  C     0.75000   0.97820   0.83327   0.00000  Uiso   1.00
O1025  O     0.88283   0.92157   0.84201   0.00000  Uiso   1.00
C1026  C     0.87712   0.94146   0.78669   0.00000  Uiso   1.00
H1027  H     0.86005   0.91530   0.75752   0.00000  Uiso   1.00
H1028  H     0.90949   0.95297   0.76792   0.00000  Uiso   1.00
H1029  H     0.85578   0.97454   0.78977   0.00000  Uiso   1.00
O1030  O     0.61717   0.74509   0.82465   0.00000  Uiso   1.00
C1031  C     0.62289   0.72521   0.87998   0.00000  Uiso   1.00
H1032  H     0.64422   0.69212   0.87689   0.00000  Uiso   1.00
H1033  H     0.59051   0.71369   0.89874   0.00000  Uiso   1.00
H1034  H     0.63995   0.75136   0.90914   0.00000  Uiso   1.00
O1035  O     0.88283   0.74509   0.82465   0.00000  Uiso   1.00
C1036  C     0.87712   0.72521   0.87998   0.00000  Uiso   1.00
H1037  H     0.86002   0.75135   0.90913   0.00000  Uiso   1.00
H1038  H     0.90949   0.71372   0.89877   0.00000  Uiso   1.00
H1039  H     0.85580   0.69211   0.87689   0.00000  Uiso   1.00
O1040  O     0.61717   0.92157   0.84202   0.00000  Uiso   1.00
C1041  C     0.62289   0.94146   0.78669   0.00000  Uiso   1.00
H1042  H     0.59051   0.95297   0.76792   0.00000  Uiso   1.00
H1043  H     0.63995   0.91531   0.75753   0.00000  Uiso   1.00
H1044  H     0.64422   0.97454   0.78978   0.00000  Uiso   1.00
loop_
_geom_bond_atom_site_label_1
_geom_bond_atom_site_label_2
_geom_bond_distance
_geom_bond_site_symmetry_2
_ccdc_geom_bond_type
O1     Cu17    1.933   .     S
O1     C9      1.274   .     A
O2     Cu18    1.933   .     S
O2     C10     1.274   .     A
O3     C10     1.274   .     A
O3     Cu17    1.932   .     S
O4     Cu18    1.932   .     S
O4     C9      1.274   .     A
H5     C33     1.083   .     S
H6     C34     1.083   .     S
H7     C35     1.083   .     S
H8     C36     1.083   .     S
C9     C37     1.404   .     S
C10    C38     1.404   .     S
O11    C15     1.276   .     A
O11    Cu17    1.960   .     S
O12    C16     1.276   .     A
O12    Cu18    1.960   .     S
O13    Cu17    1.960   .     S
O13    C16     1.276   .     A
O14    C15     1.276   .     A
O14    Cu18    1.960   .     S
C15    C26     1.446   .     S
C16    C25     1.446   .     S
Cu17   N20     1.980   .     S
Cu17   Cu18    2.636   .     S
Cu18   N19     1.980   .     S
N19    N716    1.197   1_554 S
N20    N367    1.197   .     S
C21    O39     1.386   .     S
C21    C25     1.403   .     A
C21    C29     1.403   .     A
C22    O44     1.386   .     S
C22    C26     1.403   .     A
C22    C30     1.403   .     A
C23    C27     1.403   .     A
C23    O49     1.386   .     S
C23    C25     1.403   .     A
C24    O54     1.386   .     S
C24    C28     1.403   .     A
C24    C26     1.403   .     A
C27    C33     1.403   .     A
C27    C31     1.415   .     A
C28    C34     1.403   .     A
C28    C32     1.415   .     A
C29    C35     1.403   .     A
C29    C31     1.415   .     A
C30    C36     1.403   .     A
C30    C32     1.415   .     A
C31    C90     1.409   .     S
C32    C89     1.409   1_455 S
C33    C94     1.390   .     S
C34    C93     1.390   1_455 S
C35    C92     1.390   .     S
C36    C91     1.390   1_455 S
C37    C270    1.188   1_545 S
C38    C153    1.188   .     S
O39    C40     1.412   .     S
C40    H42     1.112   .     S
C40    H41     1.113   .     S
C40    H43     1.109   .     S
O44    C45     1.412   .     S
C45    H46     1.109   .     S
C45    H47     1.112   .     S
C45    H48     1.113   .     S
O49    C50     1.412   .     S
C50    H52     1.112   .     S
C50    H53     1.109   .     S
C50    H51     1.113   .     S
O54    C55     1.412   .     S
C55    H56     1.112   .     S
C55    H58     1.109   .     S
C55    H57     1.113   .     S
O59    Cu75    1.933   .     S
O59    C67     1.274   .     A
O60    Cu76    1.933   .     S
O60    C68     1.274   .     A
O61    C68     1.274   .     A
O61    Cu75    1.932   .     S
O62    Cu76    1.932   .     S
O62    C67     1.274   .     A
H63    C91     1.083   .     S
H64    C92     1.083   .     S
H65    C93     1.083   .     S
H66    C94     1.083   .     S
C67    C95     1.404   .     S
C68    C96     1.404   .     S
O69    C73     1.276   .     A
O69    Cu75    1.960   .     S
O70    C74     1.276   .     A
O70    Cu76    1.960   .     S
O71    Cu75    1.960   .     S
O71    C74     1.276   .     A
O72    C73     1.276   .     A
O72    Cu76    1.960   .     S
C73    C84     1.446   .     S
C74    C83     1.446   .     S
Cu75   N78     1.980   .     S
Cu75   Cu76    2.636   .     S
Cu76   N77     1.980   .     S
N77    N774    1.197   1_554 S
N78    N425    1.197   .     S
C79    O97     1.386   .     S
C79    C83     1.403   .     A
C79    C87     1.403   .     A
C80    O102    1.386   .     S
C80    C84     1.403   .     A
C80    C88     1.403   .     A
C81    C85     1.403   .     A
C81    O107    1.386   .     S
C81    C83     1.403   .     A
C82    O112    1.386   .     S
C82    C86     1.403   .     A
C82    C84     1.403   .     A
C85    C91     1.403   .     A
C85    C89     1.415   .     A
C86    C92     1.403   .     A
C86    C90     1.415   .     A
C87    C93     1.403   .     A
C87    C89     1.415   .     A
C88    C94     1.403   .     A
C88    C90     1.415   .     A
C89    C32     1.409   1_655 S
C91    C36     1.390   1_655 S
C93    C34     1.390   1_655 S
C95    C328    1.188   1_545 S
C96    C211    1.188   .     S
O97    C98     1.412   .     S
C98    H100    1.112   .     S
C98    H99     1.113   .     S
C98    H101    1.109   .     S
O102   C103    1.412   .     S
C103   H104    1.109   .     S
C103   H105    1.112   .     S
C103   H106    1.113   .     S
O107   C108    1.412   .     S
C108   H110    1.112   .     S
C108   H111    1.109   .     S
C108   H109    1.113   .     S
O112   C113    1.412   .     S
C113   H114    1.112   .     S
C113   H116    1.109   .     S
C113   H115    1.113   .     S
O117   Cu133   1.933   .     S
O117   C125    1.274   .     A
O118   Cu134   1.933   .     S
O118   C126    1.274   .     A
O119   C126    1.274   .     A
O119   Cu133   1.932   .     S
O120   Cu134   1.932   .     S
O120   C125    1.274   .     A
H121   C149    1.083   .     S
H122   C150    1.083   .     S
H123   C151    1.083   .     S
H124   C152    1.083   .     S
C125   C153    1.404   .     S
C126   C154    1.404   .     S
O127   C131    1.276   .     A
O127   Cu133   1.960   .     S
O128   C132    1.276   .     A
O128   Cu134   1.960   .     S
O129   Cu133   1.960   .     S
O129   C132    1.276   .     A
O130   C131    1.276   .     A
O130   Cu134   1.960   .     S
C131   C142    1.446   .     S
C132   C141    1.446   .     S
Cu133  N136    1.980   .     S
Cu133  Cu134   2.636   .     S
Cu134  N135    1.980   .     S
N135   N832    1.197   1_554 S
N136   N483    1.197   .     S
C137   O155    1.386   .     S
C137   C141    1.403   .     A
C137   C145    1.403   .     A
C138   O160    1.386   .     S
C138   C142    1.403   .     A
C138   C146    1.403   .     A
C139   C143    1.403   .     A
C139   O165    1.386   .     S
C139   C141    1.403   .     A
C140   O170    1.386   .     S
C140   C144    1.403   .     A
C140   C142    1.403   .     A
C143   C149    1.403   .     A
C143   C147    1.415   .     A
C144   C150    1.403   .     A
C144   C148    1.415   .     A
C145   C151    1.403   .     A
C145   C147    1.415   .     A
C146   C152    1.403   .     A
C146   C148    1.415   .     A
C147   C206    1.409   .     S
C148   C205    1.409   1_455 S
C149   C210    1.390   .     S
C150   C209    1.390   1_455 S
C151   C208    1.390   .     S
C152   C207    1.390   1_455 S
C154   C269    1.188   .     S
O155   C156    1.412   .     S
C156   H158    1.112   .     S
C156   H157    1.113   .     S
C156   H159    1.109   .     S
O160   C161    1.412   .     S
C161   H162    1.109   .     S
C161   H163    1.112   .     S
C161   H164    1.113   .     S
O165   C166    1.412   .     S
C166   H168    1.112   .     S
C166   H169    1.109   .     S
C166   H167    1.113   .     S
O170   C171    1.412   .     S
C171   H172    1.112   .     S
C171   H174    1.109   .     S
C171   H173    1.113   .     S
O175   Cu191   1.933   .     S
O175   C183    1.274   .     A
O176   Cu192   1.933   .     S
O176   C184    1.274   .     A
O177   C184    1.274   .     A
O177   Cu191   1.932   .     S
O178   Cu192   1.932   .     S
O178   C183    1.274   .     A
H179   C207    1.083   .     S
H180   C208    1.083   .     S
H181   C209    1.083   .     S
H182   C210    1.083   .     S
C183   C211    1.404   .     S
C184   C212    1.404   .     S
O185   C189    1.276   .     A
O185   Cu191   1.960   .     S
O186   C190    1.276   .     A
O186   Cu192   1.960   .     S
O187   Cu191   1.960   .     S
O187   C190    1.276   .     A
O188   C189    1.276   .     A
O188   Cu192   1.960   .     S
C189   C200    1.446   .     S
C190   C199    1.446   .     S
Cu191  N194    1.980   .     S
Cu191  Cu192   2.636   .     S
Cu192  N193    1.980   .     S
N193   N890    1.197   1_554 S
N194   N541    1.197   .     S
C195   O213    1.386   .     S
C195   C199    1.403   .     A
C195   C203    1.403   .     A
C196   O218    1.386   .     S
C196   C200    1.403   .     A
C196   C204    1.403   .     A
C197   C201    1.403   .     A
C197   O223    1.386   .     S
C197   C199    1.403   .     A
C198   O228    1.386   .     S
C198   C202    1.403   .     A
C198   C200    1.403   .     A
C201   C207    1.403   .     A
C201   C205    1.415   .     A
C202   C208    1.403   .     A
C202   C206    1.415   .     A
C203   C209    1.403   .     A
C203   C205    1.415   .     A
C204   C210    1.403   .     A
C204   C206    1.415   .     A
C205   C148    1.409   1_655 S
C207   C152    1.390   1_655 S
C209   C150    1.390   1_655 S
C212   C327    1.188   .     S
O213   C214    1.412   .     S
C214   H216    1.112   .     S
C214   H215    1.113   .     S
C214   H217    1.109   .     S
O218   C219    1.412   .     S
C219   H220    1.109   .     S
C219   H221    1.112   .     S
C219   H222    1.113   .     S
O223   C224    1.412   .     S
C224   H226    1.112   .     S
C224   H227    1.109   .     S
C224   H225    1.113   .     S
O228   C229    1.412   .     S
C229   H230    1.112   .     S
C229   H232    1.109   .     S
C229   H231    1.113   .     S
O233   Cu249   1.933   .     S
O233   C241    1.274   .     A
O234   Cu250   1.933   .     S
O234   C242    1.274   .     A
O235   C242    1.274   .     A
O235   Cu249   1.932   .     S
O236   Cu250   1.932   .     S
O236   C241    1.274   .     A
H237   C265    1.083   .     S
H238   C266    1.083   .     S
H239   C267    1.083   .     S
H240   C268    1.083   .     S
C241   C269    1.404   .     S
C242   C270    1.404   .     S
O243   C247    1.276   .     A
O243   Cu249   1.960   .     S
O244   C248    1.276   .     A
O244   Cu250   1.960   .     S
O245   Cu249   1.960   .     S
O245   C248    1.276   .     A
O246   C247    1.276   .     A
O246   Cu250   1.960   .     S
C247   C258    1.446   .     S
C248   C257    1.446   .     S
Cu249  N252    1.980   .     S
Cu249  Cu250   2.636   .     S
Cu250  N251    1.980   .     S
N251   N948    1.197   1_554 S
N252   N599    1.197   .     S
C253   O271    1.386   .     S
C253   C257    1.403   .     A
C253   C261    1.403   .     A
C254   O276    1.386   .     S
C254   C258    1.403   .     A
C254   C262    1.403   .     A
C255   C259    1.403   .     A
C255   O281    1.386   .     S
C255   C257    1.403   .     A
C256   O286    1.386   .     S
C256   C260    1.403   .     A
C256   C258    1.403   .     A
C259   C265    1.403   .     A
C259   C263    1.415   .     A
C260   C266    1.403   .     A
C260   C264    1.415   .     A
C261   C267    1.403   .     A
C261   C263    1.415   .     A
C262   C268    1.403   .     A
C262   C264    1.415   .     A
C263   C322    1.409   .     S
C264   C321    1.409   1_455 S
C265   C326    1.390   .     S
C266   C325    1.390   1_455 S
C267   C324    1.390   .     S
C268   C323    1.390   1_455 S
C270   C37     1.188   1_565 S
O271   C272    1.412   .     S
C272   H274    1.112   .     S
C272   H273    1.113   .     S
C272   H275    1.109   .     S
O276   C277    1.412   .     S
C277   H278    1.109   .     S
C277   H279    1.112   .     S
C277   H280    1.113   .     S
O281   C282    1.412   .     S
C282   H284    1.112   .     S
C282   H285    1.109   .     S
C282   H283    1.113   .     S
O286   C287    1.412   .     S
C287   H288    1.112   .     S
C287   H290    1.109   .     S
C287   H289    1.113   .     S
O291   Cu307   1.933   .     S
O291   C299    1.274   .     A
O292   Cu308   1.933   .     S
O292   C300    1.274   .     A
O293   C300    1.274   .     A
O293   Cu307   1.932   .     S
O294   Cu308   1.932   .     S
O294   C299    1.274   .     A
H295   C323    1.083   .     S
H296   C324    1.083   .     S
H297   C325    1.083   .     S
H298   C326    1.083   .     S
C299   C327    1.404   .     S
C300   C328    1.404   .     S
O301   C305    1.276   .     A
O301   Cu307   1.960   .     S
O302   C306    1.276   .     A
O302   Cu308   1.960   .     S
O303   Cu307   1.960   .     S
O303   C306    1.276   .     A
O304   C305    1.276   .     A
O304   Cu308   1.960   .     S
C305   C316    1.446   .     S
C306   C315    1.446   .     S
Cu307  N310    1.980   .     S
Cu307  Cu308   2.636   .     S
Cu308  N309    1.980   .     S
N309   N1006   1.197   1_554 S
N310   N657    1.197   .     S
C311   O329    1.386   .     S
C311   C315    1.403   .     A
C311   C319    1.403   .     A
C312   O334    1.386   .     S
C312   C316    1.403   .     A
C312   C320    1.403   .     A
C313   C317    1.403   .     A
C313   O339    1.386   .     S
C313   C315    1.403   .     A
C314   O344    1.386   .     S
C314   C318    1.403   .     A
C314   C316    1.403   .     A
C317   C323    1.403   .     A
C317   C321    1.415   .     A
C318   C324    1.403   .     A
C318   C322    1.415   .     A
C319   C325    1.403   .     A
C319   C321    1.415   .     A
C320   C326    1.403   .     A
C320   C322    1.415   .     A
C321   C264    1.409   1_655 S
C323   C268    1.390   1_655 S
C325   C266    1.390   1_655 S
C328   C95     1.188   1_565 S
O329   C330    1.412   .     S
C330   H332    1.112   .     S
C330   H331    1.113   .     S
C330   H333    1.109   .     S
O334   C335    1.412   .     S
C335   H336    1.109   .     S
C335   H337    1.112   .     S
C335   H338    1.113   .     S
O339   C340    1.412   .     S
C340   H342    1.112   .     S
C340   H343    1.109   .     S
C340   H341    1.113   .     S
O344   C345    1.412   .     S
C345   H346    1.112   .     S
C345   H348    1.109   .     S
C345   H347    1.113   .     S
O349   Cu365   1.933   .     S
O349   C357    1.274   .     A
O350   Cu366   1.933   .     S
O350   C358    1.274   .     A
O351   C358    1.274   .     A
O351   Cu365   1.932   .     S
O352   Cu366   1.932   .     S
O352   C357    1.274   .     A
H353   C381    1.083   .     S
H354   C382    1.083   .     S
H355   C383    1.083   .     S
H356   C384    1.083   .     S
C357   C385    1.404   .     S
C358   C386    1.404   .     S
O359   C363    1.276   .     A
O359   Cu365   1.960   .     S
O360   C364    1.276   .     A
O360   Cu366   1.960   .     S
O361   Cu365   1.960   .     S
O361   C364    1.276   .     A
O362   C363    1.276   .     A
O362   Cu366   1.960   .     S
C363   C374    1.446   .     S
C364   C373    1.446   .     S
Cu365  N368    1.980   .     S
Cu365  Cu366   2.636   .     S
Cu366  N367    1.980   .     S
N368   N715    1.197   .     S
C369   O387    1.386   .     S
C369   C373    1.403   .     A
C369   C377    1.403   .     A
C370   O392    1.386   .     S
C370   C374    1.403   .     A
C370   C378    1.403   .     A
C371   C375    1.403   .     A
C371   O397    1.386   .     S
C371   C373    1.403   .     A
C372   O402    1.386   .     S
C372   C376    1.403   .     A
C372   C374    1.403   .     A
C375   C381    1.403   .     A
C375   C379    1.415   .     A
C376   C382    1.403   .     A
C376   C380    1.415   .     A
C377   C383    1.403   .     A
C377   C379    1.415   .     A
C378   C384    1.403   .     A
C378   C380    1.415   .     A
C379   C438    1.409   .     S
C380   C437    1.409   1_455 S
C381   C442    1.390   .     S
C382   C441    1.390   1_455 S
C383   C440    1.390   .     S
C384   C439    1.390   1_455 S
C385   C618    1.188   1_545 S
C386   C501    1.188   .     S
O387   C388    1.412   .     S
C388   H390    1.112   .     S
C388   H389    1.113   .     S
C388   H391    1.109   .     S
O392   C393    1.412   .     S
C393   H394    1.109   .     S
C393   H395    1.112   .     S
C393   H396    1.113   .     S
O397   C398    1.412   .     S
C398   H400    1.112   .     S
C398   H401    1.109   .     S
C398   H399    1.113   .     S
O402   C403    1.412   .     S
C403   H404    1.112   .     S
C403   H406    1.109   .     S
C403   H405    1.113   .     S
O407   Cu423   1.933   .     S
O407   C415    1.274   .     A
O408   Cu424   1.933   .     S
O408   C416    1.274   .     A
O409   C416    1.274   .     A
O409   Cu423   1.932   .     S
O410   Cu424   1.932   .     S
O410   C415    1.274   .     A
H411   C439    1.083   .     S
H412   C440    1.083   .     S
H413   C441    1.083   .     S
H414   C442    1.083   .     S
C415   C443    1.404   .     S
C416   C444    1.404   .     S
O417   C421    1.276   .     A
O417   Cu423   1.960   .     S
O418   C422    1.276   .     A
O418   Cu424   1.960   .     S
O419   Cu423   1.960   .     S
O419   C422    1.276   .     A
O420   C421    1.276   .     A
O420   Cu424   1.960   .     S
C421   C432    1.446   .     S
C422   C431    1.446   .     S
Cu423  N426    1.980   .     S
Cu423  Cu424   2.636   .     S
Cu424  N425    1.980   .     S
N426   N773    1.197   .     S
C427   O445    1.386   .     S
C427   C431    1.403   .     A
C427   C435    1.403   .     A
C428   O450    1.386   .     S
C428   C432    1.403   .     A
C428   C436    1.403   .     A
C429   C433    1.403   .     A
C429   O455    1.386   .     S
C429   C431    1.403   .     A
C430   O460    1.386   .     S
C430   C434    1.403   .     A
C430   C432    1.403   .     A
C433   C439    1.403   .     A
C433   C437    1.415   .     A
C434   C440    1.403   .     A
C434   C438    1.415   .     A
C435   C441    1.403   .     A
C435   C437    1.415   .     A
C436   C442    1.403   .     A
C436   C438    1.415   .     A
C437   C380    1.409   1_655 S
C439   C384    1.390   1_655 S
C441   C382    1.390   1_655 S
C443   C676    1.188   1_545 S
C444   C559    1.188   .     S
O445   C446    1.412   .     S
C446   H448    1.112   .     S
C446   H447    1.113   .     S
C446   H449    1.109   .     S
O450   C451    1.412   .     S
C451   H452    1.109   .     S
C451   H453    1.112   .     S
C451   H454    1.113   .     S
O455   C456    1.412   .     S
C456   H458    1.112   .     S
C456   H459    1.109   .     S
C456   H457    1.113   .     S
O460   C461    1.412   .     S
C461   H462    1.112   .     S
C461   H464    1.109   .     S
C461   H463    1.113   .     S
O465   Cu481   1.933   .     S
O465   C473    1.274   .     A
O466   Cu482   1.933   .     S
O466   C474    1.274   .     A
O467   C474    1.274   .     A
O467   Cu481   1.932   .     S
O468   Cu482   1.932   .     S
O468   C473    1.274   .     A
H469   C497    1.083   .     S
H470   C498    1.083   .     S
H471   C499    1.083   .     S
H472   C500    1.083   .     S
C473   C501    1.404   .     S
C474   C502    1.404   .     S
O475   C479    1.276   .     A
O475   Cu481   1.960   .     S
O476   C480    1.276   .     A
O476   Cu482   1.960   .     S
O477   Cu481   1.960   .     S
O477   C480    1.276   .     A
O478   C479    1.276   .     A
O478   Cu482   1.960   .     S
C479   C490    1.446   .     S
C480   C489    1.446   .     S
Cu481  N484    1.980   .     S
Cu481  Cu482   2.636   .     S
Cu482  N483    1.980   .     S
N484   N831    1.197   .     S
C485   O503    1.386   .     S
C485   C489    1.403   .     A
C485   C493    1.403   .     A
C486   O508    1.386   .     S
C486   C490    1.403   .     A
C486   C494    1.403   .     A
C487   C491    1.403   .     A
C487   O513    1.386   .     S
C487   C489    1.403   .     A
C488   O518    1.386   .     S
C488   C492    1.403   .     A
C488   C490    1.403   .     A
C491   C497    1.403   .     A
C491   C495    1.415   .     A
C492   C498    1.403   .     A
C492   C496    1.415   .     A
C493   C499    1.403   .     A
C493   C495    1.415   .     A
C494   C500    1.403   .     A
C494   C496    1.415   .     A
C495   C554    1.409   .     S
C496   C553    1.409   1_455 S
C497   C558    1.390   .     S
C498   C557    1.390   1_455 S
C499   C556    1.390   .     S
C500   C555    1.390   1_455 S
C502   C617    1.188   .     S
O503   C504    1.412   .     S
C504   H506    1.112   .     S
C504   H505    1.113   .     S
C504   H507    1.109   .     S
O508   C509    1.412   .     S
C509   H510    1.109   .     S
C509   H511    1.112   .     S
C509   H512    1.113   .     S
O513   C514    1.412   .     S
C514   H516    1.112   .     S
C514   H517    1.109   .     S
C514   H515    1.113   .     S
O518   C519    1.412   .     S
C519   H520    1.112   .     S
C519   H522    1.109   .     S
C519   H521    1.113   .     S
O523   Cu539   1.933   .     S
O523   C531    1.274   .     A
O524   Cu540   1.933   .     S
O524   C532    1.274   .     A
O525   C532    1.274   .     A
O525   Cu539   1.932   .     S
O526   Cu540   1.932   .     S
O526   C531    1.274   .     A
H527   C555    1.083   .     S
H528   C556    1.083   .     S
H529   C557    1.083   .     S
H530   C558    1.083   .     S
C531   C559    1.404   .     S
C532   C560    1.404   .     S
O533   C537    1.276   .     A
O533   Cu539   1.960   .     S
O534   C538    1.276   .     A
O534   Cu540   1.960   .     S
O535   Cu539   1.960   .     S
O535   C538    1.276   .     A
O536   C537    1.276   .     A
O536   Cu540   1.960   .     S
C537   C548    1.446   .     S
C538   C547    1.446   .     S
Cu539  N542    1.980   .     S
Cu539  Cu540   2.636   .     S
Cu540  N541    1.980   .     S
N542   N889    1.197   .     S
C543   O561    1.386   .     S
C543   C547    1.403   .     A
C543   C551    1.403   .     A
C544   O566    1.386   .     S
C544   C548    1.403   .     A
C544   C552    1.403   .     A
C545   C549    1.403   .     A
C545   O571    1.386   .     S
C545   C547    1.403   .     A
C546   O576    1.386   .     S
C546   C550    1.403   .     A
C546   C548    1.403   .     A
C549   C555    1.403   .     A
C549   C553    1.415   .     A
C550   C556    1.403   .     A
C550   C554    1.415   .     A
C551   C557    1.403   .     A
C551   C553    1.415   .     A
C552   C558    1.403   .     A
C552   C554    1.415   .     A
C553   C496    1.409   1_655 S
C555   C500    1.390   1_655 S
C557   C498    1.390   1_655 S
C560   C675    1.188   .     S
O561   C562    1.412   .     S
C562   H564    1.112   .     S
C562   H563    1.113   .     S
C562   H565    1.109   .     S
O566   C567    1.412   .     S
C567   H568    1.109   .     S
C567   H569    1.112   .     S
C567   H570    1.113   .     S
O571   C572    1.412   .     S
C572   H574    1.112   .     S
C572   H575    1.109   .     S
C572   H573    1.113   .     S
O576   C577    1.412   .     S
C577   H578    1.112   .     S
C577   H580    1.109   .     S
C577   H579    1.113   .     S
O581   Cu597   1.933   .     S
O581   C589    1.274   .     A
O582   Cu598   1.933   .     S
O582   C590    1.274   .     A
O583   C590    1.274   .     A
O583   Cu597   1.932   .     S
O584   Cu598   1.932   .     S
O584   C589    1.274   .     A
H585   C613    1.083   .     S
H586   C614    1.083   .     S
H587   C615    1.083   .     S
H588   C616    1.083   .     S
C589   C617    1.404   .     S
C590   C618    1.404   .     S
O591   C595    1.276   .     A
O591   Cu597   1.960   .     S
O592   C596    1.276   .     A
O592   Cu598   1.960   .     S
O593   Cu597   1.960   .     S
O593   C596    1.276   .     A
O594   C595    1.276   .     A
O594   Cu598   1.960   .     S
C595   C606    1.446   .     S
C596   C605    1.446   .     S
Cu597  N600    1.980   .     S
Cu597  Cu598   2.636   .     S
Cu598  N599    1.980   .     S
N600   N947    1.197   .     S
C601   O619    1.386   .     S
C601   C605    1.403   .     A
C601   C609    1.403   .     A
C602   O624    1.386   .     S
C602   C606    1.403   .     A
C602   C610    1.403   .     A
C603   C607    1.403   .     A
C603   O629    1.386   .     S
C603   C605    1.403   .     A
C604   O634    1.386   .     S
C604   C608    1.403   .     A
C604   C606    1.403   .     A
C607   C613    1.403   .     A
C607   C611    1.415   .     A
C608   C614    1.403   .     A
C608   C612    1.415   .     A
C609   C615    1.403   .     A
C609   C611    1.415   .     A
C610   C616    1.403   .     A
C610   C612    1.415   .     A
C611   C670    1.409   .     S
C612   C669    1.409   1_455 S
C613   C674    1.390   .     S
C614   C673    1.390   1_455 S
C615   C672    1.390   .     S
C616   C671    1.390   1_455 S
C618   C385    1.188   1_565 S
O619   C620    1.412   .     S
C620   H622    1.112   .     S
C620   H621    1.113   .     S
C620   H623    1.109   .     S
O624   C625    1.412   .     S
C625   H626    1.109   .     S
C625   H627    1.112   .     S
C625   H628    1.113   .     S
O629   C630    1.412   .     S
C630   H632    1.112   .     S
C630   H633    1.109   .     S
C630   H631    1.113   .     S
O634   C635    1.412   .     S
C635   H636    1.112   .     S
C635   H638    1.109   .     S
C635   H637    1.113   .     S
O639   Cu655   1.933   .     S
O639   C647    1.274   .     A
O640   Cu656   1.933   .     S
O640   C648    1.274   .     A
O641   C648    1.274   .     A
O641   Cu655   1.932   .     S
O642   Cu656   1.932   .     S
O642   C647    1.274   .     A
H643   C671    1.083   .     S
H644   C672    1.083   .     S
H645   C673    1.083   .     S
H646   C674    1.083   .     S
C647   C675    1.404   .     S
C648   C676    1.404   .     S
O649   C653    1.276   .     A
O649   Cu655   1.960   .     S
O650   C654    1.276   .     A
O650   Cu656   1.960   .     S
O651   Cu655   1.960   .     S
O651   C654    1.276   .     A
O652   C653    1.276   .     A
O652   Cu656   1.960   .     S
C653   C664    1.446   .     S
C654   C663    1.446   .     S
Cu655  N658    1.980   .     S
Cu655  Cu656   2.636   .     S
Cu656  N657    1.980   .     S
N658   N1005   1.197   .     S
C659   O677    1.386   .     S
C659   C663    1.403   .     A
C659   C667    1.403   .     A
C660   O682    1.386   .     S
C660   C664    1.403   .     A
C660   C668    1.403   .     A
C661   C665    1.403   .     A
C661   O687    1.386   .     S
C661   C663    1.403   .     A
C662   O692    1.386   .     S
C662   C666    1.403   .     A
C662   C664    1.403   .     A
C665   C671    1.403   .     A
C665   C669    1.415   .     A
C666   C672    1.403   .     A
C666   C670    1.415   .     A
C667   C673    1.403   .     A
C667   C669    1.415   .     A
C668   C674    1.403   .     A
C668   C670    1.415   .     A
C669   C612    1.409   1_655 S
C671   C616    1.390   1_655 S
C673   C614    1.390   1_655 S
C676   C443    1.188   1_565 S
O677   C678    1.412   .     S
C678   H680    1.112   .     S
C678   H679    1.113   .     S
C678   H681    1.109   .     S
O682   C683    1.412   .     S
C683   H684    1.109   .     S
C683   H685    1.112   .     S
C683   H686    1.113   .     S
O687   C688    1.412   .     S
C688   H690    1.112   .     S
C688   H691    1.109   .     S
C688   H689    1.113   .     S
O692   C693    1.412   .     S
C693   H694    1.112   .     S
C693   H696    1.109   .     S
C693   H695    1.113   .     S
O697   Cu713   1.933   .     S
O697   C705    1.274   .     A
O698   Cu714   1.933   .     S
O698   C706    1.274   .     A
O699   C706    1.274   .     A
O699   Cu713   1.932   .     S
O700   Cu714   1.932   .     S
O700   C705    1.274   .     A
H701   C729    1.083   .     S
H702   C730    1.083   .     S
H703   C731    1.083   .     S
H704   C732    1.083   .     S
C705   C733    1.404   .     S
C706   C734    1.404   .     S
O707   C711    1.276   .     A
O707   Cu713   1.960   .     S
O708   C712    1.276   .     A
O708   Cu714   1.960   .     S
O709   Cu713   1.960   .     S
O709   C712    1.276   .     A
O710   C711    1.276   .     A
O710   Cu714   1.960   .     S
C711   C722    1.446   .     S
C712   C721    1.446   .     S
Cu713  N716    1.980   .     S
Cu713  Cu714   2.636   .     S
Cu714  N715    1.980   .     S
N716   N19     1.197   1_556 S
C717   O735    1.386   .     S
C717   C721    1.403   .     A
C717   C725    1.403   .     A
C718   O740    1.386   .     S
C718   C722    1.403   .     A
C718   C726    1.403   .     A
C719   C723    1.403   .     A
C719   O745    1.386   .     S
C719   C721    1.403   .     A
C720   O750    1.386   .     S
C720   C724    1.403   .     A
C720   C722    1.403   .     A
C723   C729    1.403   .     A
C723   C727    1.415   .     A
C724   C730    1.403   .     A
C724   C728    1.415   .     A
C725   C731    1.403   .     A
C725   C727    1.415   .     A
C726   C732    1.403   .     A
C726   C728    1.415   .     A
C727   C786    1.409   .     S
C728   C785    1.409   1_455 S
C729   C790    1.390   .     S
C730   C789    1.390   1_455 S
C731   C788    1.390   .     S
C732   C787    1.390   1_455 S
C733   C966    1.188   1_545 S
C734   C849    1.188   .     S
O735   C736    1.412   .     S
C736   H738    1.112   .     S
C736   H737    1.113   .     S
C736   H739    1.109   .     S
O740   C741    1.412   .     S
C741   H742    1.109   .     S
C741   H743    1.112   .     S
C741   H744    1.113   .     S
O745   C746    1.412   .     S
C746   H748    1.112   .     S
C746   H749    1.109   .     S
C746   H747    1.113   .     S
O750   C751    1.412   .     S
C751   H752    1.112   .     S
C751   H754    1.109   .     S
C751   H753    1.113   .     S
O755   Cu771   1.933   .     S
O755   C763    1.274   .     A
O756   Cu772   1.933   .     S
O756   C764    1.274   .     A
O757   C764    1.274   .     A
O757   Cu771   1.932   .     S
O758   Cu772   1.932   .     S
O758   C763    1.274   .     A
H759   C787    1.083   .     S
H760   C788    1.083   .     S
H761   C789    1.083   .     S
H762   C790    1.083   .     S
C763   C791    1.404   .     S
C764   C792    1.404   .     S
O765   C769    1.276   .     A
O765   Cu771   1.960   .     S
O766   C770    1.276   .     A
O766   Cu772   1.960   .     S
O767   Cu771   1.960   .     S
O767   C770    1.276   .     A
O768   C769    1.276   .     A
O768   Cu772   1.960   .     S
C769   C780    1.446   .     S
C770   C779    1.446   .     S
Cu771  N774    1.980   .     S
Cu771  Cu772   2.636   .     S
Cu772  N773    1.980   .     S
N774   N77     1.197   1_556 S
C775   O793    1.386   .     S
C775   C779    1.403   .     A
C775   C783    1.403   .     A
C776   O798    1.386   .     S
C776   C780    1.403   .     A
C776   C784    1.403   .     A
C777   C781    1.403   .     A
C777   O803    1.386   .     S
C777   C779    1.403   .     A
C778   O808    1.386   .     S
C778   C782    1.403   .     A
C778   C780    1.403   .     A
C781   C787    1.403   .     A
C781   C785    1.415   .     A
C782   C788    1.403   .     A
C782   C786    1.415   .     A
C783   C789    1.403   .     A
C783   C785    1.415   .     A
C784   C790    1.403   .     A
C784   C786    1.415   .     A
C785   C728    1.409   1_655 S
C787   C732    1.390   1_655 S
C789   C730    1.390   1_655 S
C791   C1024   1.188   1_545 S
C792   C907    1.188   .     S
O793   C794    1.412   .     S
C794   H796    1.112   .     S
C794   H795    1.113   .     S
C794   H797    1.109   .     S
O798   C799    1.412   .     S
C799   H800    1.109   .     S
C799   H801    1.112   .     S
C799   H802    1.113   .     S
O803   C804    1.412   .     S
C804   H806    1.112   .     S
C804   H807    1.109   .     S
C804   H805    1.113   .     S
O808   C809    1.412   .     S
C809   H810    1.112   .     S
C809   H812    1.109   .     S
C809   H811    1.113   .     S
O813   Cu829   1.933   .     S
O813   C821    1.274   .     A
O814   Cu830   1.933   .     S
O814   C822    1.274   .     A
O815   C822    1.274   .     A
O815   Cu829   1.932   .     S
O816   Cu830   1.932   .     S
O816   C821    1.274   .     A
H817   C845    1.083   .     S
H818   C846    1.083   .     S
H819   C847    1.083   .     S
H820   C848    1.083   .     S
C821   C849    1.404   .     S
C822   C850    1.404   .     S
O823   C827    1.276   .     A
O823   Cu829   1.960   .     S
O824   C828    1.276   .     A
O824   Cu830   1.960   .     S
O825   Cu829   1.960   .     S
O825   C828    1.276   .     A
O826   C827    1.276   .     A
O826   Cu830   1.960   .     S
C827   C838    1.446   .     S
C828   C837    1.446   .     S
Cu829  N832    1.980   .     S
Cu829  Cu830   2.636   .     S
Cu830  N831    1.980   .     S
N832   N135    1.197   1_556 S
C833   O851    1.386   .     S
C833   C837    1.403   .     A
C833   C841    1.403   .     A
C834   O856    1.386   .     S
C834   C838    1.403   .     A
C834   C842    1.403   .     A
C835   C839    1.403   .     A
C835   O861    1.386   .     S
C835   C837    1.403   .     A
C836   O866    1.386   .     S
C836   C840    1.403   .     A
C836   C838    1.403   .     A
C839   C845    1.403   .     A
C839   C843    1.415   .     A
C840   C846    1.403   .     A
C840   C844    1.415   .     A
C841   C847    1.403   .     A
C841   C843    1.415   .     A
C842   C848    1.403   .     A
C842   C844    1.415   .     A
C843   C902    1.409   .     S
C844   C901    1.409   1_455 S
C845   C906    1.390   .     S
C846   C905    1.390   1_455 S
C847   C904    1.390   .     S
C848   C903    1.390   1_455 S
C850   C965    1.188   .     S
O851   C852    1.412   .     S
C852   H854    1.112   .     S
C852   H853    1.113   .     S
C852   H855    1.109   .     S
O856   C857    1.412   .     S
C857   H858    1.109   .     S
C857   H859    1.112   .     S
C857   H860    1.113   .     S
O861   C862    1.412   .     S
C862   H864    1.112   .     S
C862   H865    1.109   .     S
C862   H863    1.113   .     S
O866   C867    1.412   .     S
C867   H868    1.112   .     S
C867   H870    1.109   .     S
C867   H869    1.113   .     S
O871   Cu887   1.933   .     S
O871   C879    1.274   .     A
O872   Cu888   1.933   .     S
O872   C880    1.274   .     A
O873   C880    1.274   .     A
O873   Cu887   1.932   .     S
O874   Cu888   1.932   .     S
O874   C879    1.274   .     A
H875   C903    1.083   .     S
H876   C904    1.083   .     S
H877   C905    1.083   .     S
H878   C906    1.083   .     S
C879   C907    1.404   .     S
C880   C908    1.404   .     S
O881   C885    1.276   .     A
O881   Cu887   1.960   .     S
O882   C886    1.276   .     A
O882   Cu888   1.960   .     S
O883   Cu887   1.960   .     S
O883   C886    1.276   .     A
O884   C885    1.276   .     A
O884   Cu888   1.960   .     S
C885   C896    1.446   .     S
C886   C895    1.446   .     S
Cu887  N890    1.980   .     S
Cu887  Cu888   2.636   .     S
Cu888  N889    1.980   .     S
N890   N193    1.197   1_556 S
C891   O909    1.386   .     S
C891   C895    1.403   .     A
C891   C899    1.403   .     A
C892   O914    1.386   .     S
C892   C896    1.403   .     A
C892   C900    1.403   .     A
C893   C897    1.403   .     A
C893   O919    1.386   .     S
C893   C895    1.403   .     A
C894   O924    1.386   .     S
C894   C898    1.403   .     A
C894   C896    1.403   .     A
C897   C903    1.403   .     A
C897   C901    1.415   .     A
C898   C904    1.403   .     A
C898   C902    1.415   .     A
C899   C905    1.403   .     A
C899   C901    1.415   .     A
C900   C906    1.403   .     A
C900   C902    1.415   .     A
C901   C844    1.409   1_655 S
C903   C848    1.390   1_655 S
C905   C846    1.390   1_655 S
C908   C1023   1.188   .     S
O909   C910    1.412   .     S
C910   H912    1.112   .     S
C910   H911    1.113   .     S
C910   H913    1.109   .     S
O914   C915    1.412   .     S
C915   H916    1.109   .     S
C915   H917    1.112   .     S
C915   H918    1.113   .     S
O919   C920    1.412   .     S
C920   H922    1.112   .     S
C920   H923    1.109   .     S
C920   H921    1.113   .     S
O924   C925    1.412   .     S
C925   H926    1.112   .     S
C925   H928    1.109   .     S
C925   H927    1.113   .     S
O929   Cu945   1.933   .     S
O929   C937    1.274   .     A
O930   Cu946   1.933   .     S
O930   C938    1.274   .     A
O931   C938    1.274   .     A
O931   Cu945   1.932   .     S
O932   Cu946   1.932   .     S
O932   C937    1.274   .     A
H933   C961    1.083   .     S
H934   C962    1.083   .     S
H935   C963    1.083   .     S
H936   C964    1.083   .     S
C937   C965    1.404   .     S
C938   C966    1.404   .     S
O939   C943    1.276   .     A
O939   Cu945   1.960   .     S
O940   C944    1.276   .     A
O940   Cu946   1.960   .     S
O941   Cu945   1.960   .     S
O941   C944    1.276   .     A
O942   C943    1.276   .     A
O942   Cu946   1.960   .     S
C943   C954    1.446   .     S
C944   C953    1.446   .     S
Cu945  N948    1.980   .     S
Cu945  Cu946   2.636   .     S
Cu946  N947    1.980   .     S
N948   N251    1.197   1_556 S
C949   O967    1.386   .     S
C949   C953    1.403   .     A
C949   C957    1.403   .     A
C950   O972    1.386   .     S
C950   C954    1.403   .     A
C950   C958    1.403   .     A
C951   C955    1.403   .     A
C951   O977    1.386   .     S
C951   C953    1.403   .     A
C952   O982    1.386   .     S
C952   C956    1.403   .     A
C952   C954    1.403   .     A
C955   C961    1.403   .     A
C955   C959    1.415   .     A
C956   C962    1.403   .     A
C956   C960    1.415   .     A
C957   C963    1.403   .     A
C957   C959    1.415   .     A
C958   C964    1.403   .     A
C958   C960    1.415   .     A
C959   C1018   1.409   .     S
C960   C1017   1.409   1_455 S
C961   C1022   1.390   .     S
C962   C1021   1.390   1_455 S
C963   C1020   1.390   .     S
C964   C1019   1.390   1_455 S
C966   C733    1.188   1_565 S
O967   C968    1.412   .     S
C968   H970    1.112   .     S
C968   H969    1.113   .     S
C968   H971    1.109   .     S
O972   C973    1.412   .     S
C973   H974    1.109   .     S
C973   H975    1.112   .     S
C973   H976    1.113   .     S
O977   C978    1.412   .     S
C978   H980    1.112   .     S
C978   H981    1.109   .     S
C978   H979    1.113   .     S
O982   C983    1.412   .     S
C983   H984    1.112   .     S
C983   H986    1.109   .     S
C983   H985    1.113   .     S
O987   Cu1003  1.933   .     S
O987   C995    1.274   .     A
O988   Cu1004  1.933   .     S
O988   C996    1.274   .     A
O989   C996    1.274   .     A
O989   Cu1003  1.932   .     S
O990   Cu1004  1.932   .     S
O990   C995    1.274   .     A
H991   C1019   1.083   .     S
H992   C1020   1.083   .     S
H993   C1021   1.083   .     S
H994   C1022   1.083   .     S
C995   C1023   1.404   .     S
C996   C1024   1.404   .     S
O997   C1001   1.276   .     A
O997   Cu1003  1.960   .     S
O998   C1002   1.276   .     A
O998   Cu1004  1.960   .     S
O999   Cu1003  1.960   .     S
O999   C1002   1.276   .     A
O1000  C1001   1.276   .     A
O1000  Cu1004  1.960   .     S
C1001  C1012   1.446   .     S
C1002  C1011   1.446   .     S
Cu1003 N1006   1.980   .     S
Cu1003 Cu1004  2.636   .     S
Cu1004 N1005   1.980   .     S
N1006  N309    1.197   1_556 S
C1007  O1025   1.386   .     S
C1007  C1011   1.403   .     A
C1007  C1015   1.403   .     A
C1008  O1030   1.386   .     S
C1008  C1012   1.403   .     A
C1008  C1016   1.403   .     A
C1009  C1013   1.403   .     A
C1009  O1035   1.386   .     S
C1009  C1011   1.403   .     A
C1010  O1040   1.386   .     S
C1010  C1014   1.403   .     A
C1010  C1012   1.403   .     A
C1013  C1019   1.403   .     A
C1013  C1017   1.415   .     A
C1014  C1020   1.403   .     A
C1014  C1018   1.415   .     A
C1015  C1021   1.403   .     A
C1015  C1017   1.415   .     A
C1016  C1022   1.403   .     A
C1016  C1018   1.415   .     A
C1017  C960    1.409   1_655 S
C1019  C964    1.390   1_655 S
C1021  C962    1.390   1_655 S
C1024  C791    1.188   1_565 S
O1025  C1026   1.412   .     S
C1026  H1028   1.112   .     S
C1026  H1027   1.113   .     S
C1026  H1029   1.109   .     S
O1030  C1031   1.412   .     S
C1031  H1032   1.109   .     S
C1031  H1033   1.112   .     S
C1031  H1034   1.113   .     S
O1035  C1036   1.412   .     S
C1036  H1038   1.112   .     S
C1036  H1039   1.109   .     S
C1036  H1037   1.113   .     S
O1040  C1041   1.412   .     S
C1041  H1042   1.112   .     S
C1041  H1044   1.109   .     S
C1041  H1043   1.113   .     S
