data_str_m2_o10_o16_pcu_sym.61
_audit_creation_date              2020-01-03
_audit_creation_method            'Materials Studio'
_symmetry_space_group_name_H-M    'P1'
_symmetry_Int_Tables_number       1
_symmetry_cell_setting            triclinic
loop_
_symmetry_equiv_pos_as_xyz
  x,y,z
_cell_length_a                    22.4176
_cell_length_b                    26.0764
_cell_length_c                    26.7282
_cell_angle_alpha                 94.5956
_cell_angle_beta                  77.3880
_cell_angle_gamma                 103.4549
loop_
_atom_site_label
_atom_site_type_symbol
_atom_site_fract_x
_atom_site_fract_y
_atom_site_fract_z
_atom_site_U_iso_or_equiv
_atom_site_adp_type
_atom_site_occupancy
O1     O     0.12797   0.23807   0.24633   0.00000  Uiso   1.00
O2     O     0.22858   0.24755   0.25586   0.00000  Uiso   1.00
C3     C     0.18182   0.26673   0.25159   0.00000  Uiso   1.00
O4     O     0.09181   0.15960   0.31839   0.00000  Uiso   1.00
O5     O     0.19242   0.16908   0.32793   0.00000  Uiso   1.00
C6     C     0.13275   0.16328   0.34726   0.00000  Uiso   1.00
Cu7    Cu    0.10710   0.16105   0.24435   0.00000  Uiso   1.00
Cu8    Cu    0.22623   0.17228   0.25564   0.00000  Uiso   1.00
O9     O     0.10476   0.08578   0.24413   0.00000  Uiso   1.00
O10    O     0.20536   0.09526   0.25367   0.00000  Uiso   1.00
O11    O     0.14092   0.16425   0.17207   0.00000  Uiso   1.00
O12    O     0.24152   0.17373   0.18160   0.00000  Uiso   1.00
C13    C     0.15163   0.06662   0.24815   0.00000  Uiso   1.00
C14    C     0.20048   0.17073   0.15298   0.00000  Uiso   1.00
C15    C     0.28737   0.23321   0.02836   0.00000  Uiso   1.00
H16    H     0.31179   0.22938   0.10108   0.00000  Uiso   1.00
H17    H     0.29138   0.26897   0.43675   0.00000  Uiso   1.00
H18    H     0.33098   0.26063   0.01356   0.00000  Uiso   1.00
C19    C     0.22036   0.18041   0.09799   0.00000  Uiso   1.00
C20    C     0.05335   0.12263   0.42355   0.00000  Uiso   1.00
C21    C     0.03526   0.11563   0.47631   0.00000  Uiso   1.00
C22    C     0.07653   0.13635   0.00839   0.00000  Uiso   1.00
C23    C     0.13694   0.16674   0.48878   0.00000  Uiso   1.00
C24    C     0.15106   0.18251   0.43724   0.00000  Uiso   1.00
C25    C     0.18370   0.18222   0.01880   0.00000  Uiso   1.00
C26    C     0.24061   0.21817   0.49920   0.00000  Uiso   1.00
C27    C     0.24948   0.23954   0.45128   0.00000  Uiso   1.00
C28    C     0.20505   0.22252   0.42098   0.00000  Uiso   1.00
C29    C     0.17601   0.16222   0.06749   0.00000  Uiso   1.00
C30    C     0.27707   0.21475   0.07781   0.00000  Uiso   1.00
C31    C     0.11112   0.15755   0.40338   0.00000  Uiso   1.00
H32    H     0.13497   0.13304   0.08342   0.00000  Uiso   1.00
H33    H     0.05959   0.12793   0.04848   0.00000  Uiso   1.00
H34    H     0.32369   0.09063   0.49240   0.00000  Uiso   1.00
H35    H     0.21372   0.24128   0.38468   0.00000  Uiso   1.00
C36    C     0.19015   0.32282   0.25262   0.00000  Uiso   1.00
H37    H     0.23489   0.01352   0.25843   0.00000  Uiso   1.00
C38    C     0.14355   0.01057   0.24669   0.00000  Uiso   1.00
H39    H     0.09897   0.31992   0.24056   0.00000  Uiso   1.00
N40    N     0.31574   0.18074   0.26416   0.00000  Uiso   1.00
N41    N     0.01759   0.15259   0.23584   0.00000  Uiso   1.00
H42    H     0.33291   0.13247   0.20578   0.00000  Uiso   1.00
N43    N     0.00086   0.20411   0.30833   0.00000  Uiso   1.00
O44    O     0.01904   0.25520   0.31101   0.00000  Uiso   1.00
O45    O     0.31190   0.17925   0.35099   0.00000  Uiso   1.00
N46    N     0.01463   0.09085   0.39121   0.00000  Uiso   1.00
O47    O     0.03901   0.06132   0.35455   0.00000  Uiso   1.00
O48    O     0.28721   0.08182   0.40560   0.00000  Uiso   1.00
O49    O     0.46131   0.23807   0.24633   0.00000  Uiso   1.00
O50    O     0.56191   0.24755   0.25586   0.00000  Uiso   1.00
C51    C     0.51516   0.26673   0.25159   0.00000  Uiso   1.00
O52    O     0.42515   0.15960   0.31839   0.00000  Uiso   1.00
O53    O     0.52575   0.16908   0.32793   0.00000  Uiso   1.00
C54    C     0.46609   0.16328   0.34726   0.00000  Uiso   1.00
Cu55   Cu    0.44043   0.16105   0.24435   0.00000  Uiso   1.00
Cu56   Cu    0.55957   0.17228   0.25564   0.00000  Uiso   1.00
O57    O     0.43809   0.08578   0.24413   0.00000  Uiso   1.00
O58    O     0.53869   0.09526   0.25367   0.00000  Uiso   1.00
O59    O     0.47425   0.16425   0.17207   0.00000  Uiso   1.00
O60    O     0.57485   0.17373   0.18160   0.00000  Uiso   1.00
C61    C     0.48497   0.06662   0.24815   0.00000  Uiso   1.00
C62    C     0.53382   0.17073   0.15298   0.00000  Uiso   1.00
C63    C     0.62070   0.23321   0.02836   0.00000  Uiso   1.00
H64    H     0.64512   0.22938   0.10108   0.00000  Uiso   1.00
H65    H     0.62472   0.26897   0.43675   0.00000  Uiso   1.00
H66    H     0.66432   0.26063   0.01356   0.00000  Uiso   1.00
C67    C     0.55369   0.18041   0.09799   0.00000  Uiso   1.00
C68    C     0.38668   0.12263   0.42355   0.00000  Uiso   1.00
C69    C     0.36860   0.11563   0.47631   0.00000  Uiso   1.00
C70    C     0.40986   0.13635   0.00839   0.00000  Uiso   1.00
C71    C     0.47027   0.16674   0.48878   0.00000  Uiso   1.00
C72    C     0.48439   0.18251   0.43724   0.00000  Uiso   1.00
C73    C     0.51704   0.18222   0.01880   0.00000  Uiso   1.00
C74    C     0.57394   0.21817   0.49920   0.00000  Uiso   1.00
C75    C     0.58281   0.23954   0.45128   0.00000  Uiso   1.00
C76    C     0.53838   0.22252   0.42098   0.00000  Uiso   1.00
C77    C     0.50934   0.16222   0.06749   0.00000  Uiso   1.00
C78    C     0.61040   0.21475   0.07781   0.00000  Uiso   1.00
C79    C     0.44446   0.15755   0.40338   0.00000  Uiso   1.00
H80    H     0.46830   0.13304   0.08342   0.00000  Uiso   1.00
H81    H     0.39293   0.12793   0.04848   0.00000  Uiso   1.00
H82    H     0.65703   0.09063   0.49240   0.00000  Uiso   1.00
H83    H     0.54705   0.24128   0.38468   0.00000  Uiso   1.00
C84    C     0.52348   0.32282   0.25262   0.00000  Uiso   1.00
H85    H     0.56822   0.01352   0.25843   0.00000  Uiso   1.00
C86    C     0.47688   0.01057   0.24669   0.00000  Uiso   1.00
H87    H     0.43230   0.31992   0.24056   0.00000  Uiso   1.00
N88    N     0.64908   0.18074   0.26416   0.00000  Uiso   1.00
N89    N     0.35092   0.15259   0.23584   0.00000  Uiso   1.00
H90    H     0.66624   0.13247   0.20578   0.00000  Uiso   1.00
N91    N     0.33420   0.20411   0.30833   0.00000  Uiso   1.00
O92    O     0.35237   0.25520   0.31101   0.00000  Uiso   1.00
O93    O     0.64523   0.17925   0.35099   0.00000  Uiso   1.00
N94    N     0.34796   0.09085   0.39121   0.00000  Uiso   1.00
O95    O     0.37234   0.06132   0.35455   0.00000  Uiso   1.00
O96    O     0.62054   0.08182   0.40560   0.00000  Uiso   1.00
O97    O     0.79464   0.23807   0.24633   0.00000  Uiso   1.00
O98    O     0.89524   0.24755   0.25586   0.00000  Uiso   1.00
C99    C     0.84849   0.26673   0.25159   0.00000  Uiso   1.00
O100   O     0.75848   0.15960   0.31839   0.00000  Uiso   1.00
O101   O     0.85908   0.16908   0.32793   0.00000  Uiso   1.00
C102   C     0.79942   0.16328   0.34726   0.00000  Uiso   1.00
Cu103  Cu    0.77377   0.16105   0.24435   0.00000  Uiso   1.00
Cu104  Cu    0.89290   0.17228   0.25564   0.00000  Uiso   1.00
O105   O     0.77142   0.08578   0.24413   0.00000  Uiso   1.00
O106   O     0.87203   0.09526   0.25367   0.00000  Uiso   1.00
O107   O     0.80758   0.16425   0.17207   0.00000  Uiso   1.00
O108   O     0.90819   0.17373   0.18160   0.00000  Uiso   1.00
C109   C     0.81830   0.06662   0.24815   0.00000  Uiso   1.00
C110   C     0.86715   0.17073   0.15298   0.00000  Uiso   1.00
C111   C     0.95404   0.23321   0.02836   0.00000  Uiso   1.00
H112   H     0.97845   0.22938   0.10108   0.00000  Uiso   1.00
H113   H     0.95805   0.26897   0.43675   0.00000  Uiso   1.00
H114   H     0.99765   0.26063   0.01356   0.00000  Uiso   1.00
C115   C     0.88703   0.18041   0.09799   0.00000  Uiso   1.00
C116   C     0.72001   0.12263   0.42355   0.00000  Uiso   1.00
C117   C     0.70193   0.11563   0.47631   0.00000  Uiso   1.00
C118   C     0.74319   0.13635   0.00839   0.00000  Uiso   1.00
C119   C     0.80360   0.16674   0.48878   0.00000  Uiso   1.00
C120   C     0.81772   0.18251   0.43724   0.00000  Uiso   1.00
C121   C     0.85037   0.18222   0.01880   0.00000  Uiso   1.00
C122   C     0.90728   0.21817   0.49920   0.00000  Uiso   1.00
C123   C     0.91614   0.23954   0.45128   0.00000  Uiso   1.00
C124   C     0.87172   0.22252   0.42098   0.00000  Uiso   1.00
C125   C     0.84267   0.16222   0.06749   0.00000  Uiso   1.00
C126   C     0.94373   0.21475   0.07781   0.00000  Uiso   1.00
C127   C     0.77779   0.15755   0.40338   0.00000  Uiso   1.00
H128   H     0.80164   0.13304   0.08342   0.00000  Uiso   1.00
H129   H     0.72626   0.12793   0.04848   0.00000  Uiso   1.00
H130   H     0.99036   0.09063   0.49240   0.00000  Uiso   1.00
H131   H     0.88039   0.24128   0.38468   0.00000  Uiso   1.00
C132   C     0.85682   0.32282   0.25262   0.00000  Uiso   1.00
H133   H     0.90156   0.01352   0.25843   0.00000  Uiso   1.00
C134   C     0.81022   0.01057   0.24669   0.00000  Uiso   1.00
H135   H     0.76564   0.31992   0.24056   0.00000  Uiso   1.00
N136   N     0.98241   0.18074   0.26416   0.00000  Uiso   1.00
N137   N     0.68426   0.15259   0.23584   0.00000  Uiso   1.00
H138   H     0.99957   0.13247   0.20578   0.00000  Uiso   1.00
N139   N     0.66753   0.20411   0.30833   0.00000  Uiso   1.00
O140   O     0.68571   0.25520   0.31101   0.00000  Uiso   1.00
O141   O     0.97856   0.17925   0.35099   0.00000  Uiso   1.00
N142   N     0.68130   0.09085   0.39121   0.00000  Uiso   1.00
O143   O     0.70567   0.06132   0.35455   0.00000  Uiso   1.00
O144   O     0.95387   0.08182   0.40560   0.00000  Uiso   1.00
O145   O     0.12797   0.57141   0.24633   0.00000  Uiso   1.00
O146   O     0.22858   0.58089   0.25586   0.00000  Uiso   1.00
C147   C     0.18182   0.60007   0.25159   0.00000  Uiso   1.00
O148   O     0.09181   0.49293   0.31839   0.00000  Uiso   1.00
O149   O     0.19242   0.50241   0.32793   0.00000  Uiso   1.00
C150   C     0.13275   0.49661   0.34726   0.00000  Uiso   1.00
Cu151  Cu    0.10710   0.49439   0.24435   0.00000  Uiso   1.00
Cu152  Cu    0.22623   0.50561   0.25564   0.00000  Uiso   1.00
O153   O     0.10476   0.41911   0.24413   0.00000  Uiso   1.00
O154   O     0.20536   0.42859   0.25367   0.00000  Uiso   1.00
O155   O     0.14092   0.49759   0.17207   0.00000  Uiso   1.00
O156   O     0.24152   0.50707   0.18160   0.00000  Uiso   1.00
C157   C     0.15163   0.39995   0.24815   0.00000  Uiso   1.00
C158   C     0.20048   0.50406   0.15298   0.00000  Uiso   1.00
C159   C     0.28737   0.56654   0.02836   0.00000  Uiso   1.00
H160   H     0.31179   0.56271   0.10108   0.00000  Uiso   1.00
H161   H     0.29138   0.60230   0.43675   0.00000  Uiso   1.00
H162   H     0.33098   0.59396   0.01356   0.00000  Uiso   1.00
C163   C     0.22036   0.51374   0.09799   0.00000  Uiso   1.00
C164   C     0.05335   0.45596   0.42355   0.00000  Uiso   1.00
C165   C     0.03526   0.44896   0.47631   0.00000  Uiso   1.00
C166   C     0.07653   0.46968   0.00839   0.00000  Uiso   1.00
C167   C     0.13694   0.50007   0.48878   0.00000  Uiso   1.00
C168   C     0.15106   0.51584   0.43724   0.00000  Uiso   1.00
C169   C     0.18370   0.51555   0.01880   0.00000  Uiso   1.00
C170   C     0.24061   0.55150   0.49920   0.00000  Uiso   1.00
C171   C     0.24948   0.57287   0.45128   0.00000  Uiso   1.00
C172   C     0.20505   0.55585   0.42098   0.00000  Uiso   1.00
C173   C     0.17601   0.49555   0.06749   0.00000  Uiso   1.00
C174   C     0.27707   0.54808   0.07781   0.00000  Uiso   1.00
C175   C     0.11112   0.49088   0.40338   0.00000  Uiso   1.00
H176   H     0.13497   0.46638   0.08342   0.00000  Uiso   1.00
H177   H     0.05959   0.46126   0.04848   0.00000  Uiso   1.00
H178   H     0.32369   0.42396   0.49240   0.00000  Uiso   1.00
H179   H     0.21372   0.57462   0.38468   0.00000  Uiso   1.00
C180   C     0.19015   0.65615   0.25262   0.00000  Uiso   1.00
H181   H     0.23489   0.34685   0.25843   0.00000  Uiso   1.00
C182   C     0.14355   0.34390   0.24669   0.00000  Uiso   1.00
H183   H     0.09897   0.65325   0.24056   0.00000  Uiso   1.00
N184   N     0.31574   0.51407   0.26416   0.00000  Uiso   1.00
N185   N     0.01759   0.48593   0.23584   0.00000  Uiso   1.00
H186   H     0.33291   0.46581   0.20578   0.00000  Uiso   1.00
N187   N     0.00086   0.53745   0.30833   0.00000  Uiso   1.00
O188   O     0.01904   0.58853   0.31101   0.00000  Uiso   1.00
O189   O     0.31190   0.51258   0.35099   0.00000  Uiso   1.00
N190   N     0.01463   0.42418   0.39121   0.00000  Uiso   1.00
O191   O     0.03901   0.39465   0.35455   0.00000  Uiso   1.00
O192   O     0.28721   0.41516   0.40560   0.00000  Uiso   1.00
O193   O     0.46131   0.57141   0.24633   0.00000  Uiso   1.00
O194   O     0.56191   0.58089   0.25586   0.00000  Uiso   1.00
C195   C     0.51516   0.60007   0.25159   0.00000  Uiso   1.00
O196   O     0.42515   0.49293   0.31839   0.00000  Uiso   1.00
O197   O     0.52575   0.50241   0.32793   0.00000  Uiso   1.00
C198   C     0.46609   0.49661   0.34726   0.00000  Uiso   1.00
Cu199  Cu    0.44043   0.49439   0.24435   0.00000  Uiso   1.00
Cu200  Cu    0.55957   0.50561   0.25564   0.00000  Uiso   1.00
O201   O     0.43809   0.41911   0.24413   0.00000  Uiso   1.00
O202   O     0.53869   0.42859   0.25367   0.00000  Uiso   1.00
O203   O     0.47425   0.49759   0.17207   0.00000  Uiso   1.00
O204   O     0.57485   0.50707   0.18160   0.00000  Uiso   1.00
C205   C     0.48497   0.39995   0.24815   0.00000  Uiso   1.00
C206   C     0.53382   0.50406   0.15298   0.00000  Uiso   1.00
C207   C     0.62070   0.56654   0.02836   0.00000  Uiso   1.00
H208   H     0.64512   0.56271   0.10108   0.00000  Uiso   1.00
H209   H     0.62472   0.60230   0.43675   0.00000  Uiso   1.00
H210   H     0.66432   0.59396   0.01356   0.00000  Uiso   1.00
C211   C     0.55369   0.51374   0.09799   0.00000  Uiso   1.00
C212   C     0.38668   0.45596   0.42355   0.00000  Uiso   1.00
C213   C     0.36860   0.44896   0.47631   0.00000  Uiso   1.00
C214   C     0.40986   0.46968   0.00839   0.00000  Uiso   1.00
C215   C     0.47027   0.50007   0.48878   0.00000  Uiso   1.00
C216   C     0.48439   0.51584   0.43724   0.00000  Uiso   1.00
C217   C     0.51704   0.51555   0.01880   0.00000  Uiso   1.00
C218   C     0.57394   0.55150   0.49920   0.00000  Uiso   1.00
C219   C     0.58281   0.57287   0.45128   0.00000  Uiso   1.00
C220   C     0.53838   0.55585   0.42098   0.00000  Uiso   1.00
C221   C     0.50934   0.49555   0.06749   0.00000  Uiso   1.00
C222   C     0.61040   0.54808   0.07781   0.00000  Uiso   1.00
C223   C     0.44446   0.49088   0.40338   0.00000  Uiso   1.00
H224   H     0.46830   0.46638   0.08342   0.00000  Uiso   1.00
H225   H     0.39293   0.46126   0.04848   0.00000  Uiso   1.00
H226   H     0.65703   0.42396   0.49240   0.00000  Uiso   1.00
H227   H     0.54705   0.57462   0.38468   0.00000  Uiso   1.00
C228   C     0.52348   0.65615   0.25262   0.00000  Uiso   1.00
H229   H     0.56822   0.34685   0.25843   0.00000  Uiso   1.00
C230   C     0.47688   0.34390   0.24669   0.00000  Uiso   1.00
H231   H     0.43230   0.65325   0.24056   0.00000  Uiso   1.00
N232   N     0.64908   0.51407   0.26416   0.00000  Uiso   1.00
N233   N     0.35092   0.48593   0.23584   0.00000  Uiso   1.00
H234   H     0.66624   0.46581   0.20578   0.00000  Uiso   1.00
N235   N     0.33420   0.53745   0.30833   0.00000  Uiso   1.00
O236   O     0.35237   0.58853   0.31101   0.00000  Uiso   1.00
O237   O     0.64523   0.51258   0.35099   0.00000  Uiso   1.00
N238   N     0.34796   0.42418   0.39121   0.00000  Uiso   1.00
O239   O     0.37234   0.39465   0.35455   0.00000  Uiso   1.00
O240   O     0.62054   0.41516   0.40560   0.00000  Uiso   1.00
O241   O     0.79464   0.57141   0.24633   0.00000  Uiso   1.00
O242   O     0.89524   0.58089   0.25586   0.00000  Uiso   1.00
C243   C     0.84849   0.60007   0.25159   0.00000  Uiso   1.00
O244   O     0.75848   0.49293   0.31839   0.00000  Uiso   1.00
O245   O     0.85908   0.50241   0.32793   0.00000  Uiso   1.00
C246   C     0.79942   0.49661   0.34726   0.00000  Uiso   1.00
Cu247  Cu    0.77377   0.49439   0.24435   0.00000  Uiso   1.00
Cu248  Cu    0.89290   0.50561   0.25564   0.00000  Uiso   1.00
O249   O     0.77142   0.41911   0.24413   0.00000  Uiso   1.00
O250   O     0.87203   0.42859   0.25367   0.00000  Uiso   1.00
O251   O     0.80758   0.49759   0.17207   0.00000  Uiso   1.00
O252   O     0.90819   0.50707   0.18160   0.00000  Uiso   1.00
C253   C     0.81830   0.39995   0.24815   0.00000  Uiso   1.00
C254   C     0.86715   0.50406   0.15298   0.00000  Uiso   1.00
C255   C     0.95404   0.56654   0.02836   0.00000  Uiso   1.00
H256   H     0.97845   0.56271   0.10108   0.00000  Uiso   1.00
H257   H     0.95805   0.60230   0.43675   0.00000  Uiso   1.00
H258   H     0.99765   0.59396   0.01356   0.00000  Uiso   1.00
C259   C     0.88703   0.51374   0.09799   0.00000  Uiso   1.00
C260   C     0.72001   0.45596   0.42355   0.00000  Uiso   1.00
C261   C     0.70193   0.44896   0.47631   0.00000  Uiso   1.00
C262   C     0.74319   0.46968   0.00839   0.00000  Uiso   1.00
C263   C     0.80360   0.50007   0.48878   0.00000  Uiso   1.00
C264   C     0.81772   0.51584   0.43724   0.00000  Uiso   1.00
C265   C     0.85037   0.51555   0.01880   0.00000  Uiso   1.00
C266   C     0.90728   0.55150   0.49920   0.00000  Uiso   1.00
C267   C     0.91614   0.57287   0.45128   0.00000  Uiso   1.00
C268   C     0.87172   0.55585   0.42098   0.00000  Uiso   1.00
C269   C     0.84267   0.49555   0.06749   0.00000  Uiso   1.00
C270   C     0.94373   0.54808   0.07781   0.00000  Uiso   1.00
C271   C     0.77779   0.49088   0.40338   0.00000  Uiso   1.00
H272   H     0.80164   0.46638   0.08342   0.00000  Uiso   1.00
H273   H     0.72626   0.46126   0.04848   0.00000  Uiso   1.00
H274   H     0.99036   0.42396   0.49240   0.00000  Uiso   1.00
H275   H     0.88039   0.57462   0.38468   0.00000  Uiso   1.00
C276   C     0.85682   0.65615   0.25262   0.00000  Uiso   1.00
H277   H     0.90156   0.34685   0.25843   0.00000  Uiso   1.00
C278   C     0.81022   0.34390   0.24669   0.00000  Uiso   1.00
H279   H     0.76564   0.65325   0.24056   0.00000  Uiso   1.00
N280   N     0.98241   0.51407   0.26416   0.00000  Uiso   1.00
N281   N     0.68426   0.48593   0.23584   0.00000  Uiso   1.00
H282   H     0.99957   0.46581   0.20578   0.00000  Uiso   1.00
N283   N     0.66753   0.53745   0.30833   0.00000  Uiso   1.00
O284   O     0.68571   0.58853   0.31101   0.00000  Uiso   1.00
O285   O     0.97856   0.51258   0.35099   0.00000  Uiso   1.00
N286   N     0.68130   0.42418   0.39121   0.00000  Uiso   1.00
O287   O     0.70567   0.39465   0.35455   0.00000  Uiso   1.00
O288   O     0.95387   0.41516   0.40560   0.00000  Uiso   1.00
O289   O     0.12797   0.90474   0.24633   0.00000  Uiso   1.00
O290   O     0.22858   0.91422   0.25586   0.00000  Uiso   1.00
C291   C     0.18182   0.93340   0.25159   0.00000  Uiso   1.00
O292   O     0.09181   0.82627   0.31839   0.00000  Uiso   1.00
O293   O     0.19242   0.83575   0.32793   0.00000  Uiso   1.00
C294   C     0.13275   0.82994   0.34726   0.00000  Uiso   1.00
Cu295  Cu    0.10710   0.82772   0.24435   0.00000  Uiso   1.00
Cu296  Cu    0.22623   0.83895   0.25564   0.00000  Uiso   1.00
O297   O     0.10476   0.75245   0.24413   0.00000  Uiso   1.00
O298   O     0.20536   0.76193   0.25367   0.00000  Uiso   1.00
O299   O     0.14092   0.83092   0.17207   0.00000  Uiso   1.00
O300   O     0.24152   0.84040   0.18160   0.00000  Uiso   1.00
C301   C     0.15163   0.73328   0.24815   0.00000  Uiso   1.00
C302   C     0.20048   0.83740   0.15298   0.00000  Uiso   1.00
C303   C     0.28737   0.89988   0.02836   0.00000  Uiso   1.00
H304   H     0.31179   0.89604   0.10108   0.00000  Uiso   1.00
H305   H     0.29138   0.93564   0.43675   0.00000  Uiso   1.00
H306   H     0.33098   0.92729   0.01356   0.00000  Uiso   1.00
C307   C     0.22036   0.84708   0.09799   0.00000  Uiso   1.00
C308   C     0.05335   0.78930   0.42355   0.00000  Uiso   1.00
C309   C     0.03526   0.78229   0.47631   0.00000  Uiso   1.00
C310   C     0.07653   0.80301   0.00839   0.00000  Uiso   1.00
C311   C     0.13694   0.83341   0.48878   0.00000  Uiso   1.00
C312   C     0.15106   0.84917   0.43724   0.00000  Uiso   1.00
C313   C     0.18370   0.84888   0.01880   0.00000  Uiso   1.00
C314   C     0.24061   0.88484   0.49920   0.00000  Uiso   1.00
C315   C     0.24948   0.90620   0.45128   0.00000  Uiso   1.00
C316   C     0.20505   0.88918   0.42098   0.00000  Uiso   1.00
C317   C     0.17601   0.82888   0.06749   0.00000  Uiso   1.00
C318   C     0.27707   0.88141   0.07781   0.00000  Uiso   1.00
C319   C     0.11112   0.82421   0.40338   0.00000  Uiso   1.00
H320   H     0.13497   0.79971   0.08342   0.00000  Uiso   1.00
H321   H     0.05959   0.79460   0.04848   0.00000  Uiso   1.00
H322   H     0.32369   0.75729   0.49240   0.00000  Uiso   1.00
H323   H     0.21372   0.90795   0.38468   0.00000  Uiso   1.00
C324   C     0.19015   0.98948   0.25262   0.00000  Uiso   1.00
H325   H     0.23489   0.68019   0.25843   0.00000  Uiso   1.00
C326   C     0.14355   0.67723   0.24669   0.00000  Uiso   1.00
H327   H     0.09897   0.98658   0.24056   0.00000  Uiso   1.00
N328   N     0.31574   0.84741   0.26416   0.00000  Uiso   1.00
N329   N     0.01759   0.81926   0.23584   0.00000  Uiso   1.00
H330   H     0.33291   0.79914   0.20578   0.00000  Uiso   1.00
N331   N     0.00086   0.87078   0.30833   0.00000  Uiso   1.00
O332   O     0.01904   0.92187   0.31101   0.00000  Uiso   1.00
O333   O     0.31190   0.84592   0.35099   0.00000  Uiso   1.00
N334   N     0.01463   0.75752   0.39121   0.00000  Uiso   1.00
O335   O     0.03901   0.72798   0.35455   0.00000  Uiso   1.00
O336   O     0.28721   0.74849   0.40560   0.00000  Uiso   1.00
O337   O     0.46131   0.90474   0.24633   0.00000  Uiso   1.00
O338   O     0.56191   0.91422   0.25586   0.00000  Uiso   1.00
C339   C     0.51516   0.93340   0.25159   0.00000  Uiso   1.00
O340   O     0.42515   0.82627   0.31839   0.00000  Uiso   1.00
O341   O     0.52575   0.83575   0.32793   0.00000  Uiso   1.00
C342   C     0.46609   0.82994   0.34726   0.00000  Uiso   1.00
Cu343  Cu    0.44043   0.82772   0.24435   0.00000  Uiso   1.00
Cu344  Cu    0.55957   0.83895   0.25564   0.00000  Uiso   1.00
O345   O     0.43809   0.75245   0.24413   0.00000  Uiso   1.00
O346   O     0.53869   0.76193   0.25367   0.00000  Uiso   1.00
O347   O     0.47425   0.83092   0.17207   0.00000  Uiso   1.00
O348   O     0.57485   0.84040   0.18160   0.00000  Uiso   1.00
C349   C     0.48497   0.73328   0.24815   0.00000  Uiso   1.00
C350   C     0.53382   0.83740   0.15298   0.00000  Uiso   1.00
C351   C     0.62070   0.89988   0.02836   0.00000  Uiso   1.00
H352   H     0.64512   0.89604   0.10108   0.00000  Uiso   1.00
H353   H     0.62472   0.93564   0.43675   0.00000  Uiso   1.00
H354   H     0.66432   0.92729   0.01356   0.00000  Uiso   1.00
C355   C     0.55369   0.84708   0.09799   0.00000  Uiso   1.00
C356   C     0.38668   0.78930   0.42355   0.00000  Uiso   1.00
C357   C     0.36860   0.78229   0.47631   0.00000  Uiso   1.00
C358   C     0.40986   0.80301   0.00839   0.00000  Uiso   1.00
C359   C     0.47027   0.83341   0.48878   0.00000  Uiso   1.00
C360   C     0.48439   0.84917   0.43724   0.00000  Uiso   1.00
C361   C     0.51704   0.84888   0.01880   0.00000  Uiso   1.00
C362   C     0.57394   0.88484   0.49920   0.00000  Uiso   1.00
C363   C     0.58281   0.90620   0.45128   0.00000  Uiso   1.00
C364   C     0.53838   0.88918   0.42098   0.00000  Uiso   1.00
C365   C     0.50934   0.82888   0.06749   0.00000  Uiso   1.00
C366   C     0.61040   0.88141   0.07781   0.00000  Uiso   1.00
C367   C     0.44446   0.82421   0.40338   0.00000  Uiso   1.00
H368   H     0.46830   0.79971   0.08342   0.00000  Uiso   1.00
H369   H     0.39293   0.79460   0.04848   0.00000  Uiso   1.00
H370   H     0.65703   0.75729   0.49240   0.00000  Uiso   1.00
H371   H     0.54705   0.90795   0.38468   0.00000  Uiso   1.00
C372   C     0.52348   0.98948   0.25262   0.00000  Uiso   1.00
H373   H     0.56822   0.68019   0.25843   0.00000  Uiso   1.00
C374   C     0.47688   0.67723   0.24669   0.00000  Uiso   1.00
H375   H     0.43230   0.98658   0.24056   0.00000  Uiso   1.00
N376   N     0.64908   0.84741   0.26416   0.00000  Uiso   1.00
N377   N     0.35092   0.81926   0.23584   0.00000  Uiso   1.00
H378   H     0.66624   0.79914   0.20578   0.00000  Uiso   1.00
N379   N     0.33420   0.87078   0.30833   0.00000  Uiso   1.00
O380   O     0.35237   0.92187   0.31101   0.00000  Uiso   1.00
O381   O     0.64523   0.84592   0.35099   0.00000  Uiso   1.00
N382   N     0.34796   0.75752   0.39121   0.00000  Uiso   1.00
O383   O     0.37234   0.72798   0.35455   0.00000  Uiso   1.00
O384   O     0.62054   0.74849   0.40560   0.00000  Uiso   1.00
O385   O     0.79464   0.90474   0.24633   0.00000  Uiso   1.00
O386   O     0.89524   0.91422   0.25586   0.00000  Uiso   1.00
C387   C     0.84849   0.93340   0.25159   0.00000  Uiso   1.00
O388   O     0.75848   0.82627   0.31839   0.00000  Uiso   1.00
O389   O     0.85908   0.83575   0.32793   0.00000  Uiso   1.00
C390   C     0.79942   0.82994   0.34726   0.00000  Uiso   1.00
Cu391  Cu    0.77377   0.82772   0.24435   0.00000  Uiso   1.00
Cu392  Cu    0.89290   0.83895   0.25564   0.00000  Uiso   1.00
O393   O     0.77142   0.75245   0.24413   0.00000  Uiso   1.00
O394   O     0.87203   0.76193   0.25367   0.00000  Uiso   1.00
O395   O     0.80758   0.83092   0.17207   0.00000  Uiso   1.00
O396   O     0.90819   0.84040   0.18160   0.00000  Uiso   1.00
C397   C     0.81830   0.73328   0.24815   0.00000  Uiso   1.00
C398   C     0.86715   0.83740   0.15298   0.00000  Uiso   1.00
C399   C     0.95404   0.89988   0.02836   0.00000  Uiso   1.00
H400   H     0.97845   0.89604   0.10108   0.00000  Uiso   1.00
H401   H     0.95805   0.93564   0.43675   0.00000  Uiso   1.00
H402   H     0.99765   0.92729   0.01356   0.00000  Uiso   1.00
C403   C     0.88703   0.84708   0.09799   0.00000  Uiso   1.00
C404   C     0.72001   0.78930   0.42355   0.00000  Uiso   1.00
C405   C     0.70193   0.78229   0.47631   0.00000  Uiso   1.00
C406   C     0.74319   0.80301   0.00839   0.00000  Uiso   1.00
C407   C     0.80360   0.83341   0.48878   0.00000  Uiso   1.00
C408   C     0.81772   0.84917   0.43724   0.00000  Uiso   1.00
C409   C     0.85037   0.84888   0.01880   0.00000  Uiso   1.00
C410   C     0.90728   0.88484   0.49920   0.00000  Uiso   1.00
C411   C     0.91614   0.90620   0.45128   0.00000  Uiso   1.00
C412   C     0.87172   0.88918   0.42098   0.00000  Uiso   1.00
C413   C     0.84267   0.82888   0.06749   0.00000  Uiso   1.00
C414   C     0.94373   0.88141   0.07781   0.00000  Uiso   1.00
C415   C     0.77779   0.82421   0.40338   0.00000  Uiso   1.00
H416   H     0.80164   0.79971   0.08342   0.00000  Uiso   1.00
H417   H     0.72626   0.79460   0.04848   0.00000  Uiso   1.00
H418   H     0.99036   0.75729   0.49240   0.00000  Uiso   1.00
H419   H     0.88039   0.90795   0.38468   0.00000  Uiso   1.00
C420   C     0.85682   0.98948   0.25262   0.00000  Uiso   1.00
H421   H     0.90156   0.68019   0.25843   0.00000  Uiso   1.00
C422   C     0.81022   0.67723   0.24669   0.00000  Uiso   1.00
H423   H     0.76564   0.98658   0.24056   0.00000  Uiso   1.00
N424   N     0.98241   0.84741   0.26416   0.00000  Uiso   1.00
N425   N     0.68426   0.81926   0.23584   0.00000  Uiso   1.00
H426   H     0.99957   0.79914   0.20578   0.00000  Uiso   1.00
N427   N     0.66753   0.87078   0.30833   0.00000  Uiso   1.00
O428   O     0.68571   0.92187   0.31101   0.00000  Uiso   1.00
O429   O     0.97856   0.84592   0.35099   0.00000  Uiso   1.00
N430   N     0.68130   0.75752   0.39121   0.00000  Uiso   1.00
O431   O     0.70567   0.72798   0.35455   0.00000  Uiso   1.00
O432   O     0.95387   0.74849   0.40560   0.00000  Uiso   1.00
O433   O     0.12797   0.23807   0.74633   0.00000  Uiso   1.00
O434   O     0.22858   0.24755   0.75586   0.00000  Uiso   1.00
C435   C     0.18182   0.26673   0.75159   0.00000  Uiso   1.00
O436   O     0.09181   0.15960   0.81839   0.00000  Uiso   1.00
O437   O     0.19242   0.16908   0.82793   0.00000  Uiso   1.00
C438   C     0.13275   0.16328   0.84726   0.00000  Uiso   1.00
Cu439  Cu    0.10710   0.16105   0.74435   0.00000  Uiso   1.00
Cu440  Cu    0.22623   0.17228   0.75564   0.00000  Uiso   1.00
O441   O     0.10476   0.08578   0.74413   0.00000  Uiso   1.00
O442   O     0.20536   0.09526   0.75367   0.00000  Uiso   1.00
O443   O     0.14092   0.16425   0.67207   0.00000  Uiso   1.00
O444   O     0.24152   0.17373   0.68160   0.00000  Uiso   1.00
C445   C     0.15163   0.06662   0.74815   0.00000  Uiso   1.00
C446   C     0.20048   0.17073   0.65298   0.00000  Uiso   1.00
C447   C     0.28737   0.23321   0.52836   0.00000  Uiso   1.00
H448   H     0.31179   0.22938   0.60108   0.00000  Uiso   1.00
H449   H     0.29138   0.26897   0.93675   0.00000  Uiso   1.00
H450   H     0.33098   0.26063   0.51356   0.00000  Uiso   1.00
C451   C     0.22036   0.18041   0.59799   0.00000  Uiso   1.00
C452   C     0.05335   0.12263   0.92355   0.00000  Uiso   1.00
C453   C     0.03526   0.11563   0.97631   0.00000  Uiso   1.00
C454   C     0.07653   0.13635   0.50839   0.00000  Uiso   1.00
C455   C     0.13694   0.16674   0.98878   0.00000  Uiso   1.00
C456   C     0.15106   0.18251   0.93724   0.00000  Uiso   1.00
C457   C     0.18370   0.18222   0.51880   0.00000  Uiso   1.00
C458   C     0.24061   0.21817   0.99920   0.00000  Uiso   1.00
C459   C     0.24948   0.23954   0.95128   0.00000  Uiso   1.00
C460   C     0.20505   0.22252   0.92098   0.00000  Uiso   1.00
C461   C     0.17601   0.16222   0.56749   0.00000  Uiso   1.00
C462   C     0.27707   0.21475   0.57781   0.00000  Uiso   1.00
C463   C     0.11112   0.15755   0.90338   0.00000  Uiso   1.00
H464   H     0.13497   0.13304   0.58342   0.00000  Uiso   1.00
H465   H     0.05959   0.12793   0.54848   0.00000  Uiso   1.00
H466   H     0.32369   0.09063   0.99240   0.00000  Uiso   1.00
H467   H     0.21372   0.24128   0.88468   0.00000  Uiso   1.00
C468   C     0.19015   0.32282   0.75262   0.00000  Uiso   1.00
H469   H     0.23489   0.01352   0.75843   0.00000  Uiso   1.00
C470   C     0.14355   0.01057   0.74669   0.00000  Uiso   1.00
H471   H     0.09897   0.31992   0.74056   0.00000  Uiso   1.00
N472   N     0.31574   0.18074   0.76416   0.00000  Uiso   1.00
N473   N     0.01759   0.15259   0.73584   0.00000  Uiso   1.00
H474   H     0.33291   0.13247   0.70578   0.00000  Uiso   1.00
N475   N     0.00086   0.20411   0.80833   0.00000  Uiso   1.00
O476   O     0.01904   0.25520   0.81101   0.00000  Uiso   1.00
O477   O     0.31190   0.17925   0.85099   0.00000  Uiso   1.00
N478   N     0.01463   0.09085   0.89121   0.00000  Uiso   1.00
O479   O     0.03901   0.06132   0.85455   0.00000  Uiso   1.00
O480   O     0.28721   0.08182   0.90560   0.00000  Uiso   1.00
O481   O     0.46131   0.23807   0.74633   0.00000  Uiso   1.00
O482   O     0.56191   0.24755   0.75586   0.00000  Uiso   1.00
C483   C     0.51516   0.26673   0.75159   0.00000  Uiso   1.00
O484   O     0.42515   0.15960   0.81839   0.00000  Uiso   1.00
O485   O     0.52575   0.16908   0.82793   0.00000  Uiso   1.00
C486   C     0.46609   0.16328   0.84726   0.00000  Uiso   1.00
Cu487  Cu    0.44043   0.16105   0.74435   0.00000  Uiso   1.00
Cu488  Cu    0.55957   0.17228   0.75564   0.00000  Uiso   1.00
O489   O     0.43809   0.08578   0.74413   0.00000  Uiso   1.00
O490   O     0.53869   0.09526   0.75367   0.00000  Uiso   1.00
O491   O     0.47425   0.16425   0.67207   0.00000  Uiso   1.00
O492   O     0.57485   0.17373   0.68160   0.00000  Uiso   1.00
C493   C     0.48497   0.06662   0.74815   0.00000  Uiso   1.00
C494   C     0.53382   0.17073   0.65298   0.00000  Uiso   1.00
C495   C     0.62070   0.23321   0.52836   0.00000  Uiso   1.00
H496   H     0.64512   0.22938   0.60108   0.00000  Uiso   1.00
H497   H     0.62472   0.26897   0.93675   0.00000  Uiso   1.00
H498   H     0.66432   0.26063   0.51356   0.00000  Uiso   1.00
C499   C     0.55369   0.18041   0.59799   0.00000  Uiso   1.00
C500   C     0.38668   0.12263   0.92355   0.00000  Uiso   1.00
C501   C     0.36860   0.11563   0.97631   0.00000  Uiso   1.00
C502   C     0.40986   0.13635   0.50839   0.00000  Uiso   1.00
C503   C     0.47027   0.16674   0.98878   0.00000  Uiso   1.00
C504   C     0.48439   0.18251   0.93724   0.00000  Uiso   1.00
C505   C     0.51704   0.18222   0.51880   0.00000  Uiso   1.00
C506   C     0.57394   0.21817   0.99920   0.00000  Uiso   1.00
C507   C     0.58281   0.23954   0.95128   0.00000  Uiso   1.00
C508   C     0.53838   0.22252   0.92098   0.00000  Uiso   1.00
C509   C     0.50934   0.16222   0.56749   0.00000  Uiso   1.00
C510   C     0.61040   0.21475   0.57781   0.00000  Uiso   1.00
C511   C     0.44446   0.15755   0.90338   0.00000  Uiso   1.00
H512   H     0.46830   0.13304   0.58342   0.00000  Uiso   1.00
H513   H     0.39293   0.12793   0.54848   0.00000  Uiso   1.00
H514   H     0.65703   0.09063   0.99240   0.00000  Uiso   1.00
H515   H     0.54705   0.24128   0.88468   0.00000  Uiso   1.00
C516   C     0.52348   0.32282   0.75262   0.00000  Uiso   1.00
H517   H     0.56822   0.01352   0.75843   0.00000  Uiso   1.00
C518   C     0.47688   0.01057   0.74669   0.00000  Uiso   1.00
H519   H     0.43230   0.31992   0.74056   0.00000  Uiso   1.00
N520   N     0.64908   0.18074   0.76416   0.00000  Uiso   1.00
N521   N     0.35092   0.15259   0.73584   0.00000  Uiso   1.00
H522   H     0.66624   0.13247   0.70578   0.00000  Uiso   1.00
N523   N     0.33420   0.20411   0.80833   0.00000  Uiso   1.00
O524   O     0.35237   0.25520   0.81101   0.00000  Uiso   1.00
O525   O     0.64523   0.17925   0.85099   0.00000  Uiso   1.00
N526   N     0.34796   0.09085   0.89121   0.00000  Uiso   1.00
O527   O     0.37234   0.06132   0.85455   0.00000  Uiso   1.00
O528   O     0.62054   0.08182   0.90560   0.00000  Uiso   1.00
O529   O     0.79464   0.23807   0.74633   0.00000  Uiso   1.00
O530   O     0.89524   0.24755   0.75586   0.00000  Uiso   1.00
C531   C     0.84849   0.26673   0.75159   0.00000  Uiso   1.00
O532   O     0.75848   0.15960   0.81839   0.00000  Uiso   1.00
O533   O     0.85908   0.16908   0.82793   0.00000  Uiso   1.00
C534   C     0.79942   0.16328   0.84726   0.00000  Uiso   1.00
Cu535  Cu    0.77377   0.16105   0.74435   0.00000  Uiso   1.00
Cu536  Cu    0.89290   0.17228   0.75564   0.00000  Uiso   1.00
O537   O     0.77142   0.08578   0.74413   0.00000  Uiso   1.00
O538   O     0.87203   0.09526   0.75367   0.00000  Uiso   1.00
O539   O     0.80758   0.16425   0.67207   0.00000  Uiso   1.00
O540   O     0.90819   0.17373   0.68160   0.00000  Uiso   1.00
C541   C     0.81830   0.06662   0.74815   0.00000  Uiso   1.00
C542   C     0.86715   0.17073   0.65298   0.00000  Uiso   1.00
C543   C     0.95404   0.23321   0.52836   0.00000  Uiso   1.00
H544   H     0.97845   0.22938   0.60108   0.00000  Uiso   1.00
H545   H     0.95805   0.26897   0.93675   0.00000  Uiso   1.00
H546   H     0.99765   0.26063   0.51356   0.00000  Uiso   1.00
C547   C     0.88703   0.18041   0.59799   0.00000  Uiso   1.00
C548   C     0.72001   0.12263   0.92355   0.00000  Uiso   1.00
C549   C     0.70193   0.11563   0.97631   0.00000  Uiso   1.00
C550   C     0.74319   0.13635   0.50839   0.00000  Uiso   1.00
C551   C     0.80360   0.16674   0.98878   0.00000  Uiso   1.00
C552   C     0.81772   0.18251   0.93724   0.00000  Uiso   1.00
C553   C     0.85037   0.18222   0.51880   0.00000  Uiso   1.00
C554   C     0.90728   0.21817   0.99920   0.00000  Uiso   1.00
C555   C     0.91614   0.23954   0.95128   0.00000  Uiso   1.00
C556   C     0.87172   0.22252   0.92098   0.00000  Uiso   1.00
C557   C     0.84267   0.16222   0.56749   0.00000  Uiso   1.00
C558   C     0.94373   0.21475   0.57781   0.00000  Uiso   1.00
C559   C     0.77779   0.15755   0.90338   0.00000  Uiso   1.00
H560   H     0.80164   0.13304   0.58342   0.00000  Uiso   1.00
H561   H     0.72626   0.12793   0.54848   0.00000  Uiso   1.00
H562   H     0.99036   0.09063   0.99240   0.00000  Uiso   1.00
H563   H     0.88039   0.24128   0.88468   0.00000  Uiso   1.00
C564   C     0.85682   0.32282   0.75262   0.00000  Uiso   1.00
H565   H     0.90156   0.01352   0.75843   0.00000  Uiso   1.00
C566   C     0.81022   0.01057   0.74669   0.00000  Uiso   1.00
H567   H     0.76564   0.31992   0.74056   0.00000  Uiso   1.00
N568   N     0.98241   0.18074   0.76416   0.00000  Uiso   1.00
N569   N     0.68426   0.15259   0.73584   0.00000  Uiso   1.00
H570   H     0.99957   0.13247   0.70578   0.00000  Uiso   1.00
N571   N     0.66753   0.20411   0.80833   0.00000  Uiso   1.00
O572   O     0.68571   0.25520   0.81101   0.00000  Uiso   1.00
O573   O     0.97856   0.17925   0.85099   0.00000  Uiso   1.00
N574   N     0.68130   0.09085   0.89121   0.00000  Uiso   1.00
O575   O     0.70567   0.06132   0.85455   0.00000  Uiso   1.00
O576   O     0.95387   0.08182   0.90560   0.00000  Uiso   1.00
O577   O     0.12797   0.57141   0.74633   0.00000  Uiso   1.00
O578   O     0.22858   0.58089   0.75586   0.00000  Uiso   1.00
C579   C     0.18182   0.60007   0.75159   0.00000  Uiso   1.00
O580   O     0.09181   0.49293   0.81839   0.00000  Uiso   1.00
O581   O     0.19242   0.50241   0.82793   0.00000  Uiso   1.00
C582   C     0.13275   0.49661   0.84726   0.00000  Uiso   1.00
Cu583  Cu    0.10710   0.49439   0.74435   0.00000  Uiso   1.00
Cu584  Cu    0.22623   0.50561   0.75564   0.00000  Uiso   1.00
O585   O     0.10476   0.41911   0.74413   0.00000  Uiso   1.00
O586   O     0.20536   0.42859   0.75367   0.00000  Uiso   1.00
O587   O     0.14092   0.49759   0.67207   0.00000  Uiso   1.00
O588   O     0.24152   0.50707   0.68160   0.00000  Uiso   1.00
C589   C     0.15163   0.39995   0.74815   0.00000  Uiso   1.00
C590   C     0.20048   0.50406   0.65298   0.00000  Uiso   1.00
C591   C     0.28737   0.56654   0.52836   0.00000  Uiso   1.00
H592   H     0.31179   0.56271   0.60108   0.00000  Uiso   1.00
H593   H     0.29138   0.60230   0.93675   0.00000  Uiso   1.00
H594   H     0.33098   0.59396   0.51356   0.00000  Uiso   1.00
C595   C     0.22036   0.51374   0.59799   0.00000  Uiso   1.00
C596   C     0.05335   0.45596   0.92355   0.00000  Uiso   1.00
C597   C     0.03526   0.44896   0.97631   0.00000  Uiso   1.00
C598   C     0.07653   0.46968   0.50839   0.00000  Uiso   1.00
C599   C     0.13694   0.50007   0.98878   0.00000  Uiso   1.00
C600   C     0.15106   0.51584   0.93724   0.00000  Uiso   1.00
C601   C     0.18370   0.51555   0.51880   0.00000  Uiso   1.00
C602   C     0.24061   0.55150   0.99920   0.00000  Uiso   1.00
C603   C     0.24948   0.57287   0.95128   0.00000  Uiso   1.00
C604   C     0.20505   0.55585   0.92098   0.00000  Uiso   1.00
C605   C     0.17601   0.49555   0.56749   0.00000  Uiso   1.00
C606   C     0.27707   0.54808   0.57781   0.00000  Uiso   1.00
C607   C     0.11112   0.49088   0.90338   0.00000  Uiso   1.00
H608   H     0.13497   0.46638   0.58342   0.00000  Uiso   1.00
H609   H     0.05959   0.46126   0.54848   0.00000  Uiso   1.00
H610   H     0.32369   0.42396   0.99240   0.00000  Uiso   1.00
H611   H     0.21372   0.57462   0.88468   0.00000  Uiso   1.00
C612   C     0.19015   0.65615   0.75262   0.00000  Uiso   1.00
H613   H     0.23489   0.34685   0.75843   0.00000  Uiso   1.00
C614   C     0.14355   0.34390   0.74669   0.00000  Uiso   1.00
H615   H     0.09897   0.65325   0.74056   0.00000  Uiso   1.00
N616   N     0.31574   0.51407   0.76416   0.00000  Uiso   1.00
N617   N     0.01759   0.48593   0.73584   0.00000  Uiso   1.00
H618   H     0.33291   0.46581   0.70578   0.00000  Uiso   1.00
N619   N     0.00086   0.53745   0.80833   0.00000  Uiso   1.00
O620   O     0.01904   0.58853   0.81101   0.00000  Uiso   1.00
O621   O     0.31190   0.51258   0.85099   0.00000  Uiso   1.00
N622   N     0.01463   0.42418   0.89121   0.00000  Uiso   1.00
O623   O     0.03901   0.39465   0.85455   0.00000  Uiso   1.00
O624   O     0.28721   0.41516   0.90560   0.00000  Uiso   1.00
O625   O     0.46131   0.57141   0.74633   0.00000  Uiso   1.00
O626   O     0.56191   0.58089   0.75586   0.00000  Uiso   1.00
C627   C     0.51516   0.60007   0.75159   0.00000  Uiso   1.00
O628   O     0.42515   0.49293   0.81839   0.00000  Uiso   1.00
O629   O     0.52575   0.50241   0.82793   0.00000  Uiso   1.00
C630   C     0.46609   0.49661   0.84726   0.00000  Uiso   1.00
Cu631  Cu    0.44043   0.49439   0.74435   0.00000  Uiso   1.00
Cu632  Cu    0.55957   0.50561   0.75564   0.00000  Uiso   1.00
O633   O     0.43809   0.41911   0.74413   0.00000  Uiso   1.00
O634   O     0.53869   0.42859   0.75367   0.00000  Uiso   1.00
O635   O     0.47425   0.49759   0.67207   0.00000  Uiso   1.00
O636   O     0.57485   0.50707   0.68160   0.00000  Uiso   1.00
C637   C     0.48497   0.39995   0.74815   0.00000  Uiso   1.00
C638   C     0.53382   0.50406   0.65298   0.00000  Uiso   1.00
C639   C     0.62070   0.56654   0.52836   0.00000  Uiso   1.00
H640   H     0.64512   0.56271   0.60108   0.00000  Uiso   1.00
H641   H     0.62472   0.60230   0.93675   0.00000  Uiso   1.00
H642   H     0.66432   0.59396   0.51356   0.00000  Uiso   1.00
C643   C     0.55369   0.51374   0.59799   0.00000  Uiso   1.00
C644   C     0.38668   0.45596   0.92355   0.00000  Uiso   1.00
C645   C     0.36860   0.44896   0.97631   0.00000  Uiso   1.00
C646   C     0.40986   0.46968   0.50839   0.00000  Uiso   1.00
C647   C     0.47027   0.50007   0.98878   0.00000  Uiso   1.00
C648   C     0.48439   0.51584   0.93724   0.00000  Uiso   1.00
C649   C     0.51704   0.51555   0.51880   0.00000  Uiso   1.00
C650   C     0.57394   0.55150   0.99920   0.00000  Uiso   1.00
C651   C     0.58281   0.57287   0.95128   0.00000  Uiso   1.00
C652   C     0.53838   0.55585   0.92098   0.00000  Uiso   1.00
C653   C     0.50934   0.49555   0.56749   0.00000  Uiso   1.00
C654   C     0.61040   0.54808   0.57781   0.00000  Uiso   1.00
C655   C     0.44446   0.49088   0.90338   0.00000  Uiso   1.00
H656   H     0.46830   0.46638   0.58342   0.00000  Uiso   1.00
H657   H     0.39293   0.46126   0.54848   0.00000  Uiso   1.00
H658   H     0.65703   0.42396   0.99240   0.00000  Uiso   1.00
H659   H     0.54705   0.57462   0.88468   0.00000  Uiso   1.00
C660   C     0.52348   0.65615   0.75262   0.00000  Uiso   1.00
H661   H     0.56822   0.34685   0.75843   0.00000  Uiso   1.00
C662   C     0.47688   0.34390   0.74669   0.00000  Uiso   1.00
H663   H     0.43230   0.65325   0.74056   0.00000  Uiso   1.00
N664   N     0.64908   0.51407   0.76416   0.00000  Uiso   1.00
N665   N     0.35092   0.48593   0.73584   0.00000  Uiso   1.00
H666   H     0.66624   0.46581   0.70578   0.00000  Uiso   1.00
N667   N     0.33420   0.53745   0.80833   0.00000  Uiso   1.00
O668   O     0.35237   0.58853   0.81101   0.00000  Uiso   1.00
O669   O     0.64523   0.51258   0.85099   0.00000  Uiso   1.00
N670   N     0.34796   0.42418   0.89121   0.00000  Uiso   1.00
O671   O     0.37234   0.39465   0.85455   0.00000  Uiso   1.00
O672   O     0.62054   0.41516   0.90560   0.00000  Uiso   1.00
O673   O     0.79464   0.57141   0.74633   0.00000  Uiso   1.00
O674   O     0.89524   0.58089   0.75586   0.00000  Uiso   1.00
C675   C     0.84849   0.60007   0.75159   0.00000  Uiso   1.00
O676   O     0.75848   0.49293   0.81839   0.00000  Uiso   1.00
O677   O     0.85908   0.50241   0.82793   0.00000  Uiso   1.00
C678   C     0.79942   0.49661   0.84726   0.00000  Uiso   1.00
Cu679  Cu    0.77377   0.49439   0.74435   0.00000  Uiso   1.00
Cu680  Cu    0.89290   0.50561   0.75564   0.00000  Uiso   1.00
O681   O     0.77142   0.41911   0.74413   0.00000  Uiso   1.00
O682   O     0.87203   0.42859   0.75367   0.00000  Uiso   1.00
O683   O     0.80758   0.49759   0.67207   0.00000  Uiso   1.00
O684   O     0.90819   0.50707   0.68160   0.00000  Uiso   1.00
C685   C     0.81830   0.39995   0.74815   0.00000  Uiso   1.00
C686   C     0.86715   0.50406   0.65298   0.00000  Uiso   1.00
C687   C     0.95404   0.56654   0.52836   0.00000  Uiso   1.00
H688   H     0.97845   0.56271   0.60108   0.00000  Uiso   1.00
H689   H     0.95805   0.60230   0.93675   0.00000  Uiso   1.00
H690   H     0.99765   0.59396   0.51356   0.00000  Uiso   1.00
C691   C     0.88703   0.51374   0.59799   0.00000  Uiso   1.00
C692   C     0.72001   0.45596   0.92355   0.00000  Uiso   1.00
C693   C     0.70193   0.44896   0.97631   0.00000  Uiso   1.00
C694   C     0.74319   0.46968   0.50839   0.00000  Uiso   1.00
C695   C     0.80360   0.50007   0.98878   0.00000  Uiso   1.00
C696   C     0.81772   0.51584   0.93724   0.00000  Uiso   1.00
C697   C     0.85037   0.51555   0.51880   0.00000  Uiso   1.00
C698   C     0.90728   0.55150   0.99920   0.00000  Uiso   1.00
C699   C     0.91614   0.57287   0.95128   0.00000  Uiso   1.00
C700   C     0.87172   0.55585   0.92098   0.00000  Uiso   1.00
C701   C     0.84267   0.49555   0.56749   0.00000  Uiso   1.00
C702   C     0.94373   0.54808   0.57781   0.00000  Uiso   1.00
C703   C     0.77779   0.49088   0.90338   0.00000  Uiso   1.00
H704   H     0.80164   0.46638   0.58342   0.00000  Uiso   1.00
H705   H     0.72626   0.46126   0.54848   0.00000  Uiso   1.00
H706   H     0.99036   0.42396   0.99240   0.00000  Uiso   1.00
H707   H     0.88039   0.57462   0.88468   0.00000  Uiso   1.00
C708   C     0.85682   0.65615   0.75262   0.00000  Uiso   1.00
H709   H     0.90156   0.34685   0.75843   0.00000  Uiso   1.00
C710   C     0.81022   0.34390   0.74669   0.00000  Uiso   1.00
H711   H     0.76564   0.65325   0.74056   0.00000  Uiso   1.00
N712   N     0.98241   0.51407   0.76416   0.00000  Uiso   1.00
N713   N     0.68426   0.48593   0.73584   0.00000  Uiso   1.00
H714   H     0.99957   0.46581   0.70578   0.00000  Uiso   1.00
N715   N     0.66753   0.53745   0.80833   0.00000  Uiso   1.00
O716   O     0.68571   0.58853   0.81101   0.00000  Uiso   1.00
O717   O     0.97856   0.51258   0.85099   0.00000  Uiso   1.00
N718   N     0.68130   0.42418   0.89121   0.00000  Uiso   1.00
O719   O     0.70567   0.39465   0.85455   0.00000  Uiso   1.00
O720   O     0.95387   0.41516   0.90560   0.00000  Uiso   1.00
O721   O     0.12797   0.90474   0.74633   0.00000  Uiso   1.00
O722   O     0.22858   0.91422   0.75586   0.00000  Uiso   1.00
C723   C     0.18182   0.93340   0.75159   0.00000  Uiso   1.00
O724   O     0.09181   0.82627   0.81839   0.00000  Uiso   1.00
O725   O     0.19242   0.83575   0.82793   0.00000  Uiso   1.00
C726   C     0.13275   0.82994   0.84726   0.00000  Uiso   1.00
Cu727  Cu    0.10710   0.82772   0.74435   0.00000  Uiso   1.00
Cu728  Cu    0.22623   0.83895   0.75564   0.00000  Uiso   1.00
O729   O     0.10476   0.75245   0.74413   0.00000  Uiso   1.00
O730   O     0.20536   0.76193   0.75367   0.00000  Uiso   1.00
O731   O     0.14092   0.83092   0.67207   0.00000  Uiso   1.00
O732   O     0.24152   0.84040   0.68160   0.00000  Uiso   1.00
C733   C     0.15163   0.73328   0.74815   0.00000  Uiso   1.00
C734   C     0.20048   0.83740   0.65298   0.00000  Uiso   1.00
C735   C     0.28737   0.89988   0.52836   0.00000  Uiso   1.00
H736   H     0.31179   0.89604   0.60108   0.00000  Uiso   1.00
H737   H     0.29138   0.93564   0.93675   0.00000  Uiso   1.00
H738   H     0.33098   0.92729   0.51356   0.00000  Uiso   1.00
C739   C     0.22036   0.84708   0.59799   0.00000  Uiso   1.00
C740   C     0.05335   0.78930   0.92355   0.00000  Uiso   1.00
C741   C     0.03526   0.78229   0.97631   0.00000  Uiso   1.00
C742   C     0.07653   0.80301   0.50839   0.00000  Uiso   1.00
C743   C     0.13694   0.83341   0.98878   0.00000  Uiso   1.00
C744   C     0.15106   0.84917   0.93724   0.00000  Uiso   1.00
C745   C     0.18370   0.84888   0.51880   0.00000  Uiso   1.00
C746   C     0.24061   0.88484   0.99920   0.00000  Uiso   1.00
C747   C     0.24948   0.90620   0.95128   0.00000  Uiso   1.00
C748   C     0.20505   0.88918   0.92098   0.00000  Uiso   1.00
C749   C     0.17601   0.82888   0.56749   0.00000  Uiso   1.00
C750   C     0.27707   0.88141   0.57781   0.00000  Uiso   1.00
C751   C     0.11112   0.82421   0.90338   0.00000  Uiso   1.00
H752   H     0.13497   0.79971   0.58342   0.00000  Uiso   1.00
H753   H     0.05959   0.79460   0.54848   0.00000  Uiso   1.00
H754   H     0.32369   0.75729   0.99240   0.00000  Uiso   1.00
H755   H     0.21372   0.90795   0.88468   0.00000  Uiso   1.00
C756   C     0.19015   0.98948   0.75262   0.00000  Uiso   1.00
H757   H     0.23489   0.68019   0.75843   0.00000  Uiso   1.00
C758   C     0.14355   0.67723   0.74669   0.00000  Uiso   1.00
H759   H     0.09897   0.98658   0.74056   0.00000  Uiso   1.00
N760   N     0.31574   0.84741   0.76416   0.00000  Uiso   1.00
N761   N     0.01759   0.81926   0.73584   0.00000  Uiso   1.00
H762   H     0.33291   0.79914   0.70578   0.00000  Uiso   1.00
N763   N     0.00086   0.87078   0.80833   0.00000  Uiso   1.00
O764   O     0.01904   0.92187   0.81101   0.00000  Uiso   1.00
O765   O     0.31190   0.84592   0.85099   0.00000  Uiso   1.00
N766   N     0.01463   0.75752   0.89121   0.00000  Uiso   1.00
O767   O     0.03901   0.72798   0.85455   0.00000  Uiso   1.00
O768   O     0.28721   0.74849   0.90560   0.00000  Uiso   1.00
O769   O     0.46131   0.90474   0.74633   0.00000  Uiso   1.00
O770   O     0.56191   0.91422   0.75586   0.00000  Uiso   1.00
C771   C     0.51516   0.93340   0.75159   0.00000  Uiso   1.00
O772   O     0.42515   0.82627   0.81839   0.00000  Uiso   1.00
O773   O     0.52575   0.83575   0.82793   0.00000  Uiso   1.00
C774   C     0.46609   0.82994   0.84726   0.00000  Uiso   1.00
Cu775  Cu    0.44043   0.82772   0.74435   0.00000  Uiso   1.00
Cu776  Cu    0.55957   0.83895   0.75564   0.00000  Uiso   1.00
O777   O     0.43809   0.75245   0.74413   0.00000  Uiso   1.00
O778   O     0.53869   0.76193   0.75367   0.00000  Uiso   1.00
O779   O     0.47425   0.83092   0.67207   0.00000  Uiso   1.00
O780   O     0.57485   0.84040   0.68160   0.00000  Uiso   1.00
C781   C     0.48497   0.73328   0.74815   0.00000  Uiso   1.00
C782   C     0.53382   0.83740   0.65298   0.00000  Uiso   1.00
C783   C     0.62070   0.89988   0.52836   0.00000  Uiso   1.00
H784   H     0.64512   0.89604   0.60108   0.00000  Uiso   1.00
H785   H     0.62472   0.93564   0.93675   0.00000  Uiso   1.00
H786   H     0.66432   0.92729   0.51356   0.00000  Uiso   1.00
C787   C     0.55369   0.84708   0.59799   0.00000  Uiso   1.00
C788   C     0.38668   0.78930   0.92355   0.00000  Uiso   1.00
C789   C     0.36860   0.78229   0.97631   0.00000  Uiso   1.00
C790   C     0.40986   0.80301   0.50839   0.00000  Uiso   1.00
C791   C     0.47027   0.83341   0.98878   0.00000  Uiso   1.00
C792   C     0.48439   0.84917   0.93724   0.00000  Uiso   1.00
C793   C     0.51704   0.84888   0.51880   0.00000  Uiso   1.00
C794   C     0.57394   0.88484   0.99920   0.00000  Uiso   1.00
C795   C     0.58281   0.90620   0.95128   0.00000  Uiso   1.00
C796   C     0.53838   0.88918   0.92098   0.00000  Uiso   1.00
C797   C     0.50934   0.82888   0.56749   0.00000  Uiso   1.00
C798   C     0.61040   0.88141   0.57781   0.00000  Uiso   1.00
C799   C     0.44446   0.82421   0.90338   0.00000  Uiso   1.00
H800   H     0.46830   0.79971   0.58342   0.00000  Uiso   1.00
H801   H     0.39293   0.79460   0.54848   0.00000  Uiso   1.00
H802   H     0.65703   0.75729   0.99240   0.00000  Uiso   1.00
H803   H     0.54705   0.90795   0.88468   0.00000  Uiso   1.00
C804   C     0.52348   0.98948   0.75262   0.00000  Uiso   1.00
H805   H     0.56822   0.68019   0.75843   0.00000  Uiso   1.00
C806   C     0.47688   0.67723   0.74669   0.00000  Uiso   1.00
H807   H     0.43230   0.98658   0.74056   0.00000  Uiso   1.00
N808   N     0.64908   0.84741   0.76416   0.00000  Uiso   1.00
N809   N     0.35092   0.81926   0.73584   0.00000  Uiso   1.00
H810   H     0.66624   0.79914   0.70578   0.00000  Uiso   1.00
N811   N     0.33420   0.87078   0.80833   0.00000  Uiso   1.00
O812   O     0.35237   0.92187   0.81101   0.00000  Uiso   1.00
O813   O     0.64523   0.84592   0.85099   0.00000  Uiso   1.00
N814   N     0.34796   0.75752   0.89121   0.00000  Uiso   1.00
O815   O     0.37234   0.72798   0.85455   0.00000  Uiso   1.00
O816   O     0.62054   0.74849   0.90560   0.00000  Uiso   1.00
O817   O     0.79464   0.90474   0.74633   0.00000  Uiso   1.00
O818   O     0.89524   0.91422   0.75586   0.00000  Uiso   1.00
C819   C     0.84849   0.93340   0.75159   0.00000  Uiso   1.00
O820   O     0.75848   0.82627   0.81839   0.00000  Uiso   1.00
O821   O     0.85908   0.83575   0.82793   0.00000  Uiso   1.00
C822   C     0.79942   0.82994   0.84726   0.00000  Uiso   1.00
Cu823  Cu    0.77377   0.82772   0.74435   0.00000  Uiso   1.00
Cu824  Cu    0.89290   0.83895   0.75564   0.00000  Uiso   1.00
O825   O     0.77142   0.75245   0.74413   0.00000  Uiso   1.00
O826   O     0.87203   0.76193   0.75367   0.00000  Uiso   1.00
O827   O     0.80758   0.83092   0.67207   0.00000  Uiso   1.00
O828   O     0.90819   0.84040   0.68160   0.00000  Uiso   1.00
C829   C     0.81830   0.73328   0.74815   0.00000  Uiso   1.00
C830   C     0.86715   0.83740   0.65298   0.00000  Uiso   1.00
C831   C     0.95404   0.89988   0.52836   0.00000  Uiso   1.00
H832   H     0.97845   0.89604   0.60108   0.00000  Uiso   1.00
H833   H     0.95805   0.93564   0.93675   0.00000  Uiso   1.00
H834   H     0.99765   0.92729   0.51356   0.00000  Uiso   1.00
C835   C     0.88703   0.84708   0.59799   0.00000  Uiso   1.00
C836   C     0.72001   0.78930   0.92355   0.00000  Uiso   1.00
C837   C     0.70193   0.78229   0.97631   0.00000  Uiso   1.00
C838   C     0.74319   0.80301   0.50839   0.00000  Uiso   1.00
C839   C     0.80360   0.83341   0.98878   0.00000  Uiso   1.00
C840   C     0.81772   0.84917   0.93724   0.00000  Uiso   1.00
C841   C     0.85037   0.84888   0.51880   0.00000  Uiso   1.00
C842   C     0.90728   0.88484   0.99920   0.00000  Uiso   1.00
C843   C     0.91614   0.90620   0.95128   0.00000  Uiso   1.00
C844   C     0.87172   0.88918   0.92098   0.00000  Uiso   1.00
C845   C     0.84267   0.82888   0.56749   0.00000  Uiso   1.00
C846   C     0.94373   0.88141   0.57781   0.00000  Uiso   1.00
C847   C     0.77779   0.82421   0.90338   0.00000  Uiso   1.00
H848   H     0.80164   0.79971   0.58342   0.00000  Uiso   1.00
H849   H     0.72626   0.79460   0.54848   0.00000  Uiso   1.00
H850   H     0.99036   0.75729   0.99240   0.00000  Uiso   1.00
H851   H     0.88039   0.90795   0.88468   0.00000  Uiso   1.00
C852   C     0.85682   0.98948   0.75262   0.00000  Uiso   1.00
H853   H     0.90156   0.68019   0.75843   0.00000  Uiso   1.00
C854   C     0.81022   0.67723   0.74669   0.00000  Uiso   1.00
H855   H     0.76564   0.98658   0.74056   0.00000  Uiso   1.00
N856   N     0.98241   0.84741   0.76416   0.00000  Uiso   1.00
N857   N     0.68426   0.81926   0.73584   0.00000  Uiso   1.00
H858   H     0.99957   0.79914   0.70578   0.00000  Uiso   1.00
N859   N     0.66753   0.87078   0.80833   0.00000  Uiso   1.00
O860   O     0.68571   0.92187   0.81101   0.00000  Uiso   1.00
O861   O     0.97856   0.84592   0.85099   0.00000  Uiso   1.00
N862   N     0.68130   0.75752   0.89121   0.00000  Uiso   1.00
O863   O     0.70567   0.72798   0.85455   0.00000  Uiso   1.00
O864   O     0.95387   0.74849   0.90560   0.00000  Uiso   1.00
loop_
_geom_bond_atom_site_label_1
_geom_bond_atom_site_label_2
_geom_bond_distance
_geom_bond_site_symmetry_2
_ccdc_geom_bond_type
O1     Cu7     1.952   .     S
O1     C3      1.293   .     A
O2     C3      1.291   .     A
O2     Cu8     1.951   .     S
C3     C36     1.429   .     S
O4     Cu7     1.935   .     S
O4     C6      1.305   .     A
O5     Cu8     1.916   .     S
O5     C6      1.302   .     A
C6     C31     1.481   .     S
Cu7    Cu8     2.699   .     S
Cu7    O11     1.916   .     S
Cu7    N41     2.028   .     S
Cu7    O9      1.951   .     S
Cu8    O12     1.935   .     S
Cu8    O10     1.952   .     S
Cu8    N40     2.028   .     S
O9     C13     1.291   .     A
O10    C13     1.293   .     A
O11    C14     1.297   .     A
O12    C14     1.305   .     A
C13    C38     1.429   .     S
C14    C19     1.464   .     S
C15    H18     1.084   .     S
C15    C30     1.396   .     A
C15    C458    1.406   1_554 S
H16    C30     1.083   .     S
H17    C27     1.084   .     S
C19    C30     1.399   .     A
C19    C29     1.397   .     A
C20    N46     1.437   .     S
C20    C21     1.394   .     A
C20    C31     1.422   .     A
C21    C454    1.386   .     S
C21    H130    1.083   1_455 S
C22    H33     1.078   .     S
C22    C453    1.386   1_554 S
C22    C455    1.412   1_554 S
C23    C24     1.417   .     A
C23    C454    1.412   .     S
C23    C457    1.423   .     S
C24    C31     1.425   .     A
C24    C28     1.413   .     A
C25    C29     1.402   .     A
C25    C455    1.423   1_554 S
C25    C458    1.418   1_554 S
C26    C27     1.394   .     A
C26    C457    1.418   .     S
C26    C447    1.406   .     S
C27    C28     1.391   .     A
C28    H35     1.081   .     S
C29    H32     1.078   .     S
H34    C69     1.083   .     S
C36    H181    1.088   .     S
C36    C182    1.331   .     S
H37    C324    1.088   1_545 S
C38    C324    1.331   1_545 S
C38    H327    1.087   1_545 S
H39    C182    1.087   .     S
N40    N89     1.286   .     S
N40    N91     1.385   .     S
N41    N136    1.286   1_455 S
N41    H138    1.029   1_455 S
H42    N89     1.029   .     S
N43    O44     1.300   .     A
N43    N136    1.385   1_455 S
N43    O141    1.300   1_455 S
O45    N91     1.300   .     S
N46    O47     1.301   .     A
N46    O144    1.302   1_455 S
O48    N94     1.302   .     S
O49    Cu55    1.952   .     S
O49    C51     1.293   .     A
O50    C51     1.291   .     A
O50    Cu56    1.951   .     S
C51    C84     1.429   .     S
O52    Cu55    1.935   .     S
O52    C54     1.305   .     A
O53    Cu56    1.916   .     S
O53    C54     1.302   .     A
C54    C79     1.481   .     S
Cu55   Cu56    2.699   .     S
Cu55   O59     1.916   .     S
Cu55   N89     2.028   .     S
Cu55   O57     1.951   .     S
Cu56   O60     1.935   .     S
Cu56   O58     1.952   .     S
Cu56   N88     2.028   .     S
O57    C61     1.291   .     A
O58    C61     1.293   .     A
O59    C62     1.297   .     A
O60    C62     1.305   .     A
C61    C86     1.429   .     S
C62    C67     1.464   .     S
C63    H66     1.084   .     S
C63    C78     1.396   .     A
C63    C506    1.406   1_554 S
H64    C78     1.083   .     S
H65    C75     1.084   .     S
C67    C78     1.399   .     A
C67    C77     1.397   .     A
C68    N94     1.437   .     S
C68    C69     1.394   .     A
C68    C79     1.422   .     A
C69    C502    1.386   .     S
C70    H81     1.078   .     S
C70    C501    1.386   1_554 S
C70    C503    1.412   1_554 S
C71    C72     1.417   .     A
C71    C502    1.412   .     S
C71    C505    1.423   .     S
C72    C79     1.425   .     A
C72    C76     1.413   .     A
C73    C77     1.402   .     A
C73    C503    1.423   1_554 S
C73    C506    1.418   1_554 S
C74    C75     1.394   .     A
C74    C505    1.418   .     S
C74    C495    1.406   .     S
C75    C76     1.391   .     A
C76    H83     1.081   .     S
C77    H80     1.078   .     S
H82    C117    1.083   .     S
C84    H229    1.088   .     S
C84    C230    1.331   .     S
H85    C372    1.088   1_545 S
C86    C372    1.331   1_545 S
C86    H375    1.087   1_545 S
H87    C230    1.087   .     S
N88    N137    1.286   .     S
N88    N139    1.385   .     S
H90    N137    1.029   .     S
N91    O92     1.300   .     A
O93    N139    1.300   .     S
N94    O95     1.301   .     A
O96    N142    1.302   .     S
O97    Cu103   1.952   .     S
O97    C99     1.293   .     A
O98    C99     1.291   .     A
O98    Cu104   1.951   .     S
C99    C132    1.429   .     S
O100   Cu103   1.935   .     S
O100   C102    1.305   .     A
O101   Cu104   1.916   .     S
O101   C102    1.302   .     A
C102   C127    1.481   .     S
Cu103  Cu104   2.699   .     S
Cu103  O107    1.916   .     S
Cu103  N137    2.028   .     S
Cu103  O105    1.951   .     S
Cu104  O108    1.935   .     S
Cu104  O106    1.952   .     S
Cu104  N136    2.028   .     S
O105   C109    1.291   .     A
O106   C109    1.293   .     A
O107   C110    1.297   .     A
O108   C110    1.305   .     A
C109   C134    1.429   .     S
C110   C115    1.464   .     S
C111   H114    1.084   .     S
C111   C126    1.396   .     A
C111   C554    1.406   1_554 S
H112   C126    1.083   .     S
H113   C123    1.084   .     S
C115   C126    1.399   .     A
C115   C125    1.397   .     A
C116   N142    1.437   .     S
C116   C117    1.394   .     A
C116   C127    1.422   .     A
C117   C550    1.386   .     S
C118   H129    1.078   .     S
C118   C549    1.386   1_554 S
C118   C551    1.412   1_554 S
C119   C120    1.417   .     A
C119   C550    1.412   .     S
C119   C553    1.423   .     S
C120   C127    1.425   .     A
C120   C124    1.413   .     A
C121   C125    1.402   .     A
C121   C551    1.423   1_554 S
C121   C554    1.418   1_554 S
C122   C123    1.394   .     A
C122   C553    1.418   .     S
C122   C543    1.406   .     S
C123   C124    1.391   .     A
C124   H131    1.081   .     S
C125   H128    1.078   .     S
H130   C21     1.083   1_655 S
C132   H277    1.088   .     S
C132   C278    1.331   .     S
H133   C420    1.088   1_545 S
C134   C420    1.331   1_545 S
C134   H423    1.087   1_545 S
H135   C278    1.087   .     S
N136   N41     1.286   1_655 S
N136   N43     1.385   1_655 S
H138   N41     1.029   1_655 S
N139   O140    1.300   .     A
O141   N43     1.300   1_655 S
N142   O143    1.301   .     A
O144   N46     1.302   1_655 S
O145   Cu151   1.952   .     S
O145   C147    1.293   .     A
O146   C147    1.291   .     A
O146   Cu152   1.951   .     S
C147   C180    1.429   .     S
O148   Cu151   1.935   .     S
O148   C150    1.305   .     A
O149   Cu152   1.916   .     S
O149   C150    1.302   .     A
C150   C175    1.481   .     S
Cu151  Cu152   2.699   .     S
Cu151  O155    1.916   .     S
Cu151  N185    2.028   .     S
Cu151  O153    1.951   .     S
Cu152  O156    1.935   .     S
Cu152  O154    1.952   .     S
Cu152  N184    2.028   .     S
O153   C157    1.291   .     A
O154   C157    1.293   .     A
O155   C158    1.297   .     A
O156   C158    1.305   .     A
C157   C182    1.429   .     S
C158   C163    1.464   .     S
C159   H162    1.084   .     S
C159   C174    1.396   .     A
C159   C602    1.406   1_554 S
H160   C174    1.083   .     S
H161   C171    1.084   .     S
C163   C174    1.399   .     A
C163   C173    1.397   .     A
C164   N190    1.437   .     S
C164   C165    1.394   .     A
C164   C175    1.422   .     A
C165   C598    1.386   .     S
C165   H274    1.083   1_455 S
C166   H177    1.078   .     S
C166   C597    1.386   1_554 S
C166   C599    1.412   1_554 S
C167   C168    1.417   .     A
C167   C598    1.412   .     S
C167   C601    1.423   .     S
C168   C175    1.425   .     A
C168   C172    1.413   .     A
C169   C173    1.402   .     A
C169   C599    1.423   1_554 S
C169   C602    1.418   1_554 S
C170   C171    1.394   .     A
C170   C601    1.418   .     S
C170   C591    1.406   .     S
C171   C172    1.391   .     A
C172   H179    1.081   .     S
C173   H176    1.078   .     S
H178   C213    1.083   .     S
C180   H325    1.088   .     S
C180   C326    1.331   .     S
H183   C326    1.087   .     S
N184   N233    1.286   .     S
N184   N235    1.385   .     S
N185   N280    1.286   1_455 S
N185   H282    1.029   1_455 S
H186   N233    1.029   .     S
N187   O188    1.300   .     A
N187   N280    1.385   1_455 S
N187   O285    1.300   1_455 S
O189   N235    1.300   .     S
N190   O191    1.301   .     A
N190   O288    1.302   1_455 S
O192   N238    1.302   .     S
O193   Cu199   1.952   .     S
O193   C195    1.293   .     A
O194   C195    1.291   .     A
O194   Cu200   1.951   .     S
C195   C228    1.429   .     S
O196   Cu199   1.935   .     S
O196   C198    1.305   .     A
O197   Cu200   1.916   .     S
O197   C198    1.302   .     A
C198   C223    1.481   .     S
Cu199  Cu200   2.699   .     S
Cu199  O203    1.916   .     S
Cu199  N233    2.028   .     S
Cu199  O201    1.951   .     S
Cu200  O204    1.935   .     S
Cu200  O202    1.952   .     S
Cu200  N232    2.028   .     S
O201   C205    1.291   .     A
O202   C205    1.293   .     A
O203   C206    1.297   .     A
O204   C206    1.305   .     A
C205   C230    1.429   .     S
C206   C211    1.464   .     S
C207   H210    1.084   .     S
C207   C222    1.396   .     A
C207   C650    1.406   1_554 S
H208   C222    1.083   .     S
H209   C219    1.084   .     S
C211   C222    1.399   .     A
C211   C221    1.397   .     A
C212   N238    1.437   .     S
C212   C213    1.394   .     A
C212   C223    1.422   .     A
C213   C646    1.386   .     S
C214   H225    1.078   .     S
C214   C645    1.386   1_554 S
C214   C647    1.412   1_554 S
C215   C216    1.417   .     A
C215   C646    1.412   .     S
C215   C649    1.423   .     S
C216   C223    1.425   .     A
C216   C220    1.413   .     A
C217   C221    1.402   .     A
C217   C647    1.423   1_554 S
C217   C650    1.418   1_554 S
C218   C219    1.394   .     A
C218   C649    1.418   .     S
C218   C639    1.406   .     S
C219   C220    1.391   .     A
C220   H227    1.081   .     S
C221   H224    1.078   .     S
H226   C261    1.083   .     S
C228   H373    1.088   .     S
C228   C374    1.331   .     S
H231   C374    1.087   .     S
N232   N281    1.286   .     S
N232   N283    1.385   .     S
H234   N281    1.029   .     S
N235   O236    1.300   .     A
O237   N283    1.300   .     S
N238   O239    1.301   .     A
O240   N286    1.302   .     S
O241   Cu247   1.952   .     S
O241   C243    1.293   .     A
O242   C243    1.291   .     A
O242   Cu248   1.951   .     S
C243   C276    1.429   .     S
O244   Cu247   1.935   .     S
O244   C246    1.305   .     A
O245   Cu248   1.916   .     S
O245   C246    1.302   .     A
C246   C271    1.481   .     S
Cu247  Cu248   2.699   .     S
Cu247  O251    1.916   .     S
Cu247  N281    2.028   .     S
Cu247  O249    1.951   .     S
Cu248  O252    1.935   .     S
Cu248  O250    1.952   .     S
Cu248  N280    2.028   .     S
O249   C253    1.291   .     A
O250   C253    1.293   .     A
O251   C254    1.297   .     A
O252   C254    1.305   .     A
C253   C278    1.429   .     S
C254   C259    1.464   .     S
C255   H258    1.084   .     S
C255   C270    1.396   .     A
C255   C698    1.406   1_554 S
H256   C270    1.083   .     S
H257   C267    1.084   .     S
C259   C270    1.399   .     A
C259   C269    1.397   .     A
C260   N286    1.437   .     S
C260   C261    1.394   .     A
C260   C271    1.422   .     A
C261   C694    1.386   .     S
C262   H273    1.078   .     S
C262   C693    1.386   1_554 S
C262   C695    1.412   1_554 S
C263   C264    1.417   .     A
C263   C694    1.412   .     S
C263   C697    1.423   .     S
C264   C271    1.425   .     A
C264   C268    1.413   .     A
C265   C269    1.402   .     A
C265   C695    1.423   1_554 S
C265   C698    1.418   1_554 S
C266   C267    1.394   .     A
C266   C697    1.418   .     S
C266   C687    1.406   .     S
C267   C268    1.391   .     A
C268   H275    1.081   .     S
C269   H272    1.078   .     S
H274   C165    1.083   1_655 S
C276   H421    1.088   .     S
C276   C422    1.331   .     S
H279   C422    1.087   .     S
N280   N185    1.286   1_655 S
N280   N187    1.385   1_655 S
H282   N185    1.029   1_655 S
N283   O284    1.300   .     A
O285   N187    1.300   1_655 S
N286   O287    1.301   .     A
O288   N190    1.302   1_655 S
O289   Cu295   1.952   .     S
O289   C291    1.293   .     A
O290   C291    1.291   .     A
O290   Cu296   1.951   .     S
C291   C324    1.429   .     S
O292   Cu295   1.935   .     S
O292   C294    1.305   .     A
O293   Cu296   1.916   .     S
O293   C294    1.302   .     A
C294   C319    1.481   .     S
Cu295  Cu296   2.699   .     S
Cu295  O299    1.916   .     S
Cu295  N329    2.028   .     S
Cu295  O297    1.951   .     S
Cu296  O300    1.935   .     S
Cu296  O298    1.952   .     S
Cu296  N328    2.028   .     S
O297   C301    1.291   .     A
O298   C301    1.293   .     A
O299   C302    1.297   .     A
O300   C302    1.305   .     A
C301   C326    1.429   .     S
C302   C307    1.464   .     S
C303   H306    1.084   .     S
C303   C318    1.396   .     A
C303   C746    1.406   1_554 S
H304   C318    1.083   .     S
H305   C315    1.084   .     S
C307   C318    1.399   .     A
C307   C317    1.397   .     A
C308   N334    1.437   .     S
C308   C309    1.394   .     A
C308   C319    1.422   .     A
C309   C742    1.386   .     S
C309   H418    1.083   1_455 S
C310   H321    1.078   .     S
C310   C741    1.386   1_554 S
C310   C743    1.412   1_554 S
C311   C312    1.417   .     A
C311   C742    1.412   .     S
C311   C745    1.423   .     S
C312   C319    1.425   .     A
C312   C316    1.413   .     A
C313   C317    1.402   .     A
C313   C743    1.423   1_554 S
C313   C746    1.418   1_554 S
C314   C315    1.394   .     A
C314   C745    1.418   .     S
C314   C735    1.406   .     S
C315   C316    1.391   .     A
C316   H323    1.081   .     S
C317   H320    1.078   .     S
H322   C357    1.083   .     S
C324   H37     1.088   1_565 S
C324   C38     1.331   1_565 S
H327   C38     1.087   1_565 S
N328   N377    1.286   .     S
N328   N379    1.385   .     S
N329   N424    1.286   1_455 S
N329   H426    1.029   1_455 S
H330   N377    1.029   .     S
N331   O332    1.300   .     A
N331   N424    1.385   1_455 S
N331   O429    1.300   1_455 S
O333   N379    1.300   .     S
N334   O335    1.301   .     A
N334   O432    1.302   1_455 S
O336   N382    1.302   .     S
O337   Cu343   1.952   .     S
O337   C339    1.293   .     A
O338   C339    1.291   .     A
O338   Cu344   1.951   .     S
C339   C372    1.429   .     S
O340   Cu343   1.935   .     S
O340   C342    1.305   .     A
O341   Cu344   1.916   .     S
O341   C342    1.302   .     A
C342   C367    1.481   .     S
Cu343  Cu344   2.699   .     S
Cu343  O347    1.916   .     S
Cu343  N377    2.028   .     S
Cu343  O345    1.951   .     S
Cu344  O348    1.935   .     S
Cu344  O346    1.952   .     S
Cu344  N376    2.028   .     S
O345   C349    1.291   .     A
O346   C349    1.293   .     A
O347   C350    1.297   .     A
O348   C350    1.305   .     A
C349   C374    1.429   .     S
C350   C355    1.464   .     S
C351   H354    1.084   .     S
C351   C366    1.396   .     A
C351   C794    1.406   1_554 S
H352   C366    1.083   .     S
H353   C363    1.084   .     S
C355   C366    1.399   .     A
C355   C365    1.397   .     A
C356   N382    1.437   .     S
C356   C357    1.394   .     A
C356   C367    1.422   .     A
C357   C790    1.386   .     S
C358   H369    1.078   .     S
C358   C789    1.386   1_554 S
C358   C791    1.412   1_554 S
C359   C360    1.417   .     A
C359   C790    1.412   .     S
C359   C793    1.423   .     S
C360   C367    1.425   .     A
C360   C364    1.413   .     A
C361   C365    1.402   .     A
C361   C791    1.423   1_554 S
C361   C794    1.418   1_554 S
C362   C363    1.394   .     A
C362   C793    1.418   .     S
C362   C783    1.406   .     S
C363   C364    1.391   .     A
C364   H371    1.081   .     S
C365   H368    1.078   .     S
H370   C405    1.083   .     S
C372   H85     1.088   1_565 S
C372   C86     1.331   1_565 S
H375   C86     1.087   1_565 S
N376   N425    1.286   .     S
N376   N427    1.385   .     S
H378   N425    1.029   .     S
N379   O380    1.300   .     A
O381   N427    1.300   .     S
N382   O383    1.301   .     A
O384   N430    1.302   .     S
O385   Cu391   1.952   .     S
O385   C387    1.293   .     A
O386   C387    1.291   .     A
O386   Cu392   1.951   .     S
C387   C420    1.429   .     S
O388   Cu391   1.935   .     S
O388   C390    1.305   .     A
O389   Cu392   1.916   .     S
O389   C390    1.302   .     A
C390   C415    1.481   .     S
Cu391  Cu392   2.699   .     S
Cu391  O395    1.916   .     S
Cu391  N425    2.028   .     S
Cu391  O393    1.951   .     S
Cu392  O396    1.935   .     S
Cu392  O394    1.952   .     S
Cu392  N424    2.028   .     S
O393   C397    1.291   .     A
O394   C397    1.293   .     A
O395   C398    1.297   .     A
O396   C398    1.305   .     A
C397   C422    1.429   .     S
C398   C403    1.464   .     S
C399   H402    1.084   .     S
C399   C414    1.396   .     A
C399   C842    1.406   1_554 S
H400   C414    1.083   .     S
H401   C411    1.084   .     S
C403   C414    1.399   .     A
C403   C413    1.397   .     A
C404   N430    1.437   .     S
C404   C405    1.394   .     A
C404   C415    1.422   .     A
C405   C838    1.386   .     S
C406   H417    1.078   .     S
C406   C837    1.386   1_554 S
C406   C839    1.412   1_554 S
C407   C408    1.417   .     A
C407   C838    1.412   .     S
C407   C841    1.423   .     S
C408   C415    1.425   .     A
C408   C412    1.413   .     A
C409   C413    1.402   .     A
C409   C839    1.423   1_554 S
C409   C842    1.418   1_554 S
C410   C411    1.394   .     A
C410   C841    1.418   .     S
C410   C831    1.406   .     S
C411   C412    1.391   .     A
C412   H419    1.081   .     S
C413   H416    1.078   .     S
H418   C309    1.083   1_655 S
C420   H133    1.088   1_565 S
C420   C134    1.331   1_565 S
H423   C134    1.087   1_565 S
N424   N329    1.286   1_655 S
N424   N331    1.385   1_655 S
H426   N329    1.029   1_655 S
N427   O428    1.300   .     A
O429   N331    1.300   1_655 S
N430   O431    1.301   .     A
O432   N334    1.302   1_655 S
O433   Cu439   1.952   .     S
O433   C435    1.293   .     A
O434   C435    1.291   .     A
O434   Cu440   1.951   .     S
C435   C468    1.429   .     S
O436   Cu439   1.935   .     S
O436   C438    1.305   .     A
O437   Cu440   1.916   .     S
O437   C438    1.302   .     A
C438   C463    1.481   .     S
Cu439  Cu440   2.699   .     S
Cu439  O443    1.916   .     S
Cu439  N473    2.028   .     S
Cu439  O441    1.951   .     S
Cu440  O444    1.935   .     S
Cu440  O442    1.952   .     S
Cu440  N472    2.028   .     S
O441   C445    1.291   .     A
O442   C445    1.293   .     A
O443   C446    1.297   .     A
O444   C446    1.305   .     A
C445   C470    1.429   .     S
C446   C451    1.464   .     S
C447   H450    1.084   .     S
C447   C462    1.396   .     A
H448   C462    1.083   .     S
H449   C459    1.084   .     S
C451   C462    1.399   .     A
C451   C461    1.397   .     A
C452   N478    1.437   .     S
C452   C453    1.394   .     A
C452   C463    1.422   .     A
C453   C22     1.386   1_556 S
C453   H562    1.083   1_455 S
C454   H465    1.078   .     S
C455   C456    1.417   .     A
C455   C22     1.412   1_556 S
C455   C25     1.423   1_556 S
C456   C463    1.425   .     A
C456   C460    1.413   .     A
C457   C461    1.402   .     A
C458   C459    1.394   .     A
C458   C25     1.418   1_556 S
C458   C15     1.406   1_556 S
C459   C460    1.391   .     A
C460   H467    1.081   .     S
C461   H464    1.078   .     S
H466   C501    1.083   .     S
C468   H613    1.088   .     S
C468   C614    1.331   .     S
H469   C756    1.088   1_545 S
C470   C756    1.331   1_545 S
C470   H759    1.087   1_545 S
H471   C614    1.087   .     S
N472   N521    1.286   .     S
N472   N523    1.385   .     S
N473   N568    1.286   1_455 S
N473   H570    1.029   1_455 S
H474   N521    1.029   .     S
N475   O476    1.300   .     A
N475   N568    1.385   1_455 S
N475   O573    1.300   1_455 S
O477   N523    1.300   .     S
N478   O479    1.301   .     A
N478   O576    1.302   1_455 S
O480   N526    1.302   .     S
O481   Cu487   1.952   .     S
O481   C483    1.293   .     A
O482   C483    1.291   .     A
O482   Cu488   1.951   .     S
C483   C516    1.429   .     S
O484   Cu487   1.935   .     S
O484   C486    1.305   .     A
O485   Cu488   1.916   .     S
O485   C486    1.302   .     A
C486   C511    1.481   .     S
Cu487  Cu488   2.699   .     S
Cu487  O491    1.916   .     S
Cu487  N521    2.028   .     S
Cu487  O489    1.951   .     S
Cu488  O492    1.935   .     S
Cu488  O490    1.952   .     S
Cu488  N520    2.028   .     S
O489   C493    1.291   .     A
O490   C493    1.293   .     A
O491   C494    1.297   .     A
O492   C494    1.305   .     A
C493   C518    1.429   .     S
C494   C499    1.464   .     S
C495   H498    1.084   .     S
C495   C510    1.396   .     A
H496   C510    1.083   .     S
H497   C507    1.084   .     S
C499   C510    1.399   .     A
C499   C509    1.397   .     A
C500   N526    1.437   .     S
C500   C501    1.394   .     A
C500   C511    1.422   .     A
C501   C70     1.386   1_556 S
C502   H513    1.078   .     S
C503   C504    1.417   .     A
C503   C70     1.412   1_556 S
C503   C73     1.423   1_556 S
C504   C511    1.425   .     A
C504   C508    1.413   .     A
C505   C509    1.402   .     A
C506   C507    1.394   .     A
C506   C73     1.418   1_556 S
C506   C63     1.406   1_556 S
C507   C508    1.391   .     A
C508   H515    1.081   .     S
C509   H512    1.078   .     S
H514   C549    1.083   .     S
C516   H661    1.088   .     S
C516   C662    1.331   .     S
H517   C804    1.088   1_545 S
C518   C804    1.331   1_545 S
C518   H807    1.087   1_545 S
H519   C662    1.087   .     S
N520   N569    1.286   .     S
N520   N571    1.385   .     S
H522   N569    1.029   .     S
N523   O524    1.300   .     A
O525   N571    1.300   .     S
N526   O527    1.301   .     A
O528   N574    1.302   .     S
O529   Cu535   1.952   .     S
O529   C531    1.293   .     A
O530   C531    1.291   .     A
O530   Cu536   1.951   .     S
C531   C564    1.429   .     S
O532   Cu535   1.935   .     S
O532   C534    1.305   .     A
O533   Cu536   1.916   .     S
O533   C534    1.302   .     A
C534   C559    1.481   .     S
Cu535  Cu536   2.699   .     S
Cu535  O539    1.916   .     S
Cu535  N569    2.028   .     S
Cu535  O537    1.951   .     S
Cu536  O540    1.935   .     S
Cu536  O538    1.952   .     S
Cu536  N568    2.028   .     S
O537   C541    1.291   .     A
O538   C541    1.293   .     A
O539   C542    1.297   .     A
O540   C542    1.305   .     A
C541   C566    1.429   .     S
C542   C547    1.464   .     S
C543   H546    1.084   .     S
C543   C558    1.396   .     A
H544   C558    1.083   .     S
H545   C555    1.084   .     S
C547   C558    1.399   .     A
C547   C557    1.397   .     A
C548   N574    1.437   .     S
C548   C549    1.394   .     A
C548   C559    1.422   .     A
C549   C118    1.386   1_556 S
C550   H561    1.078   .     S
C551   C552    1.417   .     A
C551   C118    1.412   1_556 S
C551   C121    1.423   1_556 S
C552   C559    1.425   .     A
C552   C556    1.413   .     A
C553   C557    1.402   .     A
C554   C555    1.394   .     A
C554   C121    1.418   1_556 S
C554   C111    1.406   1_556 S
C555   C556    1.391   .     A
C556   H563    1.081   .     S
C557   H560    1.078   .     S
H562   C453    1.083   1_655 S
C564   H709    1.088   .     S
C564   C710    1.331   .     S
H565   C852    1.088   1_545 S
C566   C852    1.331   1_545 S
C566   H855    1.087   1_545 S
H567   C710    1.087   .     S
N568   N473    1.286   1_655 S
N568   N475    1.385   1_655 S
H570   N473    1.029   1_655 S
N571   O572    1.300   .     A
O573   N475    1.300   1_655 S
N574   O575    1.301   .     A
O576   N478    1.302   1_655 S
O577   Cu583   1.952   .     S
O577   C579    1.293   .     A
O578   C579    1.291   .     A
O578   Cu584   1.951   .     S
C579   C612    1.429   .     S
O580   Cu583   1.935   .     S
O580   C582    1.305   .     A
O581   Cu584   1.916   .     S
O581   C582    1.302   .     A
C582   C607    1.481   .     S
Cu583  Cu584   2.699   .     S
Cu583  O587    1.916   .     S
Cu583  N617    2.028   .     S
Cu583  O585    1.951   .     S
Cu584  O588    1.935   .     S
Cu584  O586    1.952   .     S
Cu584  N616    2.028   .     S
O585   C589    1.291   .     A
O586   C589    1.293   .     A
O587   C590    1.297   .     A
O588   C590    1.305   .     A
C589   C614    1.429   .     S
C590   C595    1.464   .     S
C591   H594    1.084   .     S
C591   C606    1.396   .     A
H592   C606    1.083   .     S
H593   C603    1.084   .     S
C595   C606    1.399   .     A
C595   C605    1.397   .     A
C596   N622    1.437   .     S
C596   C597    1.394   .     A
C596   C607    1.422   .     A
C597   C166    1.386   1_556 S
C597   H706    1.083   1_455 S
C598   H609    1.078   .     S
C599   C600    1.417   .     A
C599   C166    1.412   1_556 S
C599   C169    1.423   1_556 S
C600   C607    1.425   .     A
C600   C604    1.413   .     A
C601   C605    1.402   .     A
C602   C603    1.394   .     A
C602   C169    1.418   1_556 S
C602   C159    1.406   1_556 S
C603   C604    1.391   .     A
C604   H611    1.081   .     S
C605   H608    1.078   .     S
H610   C645    1.083   .     S
C612   H757    1.088   .     S
C612   C758    1.331   .     S
H615   C758    1.087   .     S
N616   N665    1.286   .     S
N616   N667    1.385   .     S
N617   N712    1.286   1_455 S
N617   H714    1.029   1_455 S
H618   N665    1.029   .     S
N619   O620    1.300   .     A
N619   N712    1.385   1_455 S
N619   O717    1.300   1_455 S
O621   N667    1.300   .     S
N622   O623    1.301   .     A
N622   O720    1.302   1_455 S
O624   N670    1.302   .     S
O625   Cu631   1.952   .     S
O625   C627    1.293   .     A
O626   C627    1.291   .     A
O626   Cu632   1.951   .     S
C627   C660    1.429   .     S
O628   Cu631   1.935   .     S
O628   C630    1.305   .     A
O629   Cu632   1.916   .     S
O629   C630    1.302   .     A
C630   C655    1.481   .     S
Cu631  Cu632   2.699   .     S
Cu631  O635    1.916   .     S
Cu631  N665    2.028   .     S
Cu631  O633    1.951   .     S
Cu632  O636    1.935   .     S
Cu632  O634    1.952   .     S
Cu632  N664    2.028   .     S
O633   C637    1.291   .     A
O634   C637    1.293   .     A
O635   C638    1.297   .     A
O636   C638    1.305   .     A
C637   C662    1.429   .     S
C638   C643    1.464   .     S
C639   H642    1.084   .     S
C639   C654    1.396   .     A
H640   C654    1.083   .     S
H641   C651    1.084   .     S
C643   C654    1.399   .     A
C643   C653    1.397   .     A
C644   N670    1.437   .     S
C644   C645    1.394   .     A
C644   C655    1.422   .     A
C645   C214    1.386   1_556 S
C646   H657    1.078   .     S
C647   C648    1.417   .     A
C647   C214    1.412   1_556 S
C647   C217    1.423   1_556 S
C648   C655    1.425   .     A
C648   C652    1.413   .     A
C649   C653    1.402   .     A
C650   C651    1.394   .     A
C650   C217    1.418   1_556 S
C650   C207    1.406   1_556 S
C651   C652    1.391   .     A
C652   H659    1.081   .     S
C653   H656    1.078   .     S
H658   C693    1.083   .     S
C660   H805    1.088   .     S
C660   C806    1.331   .     S
H663   C806    1.087   .     S
N664   N713    1.286   .     S
N664   N715    1.385   .     S
H666   N713    1.029   .     S
N667   O668    1.300   .     A
O669   N715    1.300   .     S
N670   O671    1.301   .     A
O672   N718    1.302   .     S
O673   Cu679   1.952   .     S
O673   C675    1.293   .     A
O674   C675    1.291   .     A
O674   Cu680   1.951   .     S
C675   C708    1.429   .     S
O676   Cu679   1.935   .     S
O676   C678    1.305   .     A
O677   Cu680   1.916   .     S
O677   C678    1.302   .     A
C678   C703    1.481   .     S
Cu679  Cu680   2.699   .     S
Cu679  O683    1.916   .     S
Cu679  N713    2.028   .     S
Cu679  O681    1.951   .     S
Cu680  O684    1.935   .     S
Cu680  O682    1.952   .     S
Cu680  N712    2.028   .     S
O681   C685    1.291   .     A
O682   C685    1.293   .     A
O683   C686    1.297   .     A
O684   C686    1.305   .     A
C685   C710    1.429   .     S
C686   C691    1.464   .     S
C687   H690    1.084   .     S
C687   C702    1.396   .     A
H688   C702    1.083   .     S
H689   C699    1.084   .     S
C691   C702    1.399   .     A
C691   C701    1.397   .     A
C692   N718    1.437   .     S
C692   C693    1.394   .     A
C692   C703    1.422   .     A
C693   C262    1.386   1_556 S
C694   H705    1.078   .     S
C695   C696    1.417   .     A
C695   C262    1.412   1_556 S
C695   C265    1.423   1_556 S
C696   C703    1.425   .     A
C696   C700    1.413   .     A
C697   C701    1.402   .     A
C698   C699    1.394   .     A
C698   C265    1.418   1_556 S
C698   C255    1.406   1_556 S
C699   C700    1.391   .     A
C700   H707    1.081   .     S
C701   H704    1.078   .     S
H706   C597    1.083   1_655 S
C708   H853    1.088   .     S
C708   C854    1.331   .     S
H711   C854    1.087   .     S
N712   N617    1.286   1_655 S
N712   N619    1.385   1_655 S
H714   N617    1.029   1_655 S
N715   O716    1.300   .     A
O717   N619    1.300   1_655 S
N718   O719    1.301   .     A
O720   N622    1.302   1_655 S
O721   Cu727   1.952   .     S
O721   C723    1.293   .     A
O722   C723    1.291   .     A
O722   Cu728   1.951   .     S
C723   C756    1.429   .     S
O724   Cu727   1.935   .     S
O724   C726    1.305   .     A
O725   Cu728   1.916   .     S
O725   C726    1.302   .     A
C726   C751    1.481   .     S
Cu727  Cu728   2.699   .     S
Cu727  O731    1.916   .     S
Cu727  N761    2.028   .     S
Cu727  O729    1.951   .     S
Cu728  O732    1.935   .     S
Cu728  O730    1.952   .     S
Cu728  N760    2.028   .     S
O729   C733    1.291   .     A
O730   C733    1.293   .     A
O731   C734    1.297   .     A
O732   C734    1.305   .     A
C733   C758    1.429   .     S
C734   C739    1.464   .     S
C735   H738    1.084   .     S
C735   C750    1.396   .     A
H736   C750    1.083   .     S
H737   C747    1.084   .     S
C739   C750    1.399   .     A
C739   C749    1.397   .     A
C740   N766    1.437   .     S
C740   C741    1.394   .     A
C740   C751    1.422   .     A
C741   C310    1.386   1_556 S
C741   H850    1.083   1_455 S
C742   H753    1.078   .     S
C743   C744    1.417   .     A
C743   C310    1.412   1_556 S
C743   C313    1.423   1_556 S
C744   C751    1.425   .     A
C744   C748    1.413   .     A
C745   C749    1.402   .     A
C746   C747    1.394   .     A
C746   C313    1.418   1_556 S
C746   C303    1.406   1_556 S
C747   C748    1.391   .     A
C748   H755    1.081   .     S
C749   H752    1.078   .     S
H754   C789    1.083   .     S
C756   H469    1.088   1_565 S
C756   C470    1.331   1_565 S
H759   C470    1.087   1_565 S
N760   N809    1.286   .     S
N760   N811    1.385   .     S
N761   N856    1.286   1_455 S
N761   H858    1.029   1_455 S
H762   N809    1.029   .     S
N763   O764    1.300   .     A
N763   N856    1.385   1_455 S
N763   O861    1.300   1_455 S
O765   N811    1.300   .     S
N766   O767    1.301   .     A
N766   O864    1.302   1_455 S
O768   N814    1.302   .     S
O769   Cu775   1.952   .     S
O769   C771    1.293   .     A
O770   C771    1.291   .     A
O770   Cu776   1.951   .     S
C771   C804    1.429   .     S
O772   Cu775   1.935   .     S
O772   C774    1.305   .     A
O773   Cu776   1.916   .     S
O773   C774    1.302   .     A
C774   C799    1.481   .     S
Cu775  Cu776   2.699   .     S
Cu775  O779    1.916   .     S
Cu775  N809    2.028   .     S
Cu775  O777    1.951   .     S
Cu776  O780    1.935   .     S
Cu776  O778    1.952   .     S
Cu776  N808    2.028   .     S
O777   C781    1.291   .     A
O778   C781    1.293   .     A
O779   C782    1.297   .     A
O780   C782    1.305   .     A
C781   C806    1.429   .     S
C782   C787    1.464   .     S
C783   H786    1.084   .     S
C783   C798    1.396   .     A
H784   C798    1.083   .     S
H785   C795    1.084   .     S
C787   C798    1.399   .     A
C787   C797    1.397   .     A
C788   N814    1.437   .     S
C788   C789    1.394   .     A
C788   C799    1.422   .     A
C789   C358    1.386   1_556 S
C790   H801    1.078   .     S
C791   C792    1.417   .     A
C791   C358    1.412   1_556 S
C791   C361    1.423   1_556 S
C792   C799    1.425   .     A
C792   C796    1.413   .     A
C793   C797    1.402   .     A
C794   C795    1.394   .     A
C794   C361    1.418   1_556 S
C794   C351    1.406   1_556 S
C795   C796    1.391   .     A
C796   H803    1.081   .     S
C797   H800    1.078   .     S
H802   C837    1.083   .     S
C804   H517    1.088   1_565 S
C804   C518    1.331   1_565 S
H807   C518    1.087   1_565 S
N808   N857    1.286   .     S
N808   N859    1.385   .     S
H810   N857    1.029   .     S
N811   O812    1.300   .     A
O813   N859    1.300   .     S
N814   O815    1.301   .     A
O816   N862    1.302   .     S
O817   Cu823   1.952   .     S
O817   C819    1.293   .     A
O818   C819    1.291   .     A
O818   Cu824   1.951   .     S
C819   C852    1.429   .     S
O820   Cu823   1.935   .     S
O820   C822    1.305   .     A
O821   Cu824   1.916   .     S
O821   C822    1.302   .     A
C822   C847    1.481   .     S
Cu823  Cu824   2.699   .     S
Cu823  O827    1.916   .     S
Cu823  N857    2.028   .     S
Cu823  O825    1.951   .     S
Cu824  O828    1.935   .     S
Cu824  O826    1.952   .     S
Cu824  N856    2.028   .     S
O825   C829    1.291   .     A
O826   C829    1.293   .     A
O827   C830    1.297   .     A
O828   C830    1.305   .     A
C829   C854    1.429   .     S
C830   C835    1.464   .     S
C831   H834    1.084   .     S
C831   C846    1.396   .     A
H832   C846    1.083   .     S
H833   C843    1.084   .     S
C835   C846    1.399   .     A
C835   C845    1.397   .     A
C836   N862    1.437   .     S
C836   C837    1.394   .     A
C836   C847    1.422   .     A
C837   C406    1.386   1_556 S
C838   H849    1.078   .     S
C839   C840    1.417   .     A
C839   C406    1.412   1_556 S
C839   C409    1.423   1_556 S
C840   C847    1.425   .     A
C840   C844    1.413   .     A
C841   C845    1.402   .     A
C842   C843    1.394   .     A
C842   C409    1.418   1_556 S
C842   C399    1.406   1_556 S
C843   C844    1.391   .     A
C844   H851    1.081   .     S
C845   H848    1.078   .     S
H850   C741    1.083   1_655 S
C852   H565    1.088   1_565 S
C852   C566    1.331   1_565 S
H855   C566    1.087   1_565 S
N856   N761    1.286   1_655 S
N856   N763    1.385   1_655 S
H858   N761    1.029   1_655 S
N859   O860    1.300   .     A
O861   N763    1.300   1_655 S
N862   O863    1.301   .     A
O864   N766    1.302   1_655 S
