data_str_m2_o10_o18_pcu_sym.16
_audit_creation_date              2020-01-03
_audit_creation_method            'Materials Studio'
_symmetry_space_group_name_H-M    'P1'
_symmetry_Int_Tables_number       1
_symmetry_cell_setting            triclinic
loop_
_symmetry_equiv_pos_as_xyz
  x,y,z
_cell_length_a                    22.2908
_cell_length_b                    26.0121
_cell_length_c                    31.4273
_cell_angle_alpha                 94.1288
_cell_angle_beta                  74.8833
_cell_angle_gamma                 103.2814
loop_
_atom_site_label
_atom_site_type_symbol
_atom_site_fract_x
_atom_site_fract_y
_atom_site_fract_z
_atom_site_U_iso_or_equiv
_atom_site_adp_type
_atom_site_occupancy
C1     C     0.18172   0.26675   0.25133   0.00000  Uiso   1.00
C2     C     0.20550   0.17120   0.16673   0.00000  Uiso   1.00
C3     C     0.10360   0.15828   0.38141   0.00000  Uiso   1.00
C4     C     0.22899   0.18152   0.11930   0.00000  Uiso   1.00
C5     C     0.02021   0.12580   0.44598   0.00000  Uiso   1.00
C6     C     0.30186   0.23434   0.05921   0.00000  Uiso   1.00
C7     C     0.04007   0.13490   0.40078   0.00000  Uiso   1.00
C8     C     0.28764   0.21545   0.10194   0.00000  Uiso   1.00
C9     C     0.14606   0.17519   0.40796   0.00000  Uiso   1.00
C10    C     0.18671   0.16397   0.09277   0.00000  Uiso   1.00
C11    C     0.12653   0.16873   0.45389   0.00000  Uiso   1.00
C12    C     0.15157   0.06658   0.24874   0.00000  Uiso   1.00
C13    C     0.19818   0.18443   0.05051   0.00000  Uiso   1.00
C14    C     0.06330   0.14106   0.47280   0.00000  Uiso   1.00
C15    C     0.25725   0.22000   0.03350   0.00000  Uiso   1.00
C16    C     0.16919   0.18760   0.48095   0.00000  Uiso   1.00
C17    C     0.15204   0.17113   0.02522   0.00000  Uiso   1.00
C18    C     0.30358   0.07220   0.07189   0.00000  Uiso   1.00
C19    C     0.23912   0.03341   0.07788   0.00000  Uiso   1.00
C20    C     0.22070   0.00388   0.12125   0.00000  Uiso   1.00
C21    C     0.03445   0.27167   0.44432   0.00000  Uiso   1.00
C22    C     0.07914   0.32232   0.42347   0.00000  Uiso   1.00
C23    C     0.08841   0.14442   0.04353   0.00000  Uiso   1.00
C24    C     0.13345   0.31035   0.38592   0.00000  Uiso   1.00
C25    C     0.22667   0.22519   0.46582   0.00000  Uiso   1.00
C26    C     0.04381   0.12888   0.01783   0.00000  Uiso   1.00
C27    C     0.27014   0.24181   0.49169   0.00000  Uiso   1.00
C28    C     0.19017   0.32275   0.25204   0.00000  Uiso   1.00
C29    C     0.14305   0.01057   0.24818   0.00000  Uiso   1.00
C30    C     0.12783   0.16272   0.33333   0.00000  Uiso   1.00
Cu31   Cu    0.10737   0.16108   0.24517   0.00000  Uiso   1.00
Cu32   Cu    0.22596   0.17225   0.25484   0.00000  Uiso   1.00
H33    H     0.14443   0.13460   0.10644   0.00000  Uiso   1.00
H34    H     0.09772   0.32000   0.24450   0.00000  Uiso   1.00
H35    H     0.00125   0.20510   0.28457   0.00000  Uiso   1.00
H36    H     0.33208   0.12823   0.21543   0.00000  Uiso   1.00
H37    H     0.30272   0.09714   0.10222   0.00000  Uiso   1.00
H38    H     0.00778   0.04885   0.06693   0.00000  Uiso   1.00
H39    H     0.20168   0.05509   0.07765   0.00000  Uiso   1.00
H40    H     0.24137   0.00453   0.04999   0.00000  Uiso   1.00
H41    H     0.25883   0.31740   0.12351   0.00000  Uiso   1.00
H42    H     0.17602   0.30682   0.12325   0.00000  Uiso   1.00
H43    H     0.21281   0.03183   0.14953   0.00000  Uiso   1.00
H44    H     0.19520   0.19162   0.39193   0.00000  Uiso   1.00
H45    H     0.01509   0.24756   0.41814   0.00000  Uiso   1.00
H46    H     0.06201   0.24920   0.45773   0.00000  Uiso   1.00
H47    H     0.05168   0.01199   0.41040   0.00000  Uiso   1.00
H48    H     0.09941   0.01355   0.44895   0.00000  Uiso   1.00
H49    H     0.16334   0.28953   0.39863   0.00000  Uiso   1.00
H50    H     0.16378   0.01457   0.37078   0.00000  Uiso   1.00
H51    H     0.11436   0.28548   0.36013   0.00000  Uiso   1.00
H52    H     0.32097   0.22947   0.12208   0.00000  Uiso   1.00
H53    H     0.00638   0.12168   0.38079   0.00000  Uiso   1.00
H54    H     0.30454   0.10589   0.45962   0.00000  Uiso   1.00
H55    H     0.01384   0.26133   0.04681   0.00000  Uiso   1.00
H56    H     0.07150   0.13846   0.07845   0.00000  Uiso   1.00
H57    H     0.23683   0.24537   0.43506   0.00000  Uiso   1.00
H58    H     0.23551   0.01333   0.25570   0.00000  Uiso   1.00
N59    N     0.31506   0.18068   0.26212   0.00000  Uiso   1.00
N60    N     0.01827   0.15265   0.23788   0.00000  Uiso   1.00
O61    O     0.12815   0.23809   0.24686   0.00000  Uiso   1.00
O62    O     0.31954   0.28546   0.47918   0.00000  Uiso   1.00
O63    O     0.20518   0.09524   0.25314   0.00000  Uiso   1.00
O64    O     0.22829   0.24753   0.25503   0.00000  Uiso   1.00
O65    O     0.10504   0.08580   0.24498   0.00000  Uiso   1.00
O66    O     0.08851   0.15930   0.30855   0.00000  Uiso   1.00
O67    O     0.24482   0.17403   0.19146   0.00000  Uiso   1.00
O68    O     0.18866   0.16874   0.31671   0.00000  Uiso   1.00
O69    O     0.14468   0.16460   0.18329   0.00000  Uiso   1.00
O70    O     0.31329   0.10464   0.03542   0.00000  Uiso   1.00
C71    C     0.51506   0.26675   0.25133   0.00000  Uiso   1.00
C72    C     0.53883   0.17120   0.16673   0.00000  Uiso   1.00
C73    C     0.43694   0.15828   0.38141   0.00000  Uiso   1.00
C74    C     0.56233   0.18152   0.11930   0.00000  Uiso   1.00
C75    C     0.35354   0.12580   0.44598   0.00000  Uiso   1.00
C76    C     0.63519   0.23434   0.05921   0.00000  Uiso   1.00
C77    C     0.37340   0.13490   0.40078   0.00000  Uiso   1.00
C78    C     0.62097   0.21545   0.10194   0.00000  Uiso   1.00
C79    C     0.47940   0.17519   0.40796   0.00000  Uiso   1.00
C80    C     0.52005   0.16397   0.09277   0.00000  Uiso   1.00
C81    C     0.45986   0.16873   0.45389   0.00000  Uiso   1.00
C82    C     0.48491   0.06658   0.24874   0.00000  Uiso   1.00
C83    C     0.53151   0.18443   0.05051   0.00000  Uiso   1.00
C84    C     0.39663   0.14106   0.47280   0.00000  Uiso   1.00
C85    C     0.59058   0.22000   0.03350   0.00000  Uiso   1.00
C86    C     0.50252   0.18760   0.48095   0.00000  Uiso   1.00
C87    C     0.48537   0.17113   0.02522   0.00000  Uiso   1.00
C88    C     0.63691   0.07220   0.07189   0.00000  Uiso   1.00
C89    C     0.57245   0.03341   0.07788   0.00000  Uiso   1.00
C90    C     0.55403   0.00388   0.12125   0.00000  Uiso   1.00
C91    C     0.36778   0.27167   0.44432   0.00000  Uiso   1.00
C92    C     0.41247   0.32232   0.42347   0.00000  Uiso   1.00
C93    C     0.42174   0.14442   0.04353   0.00000  Uiso   1.00
C94    C     0.46678   0.31035   0.38592   0.00000  Uiso   1.00
C95    C     0.56000   0.22519   0.46582   0.00000  Uiso   1.00
C96    C     0.37714   0.12888   0.01783   0.00000  Uiso   1.00
C97    C     0.60347   0.24181   0.49169   0.00000  Uiso   1.00
C98    C     0.52351   0.32275   0.25204   0.00000  Uiso   1.00
C99    C     0.47639   0.01057   0.24818   0.00000  Uiso   1.00
C100   C     0.46116   0.16272   0.33333   0.00000  Uiso   1.00
Cu101  Cu    0.44071   0.16108   0.24517   0.00000  Uiso   1.00
Cu102  Cu    0.55929   0.17225   0.25484   0.00000  Uiso   1.00
H103   H     0.47776   0.13460   0.10644   0.00000  Uiso   1.00
H104   H     0.43106   0.32000   0.24450   0.00000  Uiso   1.00
H105   H     0.33459   0.20510   0.28457   0.00000  Uiso   1.00
H106   H     0.66542   0.12823   0.21543   0.00000  Uiso   1.00
H107   H     0.63605   0.09714   0.10222   0.00000  Uiso   1.00
H108   H     0.34112   0.04885   0.06693   0.00000  Uiso   1.00
H109   H     0.53501   0.05509   0.07765   0.00000  Uiso   1.00
H110   H     0.57470   0.00453   0.04999   0.00000  Uiso   1.00
H111   H     0.59217   0.31740   0.12351   0.00000  Uiso   1.00
H112   H     0.50936   0.30682   0.12325   0.00000  Uiso   1.00
H113   H     0.54615   0.03183   0.14953   0.00000  Uiso   1.00
H114   H     0.52853   0.19162   0.39193   0.00000  Uiso   1.00
H115   H     0.34842   0.24756   0.41814   0.00000  Uiso   1.00
H116   H     0.39534   0.24920   0.45773   0.00000  Uiso   1.00
H117   H     0.38501   0.01199   0.41040   0.00000  Uiso   1.00
H118   H     0.43274   0.01355   0.44895   0.00000  Uiso   1.00
H119   H     0.49667   0.28953   0.39863   0.00000  Uiso   1.00
H120   H     0.49711   0.01457   0.37078   0.00000  Uiso   1.00
H121   H     0.44769   0.28548   0.36013   0.00000  Uiso   1.00
H122   H     0.65431   0.22947   0.12208   0.00000  Uiso   1.00
H123   H     0.33971   0.12168   0.38079   0.00000  Uiso   1.00
H124   H     0.63787   0.10589   0.45962   0.00000  Uiso   1.00
H125   H     0.34718   0.26133   0.04681   0.00000  Uiso   1.00
H126   H     0.40484   0.13846   0.07845   0.00000  Uiso   1.00
H127   H     0.57017   0.24537   0.43506   0.00000  Uiso   1.00
H128   H     0.56884   0.01333   0.25570   0.00000  Uiso   1.00
N129   N     0.64839   0.18068   0.26212   0.00000  Uiso   1.00
N130   N     0.35161   0.15265   0.23788   0.00000  Uiso   1.00
O131   O     0.46148   0.23809   0.24686   0.00000  Uiso   1.00
O132   O     0.65287   0.28546   0.47918   0.00000  Uiso   1.00
O133   O     0.53852   0.09524   0.25314   0.00000  Uiso   1.00
O134   O     0.56163   0.24753   0.25503   0.00000  Uiso   1.00
O135   O     0.43837   0.08580   0.24498   0.00000  Uiso   1.00
O136   O     0.42185   0.15930   0.30855   0.00000  Uiso   1.00
O137   O     0.57815   0.17403   0.19146   0.00000  Uiso   1.00
O138   O     0.52199   0.16874   0.31671   0.00000  Uiso   1.00
O139   O     0.47801   0.16460   0.18329   0.00000  Uiso   1.00
O140   O     0.64662   0.10464   0.03542   0.00000  Uiso   1.00
C141   C     0.84839   0.26675   0.25133   0.00000  Uiso   1.00
C142   C     0.87216   0.17120   0.16673   0.00000  Uiso   1.00
C143   C     0.77027   0.15828   0.38141   0.00000  Uiso   1.00
C144   C     0.89566   0.18152   0.11930   0.00000  Uiso   1.00
C145   C     0.68688   0.12580   0.44598   0.00000  Uiso   1.00
C146   C     0.96853   0.23434   0.05921   0.00000  Uiso   1.00
C147   C     0.70674   0.13490   0.40078   0.00000  Uiso   1.00
C148   C     0.95430   0.21545   0.10194   0.00000  Uiso   1.00
C149   C     0.81273   0.17519   0.40796   0.00000  Uiso   1.00
C150   C     0.85338   0.16397   0.09277   0.00000  Uiso   1.00
C151   C     0.79320   0.16873   0.45389   0.00000  Uiso   1.00
C152   C     0.81824   0.06658   0.24874   0.00000  Uiso   1.00
C153   C     0.86485   0.18443   0.05051   0.00000  Uiso   1.00
C154   C     0.72997   0.14106   0.47280   0.00000  Uiso   1.00
C155   C     0.92392   0.22000   0.03350   0.00000  Uiso   1.00
C156   C     0.83585   0.18760   0.48095   0.00000  Uiso   1.00
C157   C     0.81871   0.17113   0.02522   0.00000  Uiso   1.00
C158   C     0.97024   0.07220   0.07189   0.00000  Uiso   1.00
C159   C     0.90578   0.03341   0.07788   0.00000  Uiso   1.00
C160   C     0.88737   0.00388   0.12125   0.00000  Uiso   1.00
C161   C     0.70111   0.27167   0.44432   0.00000  Uiso   1.00
C162   C     0.74580   0.32232   0.42347   0.00000  Uiso   1.00
C163   C     0.75508   0.14442   0.04353   0.00000  Uiso   1.00
C164   C     0.80012   0.31035   0.38592   0.00000  Uiso   1.00
C165   C     0.89334   0.22519   0.46582   0.00000  Uiso   1.00
C166   C     0.71047   0.12888   0.01783   0.00000  Uiso   1.00
C167   C     0.93680   0.24181   0.49169   0.00000  Uiso   1.00
C168   C     0.85684   0.32275   0.25204   0.00000  Uiso   1.00
C169   C     0.80972   0.01057   0.24818   0.00000  Uiso   1.00
C170   C     0.79449   0.16272   0.33333   0.00000  Uiso   1.00
Cu171  Cu    0.77404   0.16108   0.24517   0.00000  Uiso   1.00
Cu172  Cu    0.89263   0.17225   0.25484   0.00000  Uiso   1.00
H173   H     0.81110   0.13460   0.10644   0.00000  Uiso   1.00
H174   H     0.76439   0.32000   0.24450   0.00000  Uiso   1.00
H175   H     0.66792   0.20510   0.28457   0.00000  Uiso   1.00
H176   H     0.99875   0.12823   0.21543   0.00000  Uiso   1.00
H177   H     0.96939   0.09714   0.10222   0.00000  Uiso   1.00
H178   H     0.67445   0.04885   0.06693   0.00000  Uiso   1.00
H179   H     0.86835   0.05509   0.07765   0.00000  Uiso   1.00
H180   H     0.90803   0.00453   0.04999   0.00000  Uiso   1.00
H181   H     0.92550   0.31740   0.12351   0.00000  Uiso   1.00
H182   H     0.84269   0.30682   0.12325   0.00000  Uiso   1.00
H183   H     0.87948   0.03183   0.14953   0.00000  Uiso   1.00
H184   H     0.86187   0.19162   0.39193   0.00000  Uiso   1.00
H185   H     0.68176   0.24756   0.41814   0.00000  Uiso   1.00
H186   H     0.72867   0.24920   0.45773   0.00000  Uiso   1.00
H187   H     0.71834   0.01199   0.41040   0.00000  Uiso   1.00
H188   H     0.76607   0.01355   0.44895   0.00000  Uiso   1.00
H189   H     0.83001   0.28953   0.39863   0.00000  Uiso   1.00
H190   H     0.83045   0.01457   0.37078   0.00000  Uiso   1.00
H191   H     0.78102   0.28548   0.36013   0.00000  Uiso   1.00
H192   H     0.98764   0.22947   0.12208   0.00000  Uiso   1.00
H193   H     0.67305   0.12168   0.38079   0.00000  Uiso   1.00
H194   H     0.97120   0.10589   0.45962   0.00000  Uiso   1.00
H195   H     0.68051   0.26133   0.04681   0.00000  Uiso   1.00
H196   H     0.73817   0.13846   0.07845   0.00000  Uiso   1.00
H197   H     0.90350   0.24537   0.43506   0.00000  Uiso   1.00
H198   H     0.90218   0.01333   0.25570   0.00000  Uiso   1.00
N199   N     0.98173   0.18068   0.26212   0.00000  Uiso   1.00
N200   N     0.68494   0.15265   0.23788   0.00000  Uiso   1.00
O201   O     0.79482   0.23809   0.24686   0.00000  Uiso   1.00
O202   O     0.98620   0.28546   0.47918   0.00000  Uiso   1.00
O203   O     0.87185   0.09524   0.25314   0.00000  Uiso   1.00
O204   O     0.89496   0.24753   0.25503   0.00000  Uiso   1.00
O205   O     0.77171   0.08580   0.24498   0.00000  Uiso   1.00
O206   O     0.75518   0.15930   0.30855   0.00000  Uiso   1.00
O207   O     0.91149   0.17403   0.19146   0.00000  Uiso   1.00
O208   O     0.85532   0.16874   0.31671   0.00000  Uiso   1.00
O209   O     0.81134   0.16460   0.18329   0.00000  Uiso   1.00
O210   O     0.97996   0.10464   0.03542   0.00000  Uiso   1.00
C211   C     0.18172   0.60008   0.25133   0.00000  Uiso   1.00
C212   C     0.20550   0.50453   0.16673   0.00000  Uiso   1.00
C213   C     0.10360   0.49162   0.38141   0.00000  Uiso   1.00
C214   C     0.22899   0.51486   0.11930   0.00000  Uiso   1.00
C215   C     0.02021   0.45913   0.44598   0.00000  Uiso   1.00
C216   C     0.30186   0.56768   0.05921   0.00000  Uiso   1.00
C217   C     0.04007   0.46823   0.40078   0.00000  Uiso   1.00
C218   C     0.28764   0.54878   0.10194   0.00000  Uiso   1.00
C219   C     0.14606   0.50853   0.40796   0.00000  Uiso   1.00
C220   C     0.18671   0.49731   0.09277   0.00000  Uiso   1.00
C221   C     0.12653   0.50206   0.45389   0.00000  Uiso   1.00
C222   C     0.15157   0.39992   0.24874   0.00000  Uiso   1.00
C223   C     0.19818   0.51777   0.05051   0.00000  Uiso   1.00
C224   C     0.06330   0.47439   0.47280   0.00000  Uiso   1.00
C225   C     0.25725   0.55334   0.03350   0.00000  Uiso   1.00
C226   C     0.16919   0.52093   0.48095   0.00000  Uiso   1.00
C227   C     0.15204   0.50447   0.02522   0.00000  Uiso   1.00
C228   C     0.30358   0.40553   0.07189   0.00000  Uiso   1.00
C229   C     0.23912   0.36674   0.07788   0.00000  Uiso   1.00
C230   C     0.22070   0.33721   0.12125   0.00000  Uiso   1.00
C231   C     0.03445   0.60501   0.44432   0.00000  Uiso   1.00
C232   C     0.07914   0.65565   0.42347   0.00000  Uiso   1.00
C233   C     0.08841   0.47775   0.04353   0.00000  Uiso   1.00
C234   C     0.13345   0.64368   0.38592   0.00000  Uiso   1.00
C235   C     0.22667   0.55853   0.46582   0.00000  Uiso   1.00
C236   C     0.04381   0.46221   0.01783   0.00000  Uiso   1.00
C237   C     0.27014   0.57514   0.49169   0.00000  Uiso   1.00
C238   C     0.19017   0.65608   0.25204   0.00000  Uiso   1.00
C239   C     0.14305   0.34391   0.24818   0.00000  Uiso   1.00
C240   C     0.12783   0.49605   0.33333   0.00000  Uiso   1.00
Cu241  Cu    0.10737   0.49441   0.24517   0.00000  Uiso   1.00
Cu242  Cu    0.22596   0.50559   0.25484   0.00000  Uiso   1.00
H243   H     0.14443   0.46793   0.10644   0.00000  Uiso   1.00
H244   H     0.09772   0.65333   0.24450   0.00000  Uiso   1.00
H245   H     0.00125   0.53844   0.28457   0.00000  Uiso   1.00
H246   H     0.33208   0.46157   0.21543   0.00000  Uiso   1.00
H247   H     0.30272   0.43048   0.10222   0.00000  Uiso   1.00
H248   H     0.00778   0.38219   0.06693   0.00000  Uiso   1.00
H249   H     0.20168   0.38843   0.07765   0.00000  Uiso   1.00
H250   H     0.24137   0.33786   0.04999   0.00000  Uiso   1.00
H251   H     0.25883   0.65073   0.12351   0.00000  Uiso   1.00
H252   H     0.17602   0.64016   0.12325   0.00000  Uiso   1.00
H253   H     0.21281   0.36516   0.14953   0.00000  Uiso   1.00
H254   H     0.19520   0.52496   0.39193   0.00000  Uiso   1.00
H255   H     0.01509   0.58089   0.41814   0.00000  Uiso   1.00
H256   H     0.06201   0.58253   0.45773   0.00000  Uiso   1.00
H257   H     0.05168   0.34532   0.41040   0.00000  Uiso   1.00
H258   H     0.09941   0.34689   0.44895   0.00000  Uiso   1.00
H259   H     0.16334   0.62286   0.39863   0.00000  Uiso   1.00
H260   H     0.16378   0.34790   0.37078   0.00000  Uiso   1.00
H261   H     0.11436   0.61881   0.36013   0.00000  Uiso   1.00
H262   H     0.32097   0.56280   0.12208   0.00000  Uiso   1.00
H263   H     0.00638   0.45502   0.38079   0.00000  Uiso   1.00
H264   H     0.30454   0.43922   0.45962   0.00000  Uiso   1.00
H265   H     0.01384   0.59466   0.04681   0.00000  Uiso   1.00
H266   H     0.07150   0.47179   0.07845   0.00000  Uiso   1.00
H267   H     0.23683   0.57870   0.43506   0.00000  Uiso   1.00
H268   H     0.23551   0.34666   0.25570   0.00000  Uiso   1.00
N269   N     0.31506   0.51401   0.26212   0.00000  Uiso   1.00
N270   N     0.01827   0.48599   0.23788   0.00000  Uiso   1.00
O271   O     0.12815   0.57142   0.24686   0.00000  Uiso   1.00
O272   O     0.31954   0.61879   0.47918   0.00000  Uiso   1.00
O273   O     0.20518   0.42858   0.25314   0.00000  Uiso   1.00
O274   O     0.22829   0.58086   0.25503   0.00000  Uiso   1.00
O275   O     0.10504   0.41914   0.24498   0.00000  Uiso   1.00
O276   O     0.08851   0.49263   0.30855   0.00000  Uiso   1.00
O277   O     0.24482   0.50737   0.19146   0.00000  Uiso   1.00
O278   O     0.18866   0.50207   0.31671   0.00000  Uiso   1.00
O279   O     0.14468   0.49793   0.18329   0.00000  Uiso   1.00
O280   O     0.31329   0.43798   0.03542   0.00000  Uiso   1.00
C281   C     0.51506   0.60008   0.25133   0.00000  Uiso   1.00
C282   C     0.53883   0.50453   0.16673   0.00000  Uiso   1.00
C283   C     0.43694   0.49162   0.38141   0.00000  Uiso   1.00
C284   C     0.56233   0.51486   0.11930   0.00000  Uiso   1.00
C285   C     0.35354   0.45913   0.44598   0.00000  Uiso   1.00
C286   C     0.63519   0.56768   0.05921   0.00000  Uiso   1.00
C287   C     0.37340   0.46823   0.40078   0.00000  Uiso   1.00
C288   C     0.62097   0.54878   0.10194   0.00000  Uiso   1.00
C289   C     0.47940   0.50853   0.40796   0.00000  Uiso   1.00
C290   C     0.52005   0.49731   0.09277   0.00000  Uiso   1.00
C291   C     0.45986   0.50206   0.45389   0.00000  Uiso   1.00
C292   C     0.48491   0.39992   0.24874   0.00000  Uiso   1.00
C293   C     0.53151   0.51777   0.05051   0.00000  Uiso   1.00
C294   C     0.39663   0.47439   0.47280   0.00000  Uiso   1.00
C295   C     0.59058   0.55334   0.03350   0.00000  Uiso   1.00
C296   C     0.50252   0.52093   0.48095   0.00000  Uiso   1.00
C297   C     0.48537   0.50447   0.02522   0.00000  Uiso   1.00
C298   C     0.63691   0.40553   0.07189   0.00000  Uiso   1.00
C299   C     0.57245   0.36674   0.07788   0.00000  Uiso   1.00
C300   C     0.55403   0.33721   0.12125   0.00000  Uiso   1.00
C301   C     0.36778   0.60501   0.44432   0.00000  Uiso   1.00
C302   C     0.41247   0.65565   0.42347   0.00000  Uiso   1.00
C303   C     0.42174   0.47775   0.04353   0.00000  Uiso   1.00
C304   C     0.46678   0.64368   0.38592   0.00000  Uiso   1.00
C305   C     0.56000   0.55853   0.46582   0.00000  Uiso   1.00
C306   C     0.37714   0.46221   0.01783   0.00000  Uiso   1.00
C307   C     0.60347   0.57514   0.49169   0.00000  Uiso   1.00
C308   C     0.52351   0.65608   0.25204   0.00000  Uiso   1.00
C309   C     0.47639   0.34391   0.24818   0.00000  Uiso   1.00
C310   C     0.46116   0.49605   0.33333   0.00000  Uiso   1.00
Cu311  Cu    0.44071   0.49441   0.24517   0.00000  Uiso   1.00
Cu312  Cu    0.55929   0.50559   0.25484   0.00000  Uiso   1.00
H313   H     0.47776   0.46793   0.10644   0.00000  Uiso   1.00
H314   H     0.43106   0.65333   0.24450   0.00000  Uiso   1.00
H315   H     0.33459   0.53844   0.28457   0.00000  Uiso   1.00
H316   H     0.66542   0.46157   0.21543   0.00000  Uiso   1.00
H317   H     0.63605   0.43048   0.10222   0.00000  Uiso   1.00
H318   H     0.34112   0.38219   0.06693   0.00000  Uiso   1.00
H319   H     0.53501   0.38843   0.07765   0.00000  Uiso   1.00
H320   H     0.57470   0.33786   0.04999   0.00000  Uiso   1.00
H321   H     0.59217   0.65073   0.12351   0.00000  Uiso   1.00
H322   H     0.50936   0.64016   0.12325   0.00000  Uiso   1.00
H323   H     0.54615   0.36516   0.14953   0.00000  Uiso   1.00
H324   H     0.52853   0.52496   0.39193   0.00000  Uiso   1.00
H325   H     0.34842   0.58089   0.41814   0.00000  Uiso   1.00
H326   H     0.39534   0.58253   0.45773   0.00000  Uiso   1.00
H327   H     0.38501   0.34532   0.41040   0.00000  Uiso   1.00
H328   H     0.43274   0.34689   0.44895   0.00000  Uiso   1.00
H329   H     0.49667   0.62286   0.39863   0.00000  Uiso   1.00
H330   H     0.49711   0.34790   0.37078   0.00000  Uiso   1.00
H331   H     0.44769   0.61881   0.36013   0.00000  Uiso   1.00
H332   H     0.65431   0.56280   0.12208   0.00000  Uiso   1.00
H333   H     0.33971   0.45502   0.38079   0.00000  Uiso   1.00
H334   H     0.63787   0.43922   0.45962   0.00000  Uiso   1.00
H335   H     0.34718   0.59466   0.04681   0.00000  Uiso   1.00
H336   H     0.40484   0.47179   0.07845   0.00000  Uiso   1.00
H337   H     0.57017   0.57870   0.43506   0.00000  Uiso   1.00
H338   H     0.56884   0.34666   0.25570   0.00000  Uiso   1.00
N339   N     0.64839   0.51401   0.26212   0.00000  Uiso   1.00
N340   N     0.35161   0.48599   0.23788   0.00000  Uiso   1.00
O341   O     0.46148   0.57142   0.24686   0.00000  Uiso   1.00
O342   O     0.65287   0.61879   0.47918   0.00000  Uiso   1.00
O343   O     0.53852   0.42858   0.25314   0.00000  Uiso   1.00
O344   O     0.56163   0.58086   0.25503   0.00000  Uiso   1.00
O345   O     0.43837   0.41914   0.24498   0.00000  Uiso   1.00
O346   O     0.42185   0.49263   0.30855   0.00000  Uiso   1.00
O347   O     0.57815   0.50737   0.19146   0.00000  Uiso   1.00
O348   O     0.52199   0.50207   0.31671   0.00000  Uiso   1.00
O349   O     0.47801   0.49793   0.18329   0.00000  Uiso   1.00
O350   O     0.64662   0.43798   0.03542   0.00000  Uiso   1.00
C351   C     0.84839   0.60008   0.25133   0.00000  Uiso   1.00
C352   C     0.87216   0.50453   0.16673   0.00000  Uiso   1.00
C353   C     0.77027   0.49162   0.38141   0.00000  Uiso   1.00
C354   C     0.89566   0.51486   0.11930   0.00000  Uiso   1.00
C355   C     0.68688   0.45913   0.44598   0.00000  Uiso   1.00
C356   C     0.96853   0.56768   0.05921   0.00000  Uiso   1.00
C357   C     0.70674   0.46823   0.40078   0.00000  Uiso   1.00
C358   C     0.95430   0.54878   0.10194   0.00000  Uiso   1.00
C359   C     0.81273   0.50853   0.40796   0.00000  Uiso   1.00
C360   C     0.85338   0.49731   0.09277   0.00000  Uiso   1.00
C361   C     0.79320   0.50206   0.45389   0.00000  Uiso   1.00
C362   C     0.81824   0.39992   0.24874   0.00000  Uiso   1.00
C363   C     0.86485   0.51777   0.05051   0.00000  Uiso   1.00
C364   C     0.72997   0.47439   0.47280   0.00000  Uiso   1.00
C365   C     0.92392   0.55334   0.03350   0.00000  Uiso   1.00
C366   C     0.83585   0.52093   0.48095   0.00000  Uiso   1.00
C367   C     0.81871   0.50447   0.02522   0.00000  Uiso   1.00
C368   C     0.97024   0.40553   0.07189   0.00000  Uiso   1.00
C369   C     0.90578   0.36674   0.07788   0.00000  Uiso   1.00
C370   C     0.88737   0.33721   0.12125   0.00000  Uiso   1.00
C371   C     0.70111   0.60501   0.44432   0.00000  Uiso   1.00
C372   C     0.74580   0.65565   0.42347   0.00000  Uiso   1.00
C373   C     0.75508   0.47775   0.04353   0.00000  Uiso   1.00
C374   C     0.80012   0.64368   0.38592   0.00000  Uiso   1.00
C375   C     0.89334   0.55853   0.46582   0.00000  Uiso   1.00
C376   C     0.71047   0.46221   0.01783   0.00000  Uiso   1.00
C377   C     0.93680   0.57514   0.49169   0.00000  Uiso   1.00
C378   C     0.85684   0.65608   0.25204   0.00000  Uiso   1.00
C379   C     0.80972   0.34391   0.24818   0.00000  Uiso   1.00
C380   C     0.79449   0.49605   0.33333   0.00000  Uiso   1.00
Cu381  Cu    0.77404   0.49441   0.24517   0.00000  Uiso   1.00
Cu382  Cu    0.89263   0.50559   0.25484   0.00000  Uiso   1.00
H383   H     0.81110   0.46793   0.10644   0.00000  Uiso   1.00
H384   H     0.76439   0.65333   0.24450   0.00000  Uiso   1.00
H385   H     0.66792   0.53844   0.28457   0.00000  Uiso   1.00
H386   H     0.99875   0.46157   0.21543   0.00000  Uiso   1.00
H387   H     0.96939   0.43048   0.10222   0.00000  Uiso   1.00
H388   H     0.67445   0.38219   0.06693   0.00000  Uiso   1.00
H389   H     0.86835   0.38843   0.07765   0.00000  Uiso   1.00
H390   H     0.90803   0.33786   0.04999   0.00000  Uiso   1.00
H391   H     0.92550   0.65073   0.12351   0.00000  Uiso   1.00
H392   H     0.84269   0.64016   0.12325   0.00000  Uiso   1.00
H393   H     0.87948   0.36516   0.14953   0.00000  Uiso   1.00
H394   H     0.86187   0.52496   0.39193   0.00000  Uiso   1.00
H395   H     0.68176   0.58089   0.41814   0.00000  Uiso   1.00
H396   H     0.72867   0.58253   0.45773   0.00000  Uiso   1.00
H397   H     0.71834   0.34532   0.41040   0.00000  Uiso   1.00
H398   H     0.76607   0.34689   0.44895   0.00000  Uiso   1.00
H399   H     0.83001   0.62286   0.39863   0.00000  Uiso   1.00
H400   H     0.83045   0.34790   0.37078   0.00000  Uiso   1.00
H401   H     0.78102   0.61881   0.36013   0.00000  Uiso   1.00
H402   H     0.98764   0.56280   0.12208   0.00000  Uiso   1.00
H403   H     0.67305   0.45502   0.38079   0.00000  Uiso   1.00
H404   H     0.97120   0.43922   0.45962   0.00000  Uiso   1.00
H405   H     0.68051   0.59466   0.04681   0.00000  Uiso   1.00
H406   H     0.73817   0.47179   0.07845   0.00000  Uiso   1.00
H407   H     0.90350   0.57870   0.43506   0.00000  Uiso   1.00
H408   H     0.90218   0.34666   0.25570   0.00000  Uiso   1.00
N409   N     0.98173   0.51401   0.26212   0.00000  Uiso   1.00
N410   N     0.68494   0.48599   0.23788   0.00000  Uiso   1.00
O411   O     0.79482   0.57142   0.24686   0.00000  Uiso   1.00
O412   O     0.98620   0.61879   0.47918   0.00000  Uiso   1.00
O413   O     0.87185   0.42858   0.25314   0.00000  Uiso   1.00
O414   O     0.89496   0.58086   0.25503   0.00000  Uiso   1.00
O415   O     0.77171   0.41914   0.24498   0.00000  Uiso   1.00
O416   O     0.75518   0.49263   0.30855   0.00000  Uiso   1.00
O417   O     0.91149   0.50737   0.19146   0.00000  Uiso   1.00
O418   O     0.85532   0.50207   0.31671   0.00000  Uiso   1.00
O419   O     0.81134   0.49793   0.18329   0.00000  Uiso   1.00
O420   O     0.97996   0.43798   0.03542   0.00000  Uiso   1.00
C421   C     0.18172   0.93341   0.25133   0.00000  Uiso   1.00
C422   C     0.20550   0.83787   0.16673   0.00000  Uiso   1.00
C423   C     0.10360   0.82495   0.38141   0.00000  Uiso   1.00
C424   C     0.22899   0.84819   0.11930   0.00000  Uiso   1.00
C425   C     0.02021   0.79246   0.44598   0.00000  Uiso   1.00
C426   C     0.30186   0.90101   0.05921   0.00000  Uiso   1.00
C427   C     0.04007   0.80156   0.40078   0.00000  Uiso   1.00
C428   C     0.28764   0.88212   0.10194   0.00000  Uiso   1.00
C429   C     0.14606   0.84186   0.40796   0.00000  Uiso   1.00
C430   C     0.18671   0.83064   0.09277   0.00000  Uiso   1.00
C431   C     0.12653   0.83540   0.45389   0.00000  Uiso   1.00
C432   C     0.15157   0.73325   0.24874   0.00000  Uiso   1.00
C433   C     0.19818   0.85110   0.05051   0.00000  Uiso   1.00
C434   C     0.06330   0.80772   0.47280   0.00000  Uiso   1.00
C435   C     0.25725   0.88667   0.03350   0.00000  Uiso   1.00
C436   C     0.16919   0.85426   0.48095   0.00000  Uiso   1.00
C437   C     0.15204   0.83780   0.02522   0.00000  Uiso   1.00
C438   C     0.30358   0.73886   0.07189   0.00000  Uiso   1.00
C439   C     0.23912   0.70008   0.07788   0.00000  Uiso   1.00
C440   C     0.22070   0.67054   0.12125   0.00000  Uiso   1.00
C441   C     0.03445   0.93834   0.44432   0.00000  Uiso   1.00
C442   C     0.07914   0.98898   0.42347   0.00000  Uiso   1.00
C443   C     0.08841   0.81109   0.04353   0.00000  Uiso   1.00
C444   C     0.13345   0.97702   0.38592   0.00000  Uiso   1.00
C445   C     0.22667   0.89186   0.46582   0.00000  Uiso   1.00
C446   C     0.04381   0.79554   0.01783   0.00000  Uiso   1.00
C447   C     0.27014   0.90847   0.49169   0.00000  Uiso   1.00
C448   C     0.19017   0.98942   0.25204   0.00000  Uiso   1.00
C449   C     0.14305   0.67724   0.24818   0.00000  Uiso   1.00
C450   C     0.12783   0.82938   0.33333   0.00000  Uiso   1.00
Cu451  Cu    0.10737   0.82775   0.24517   0.00000  Uiso   1.00
Cu452  Cu    0.22596   0.83892   0.25484   0.00000  Uiso   1.00
H453   H     0.14443   0.80126   0.10644   0.00000  Uiso   1.00
H454   H     0.09772   0.98666   0.24450   0.00000  Uiso   1.00
H455   H     0.00125   0.87177   0.28457   0.00000  Uiso   1.00
H456   H     0.33208   0.79490   0.21543   0.00000  Uiso   1.00
H457   H     0.30272   0.76381   0.10222   0.00000  Uiso   1.00
H458   H     0.00778   0.71552   0.06693   0.00000  Uiso   1.00
H459   H     0.20168   0.72176   0.07765   0.00000  Uiso   1.00
H460   H     0.24137   0.67119   0.04999   0.00000  Uiso   1.00
H461   H     0.25883   0.98406   0.12351   0.00000  Uiso   1.00
H462   H     0.17602   0.97349   0.12325   0.00000  Uiso   1.00
H463   H     0.21281   0.69850   0.14953   0.00000  Uiso   1.00
H464   H     0.19520   0.85829   0.39193   0.00000  Uiso   1.00
H465   H     0.01509   0.91423   0.41814   0.00000  Uiso   1.00
H466   H     0.06201   0.91587   0.45773   0.00000  Uiso   1.00
H467   H     0.05168   0.67866   0.41040   0.00000  Uiso   1.00
H468   H     0.09941   0.68022   0.44895   0.00000  Uiso   1.00
H469   H     0.16334   0.95620   0.39863   0.00000  Uiso   1.00
H470   H     0.16378   0.68124   0.37078   0.00000  Uiso   1.00
H471   H     0.11436   0.95215   0.36013   0.00000  Uiso   1.00
H472   H     0.32097   0.89614   0.12208   0.00000  Uiso   1.00
H473   H     0.00638   0.78835   0.38079   0.00000  Uiso   1.00
H474   H     0.30454   0.77255   0.45962   0.00000  Uiso   1.00
H475   H     0.01384   0.92800   0.04681   0.00000  Uiso   1.00
H476   H     0.07150   0.80512   0.07845   0.00000  Uiso   1.00
H477   H     0.23683   0.91203   0.43506   0.00000  Uiso   1.00
H478   H     0.23551   0.67999   0.25570   0.00000  Uiso   1.00
N479   N     0.31506   0.84735   0.26212   0.00000  Uiso   1.00
N480   N     0.01827   0.81932   0.23788   0.00000  Uiso   1.00
O481   O     0.12815   0.90476   0.24686   0.00000  Uiso   1.00
O482   O     0.31954   0.95212   0.47918   0.00000  Uiso   1.00
O483   O     0.20518   0.76191   0.25314   0.00000  Uiso   1.00
O484   O     0.22829   0.91420   0.25503   0.00000  Uiso   1.00
O485   O     0.10504   0.75247   0.24498   0.00000  Uiso   1.00
O486   O     0.08851   0.82597   0.30855   0.00000  Uiso   1.00
O487   O     0.24482   0.84070   0.19146   0.00000  Uiso   1.00
O488   O     0.18866   0.83540   0.31671   0.00000  Uiso   1.00
O489   O     0.14468   0.83126   0.18329   0.00000  Uiso   1.00
O490   O     0.31329   0.77131   0.03542   0.00000  Uiso   1.00
C491   C     0.51506   0.93341   0.25133   0.00000  Uiso   1.00
C492   C     0.53883   0.83787   0.16673   0.00000  Uiso   1.00
C493   C     0.43694   0.82495   0.38141   0.00000  Uiso   1.00
C494   C     0.56233   0.84819   0.11930   0.00000  Uiso   1.00
C495   C     0.35354   0.79246   0.44598   0.00000  Uiso   1.00
C496   C     0.63519   0.90101   0.05921   0.00000  Uiso   1.00
C497   C     0.37340   0.80156   0.40078   0.00000  Uiso   1.00
C498   C     0.62097   0.88212   0.10194   0.00000  Uiso   1.00
C499   C     0.47940   0.84186   0.40796   0.00000  Uiso   1.00
C500   C     0.52005   0.83064   0.09277   0.00000  Uiso   1.00
C501   C     0.45986   0.83540   0.45389   0.00000  Uiso   1.00
C502   C     0.48491   0.73325   0.24874   0.00000  Uiso   1.00
C503   C     0.53151   0.85110   0.05051   0.00000  Uiso   1.00
C504   C     0.39663   0.80772   0.47280   0.00000  Uiso   1.00
C505   C     0.59058   0.88667   0.03350   0.00000  Uiso   1.00
C506   C     0.50252   0.85426   0.48095   0.00000  Uiso   1.00
C507   C     0.48537   0.83780   0.02522   0.00000  Uiso   1.00
C508   C     0.63691   0.73886   0.07189   0.00000  Uiso   1.00
C509   C     0.57245   0.70008   0.07788   0.00000  Uiso   1.00
C510   C     0.55403   0.67054   0.12125   0.00000  Uiso   1.00
C511   C     0.36778   0.93834   0.44432   0.00000  Uiso   1.00
C512   C     0.41247   0.98898   0.42347   0.00000  Uiso   1.00
C513   C     0.42174   0.81109   0.04353   0.00000  Uiso   1.00
C514   C     0.46678   0.97702   0.38592   0.00000  Uiso   1.00
C515   C     0.56000   0.89186   0.46582   0.00000  Uiso   1.00
C516   C     0.37714   0.79554   0.01783   0.00000  Uiso   1.00
C517   C     0.60347   0.90847   0.49169   0.00000  Uiso   1.00
C518   C     0.52351   0.98942   0.25204   0.00000  Uiso   1.00
C519   C     0.47639   0.67724   0.24818   0.00000  Uiso   1.00
C520   C     0.46116   0.82938   0.33333   0.00000  Uiso   1.00
Cu521  Cu    0.44071   0.82775   0.24517   0.00000  Uiso   1.00
Cu522  Cu    0.55929   0.83892   0.25484   0.00000  Uiso   1.00
H523   H     0.47776   0.80126   0.10644   0.00000  Uiso   1.00
H524   H     0.43106   0.98666   0.24450   0.00000  Uiso   1.00
H525   H     0.33459   0.87177   0.28457   0.00000  Uiso   1.00
H526   H     0.66542   0.79490   0.21543   0.00000  Uiso   1.00
H527   H     0.63605   0.76381   0.10222   0.00000  Uiso   1.00
H528   H     0.34112   0.71552   0.06693   0.00000  Uiso   1.00
H529   H     0.53501   0.72176   0.07765   0.00000  Uiso   1.00
H530   H     0.57470   0.67119   0.04999   0.00000  Uiso   1.00
H531   H     0.59217   0.98406   0.12351   0.00000  Uiso   1.00
H532   H     0.50936   0.97349   0.12325   0.00000  Uiso   1.00
H533   H     0.54615   0.69850   0.14953   0.00000  Uiso   1.00
H534   H     0.52853   0.85829   0.39193   0.00000  Uiso   1.00
H535   H     0.34842   0.91423   0.41814   0.00000  Uiso   1.00
H536   H     0.39534   0.91587   0.45773   0.00000  Uiso   1.00
H537   H     0.38501   0.67866   0.41040   0.00000  Uiso   1.00
H538   H     0.43274   0.68022   0.44895   0.00000  Uiso   1.00
H539   H     0.49667   0.95620   0.39863   0.00000  Uiso   1.00
H540   H     0.49711   0.68124   0.37078   0.00000  Uiso   1.00
H541   H     0.44769   0.95215   0.36013   0.00000  Uiso   1.00
H542   H     0.65431   0.89614   0.12208   0.00000  Uiso   1.00
H543   H     0.33971   0.78835   0.38079   0.00000  Uiso   1.00
H544   H     0.63787   0.77255   0.45962   0.00000  Uiso   1.00
H545   H     0.34718   0.92800   0.04681   0.00000  Uiso   1.00
H546   H     0.40484   0.80512   0.07845   0.00000  Uiso   1.00
H547   H     0.57017   0.91203   0.43506   0.00000  Uiso   1.00
H548   H     0.56884   0.67999   0.25570   0.00000  Uiso   1.00
N549   N     0.64839   0.84735   0.26212   0.00000  Uiso   1.00
N550   N     0.35161   0.81932   0.23788   0.00000  Uiso   1.00
O551   O     0.46148   0.90476   0.24686   0.00000  Uiso   1.00
O552   O     0.65287   0.95212   0.47918   0.00000  Uiso   1.00
O553   O     0.53852   0.76191   0.25314   0.00000  Uiso   1.00
O554   O     0.56163   0.91420   0.25503   0.00000  Uiso   1.00
O555   O     0.43837   0.75247   0.24498   0.00000  Uiso   1.00
O556   O     0.42185   0.82597   0.30855   0.00000  Uiso   1.00
O557   O     0.57815   0.84070   0.19146   0.00000  Uiso   1.00
O558   O     0.52199   0.83540   0.31671   0.00000  Uiso   1.00
O559   O     0.47801   0.83126   0.18329   0.00000  Uiso   1.00
O560   O     0.64662   0.77131   0.03542   0.00000  Uiso   1.00
C561   C     0.84839   0.93341   0.25133   0.00000  Uiso   1.00
C562   C     0.87216   0.83787   0.16673   0.00000  Uiso   1.00
C563   C     0.77027   0.82495   0.38141   0.00000  Uiso   1.00
C564   C     0.89566   0.84819   0.11930   0.00000  Uiso   1.00
C565   C     0.68688   0.79246   0.44598   0.00000  Uiso   1.00
C566   C     0.96853   0.90101   0.05921   0.00000  Uiso   1.00
C567   C     0.70674   0.80156   0.40078   0.00000  Uiso   1.00
C568   C     0.95430   0.88212   0.10194   0.00000  Uiso   1.00
C569   C     0.81273   0.84186   0.40796   0.00000  Uiso   1.00
C570   C     0.85338   0.83064   0.09277   0.00000  Uiso   1.00
C571   C     0.79320   0.83540   0.45389   0.00000  Uiso   1.00
C572   C     0.81824   0.73325   0.24874   0.00000  Uiso   1.00
C573   C     0.86485   0.85110   0.05051   0.00000  Uiso   1.00
C574   C     0.72997   0.80772   0.47280   0.00000  Uiso   1.00
C575   C     0.92392   0.88667   0.03350   0.00000  Uiso   1.00
C576   C     0.83585   0.85426   0.48095   0.00000  Uiso   1.00
C577   C     0.81871   0.83780   0.02522   0.00000  Uiso   1.00
C578   C     0.97024   0.73886   0.07189   0.00000  Uiso   1.00
C579   C     0.90578   0.70008   0.07788   0.00000  Uiso   1.00
C580   C     0.88737   0.67054   0.12125   0.00000  Uiso   1.00
C581   C     0.70111   0.93834   0.44432   0.00000  Uiso   1.00
C582   C     0.74580   0.98898   0.42347   0.00000  Uiso   1.00
C583   C     0.75508   0.81109   0.04353   0.00000  Uiso   1.00
C584   C     0.80012   0.97702   0.38592   0.00000  Uiso   1.00
C585   C     0.89334   0.89186   0.46582   0.00000  Uiso   1.00
C586   C     0.71047   0.79554   0.01783   0.00000  Uiso   1.00
C587   C     0.93680   0.90847   0.49169   0.00000  Uiso   1.00
C588   C     0.85684   0.98942   0.25204   0.00000  Uiso   1.00
C589   C     0.80972   0.67724   0.24818   0.00000  Uiso   1.00
C590   C     0.79449   0.82938   0.33333   0.00000  Uiso   1.00
Cu591  Cu    0.77404   0.82775   0.24517   0.00000  Uiso   1.00
Cu592  Cu    0.89263   0.83892   0.25484   0.00000  Uiso   1.00
H593   H     0.81110   0.80126   0.10644   0.00000  Uiso   1.00
H594   H     0.76439   0.98666   0.24450   0.00000  Uiso   1.00
H595   H     0.66792   0.87177   0.28457   0.00000  Uiso   1.00
H596   H     0.99875   0.79490   0.21543   0.00000  Uiso   1.00
H597   H     0.96939   0.76381   0.10222   0.00000  Uiso   1.00
H598   H     0.67445   0.71552   0.06693   0.00000  Uiso   1.00
H599   H     0.86835   0.72176   0.07765   0.00000  Uiso   1.00
H600   H     0.90803   0.67119   0.04999   0.00000  Uiso   1.00
H601   H     0.92550   0.98406   0.12351   0.00000  Uiso   1.00
H602   H     0.84269   0.97349   0.12325   0.00000  Uiso   1.00
H603   H     0.87948   0.69850   0.14953   0.00000  Uiso   1.00
H604   H     0.86187   0.85829   0.39193   0.00000  Uiso   1.00
H605   H     0.68176   0.91423   0.41814   0.00000  Uiso   1.00
H606   H     0.72867   0.91587   0.45773   0.00000  Uiso   1.00
H607   H     0.71834   0.67866   0.41040   0.00000  Uiso   1.00
H608   H     0.76607   0.68022   0.44895   0.00000  Uiso   1.00
H609   H     0.83001   0.95620   0.39863   0.00000  Uiso   1.00
H610   H     0.83045   0.68124   0.37078   0.00000  Uiso   1.00
H611   H     0.78102   0.95215   0.36013   0.00000  Uiso   1.00
H612   H     0.98764   0.89614   0.12208   0.00000  Uiso   1.00
H613   H     0.67305   0.78835   0.38079   0.00000  Uiso   1.00
H614   H     0.97120   0.77255   0.45962   0.00000  Uiso   1.00
H615   H     0.68051   0.92800   0.04681   0.00000  Uiso   1.00
H616   H     0.73817   0.80512   0.07845   0.00000  Uiso   1.00
H617   H     0.90350   0.91203   0.43506   0.00000  Uiso   1.00
H618   H     0.90218   0.67999   0.25570   0.00000  Uiso   1.00
N619   N     0.98173   0.84735   0.26212   0.00000  Uiso   1.00
N620   N     0.68494   0.81932   0.23788   0.00000  Uiso   1.00
O621   O     0.79482   0.90476   0.24686   0.00000  Uiso   1.00
O622   O     0.98620   0.95212   0.47918   0.00000  Uiso   1.00
O623   O     0.87185   0.76191   0.25314   0.00000  Uiso   1.00
O624   O     0.89496   0.91420   0.25503   0.00000  Uiso   1.00
O625   O     0.77171   0.75247   0.24498   0.00000  Uiso   1.00
O626   O     0.75518   0.82597   0.30855   0.00000  Uiso   1.00
O627   O     0.91149   0.84070   0.19146   0.00000  Uiso   1.00
O628   O     0.85532   0.83540   0.31671   0.00000  Uiso   1.00
O629   O     0.81134   0.83126   0.18329   0.00000  Uiso   1.00
O630   O     0.97996   0.77131   0.03542   0.00000  Uiso   1.00
C631   C     0.18172   0.26675   0.75133   0.00000  Uiso   1.00
C632   C     0.20550   0.17120   0.66673   0.00000  Uiso   1.00
C633   C     0.10360   0.15828   0.88141   0.00000  Uiso   1.00
C634   C     0.22899   0.18152   0.61930   0.00000  Uiso   1.00
C635   C     0.02021   0.12580   0.94598   0.00000  Uiso   1.00
C636   C     0.30186   0.23434   0.55921   0.00000  Uiso   1.00
C637   C     0.04007   0.13490   0.90078   0.00000  Uiso   1.00
C638   C     0.28764   0.21545   0.60194   0.00000  Uiso   1.00
C639   C     0.14606   0.17519   0.90796   0.00000  Uiso   1.00
C640   C     0.18671   0.16397   0.59277   0.00000  Uiso   1.00
C641   C     0.12653   0.16873   0.95389   0.00000  Uiso   1.00
C642   C     0.15157   0.06658   0.74874   0.00000  Uiso   1.00
C643   C     0.19818   0.18443   0.55051   0.00000  Uiso   1.00
C644   C     0.06330   0.14106   0.97280   0.00000  Uiso   1.00
C645   C     0.25725   0.22000   0.53350   0.00000  Uiso   1.00
C646   C     0.16919   0.18760   0.98095   0.00000  Uiso   1.00
C647   C     0.15204   0.17113   0.52522   0.00000  Uiso   1.00
C648   C     0.30358   0.07220   0.57189   0.00000  Uiso   1.00
C649   C     0.23912   0.03341   0.57788   0.00000  Uiso   1.00
C650   C     0.22070   0.00388   0.62125   0.00000  Uiso   1.00
C651   C     0.03445   0.27167   0.94432   0.00000  Uiso   1.00
C652   C     0.07914   0.32232   0.92347   0.00000  Uiso   1.00
C653   C     0.08841   0.14442   0.54353   0.00000  Uiso   1.00
C654   C     0.13345   0.31035   0.88592   0.00000  Uiso   1.00
C655   C     0.22667   0.22519   0.96582   0.00000  Uiso   1.00
C656   C     0.04381   0.12888   0.51783   0.00000  Uiso   1.00
C657   C     0.27014   0.24181   0.99169   0.00000  Uiso   1.00
C658   C     0.19017   0.32275   0.75204   0.00000  Uiso   1.00
C659   C     0.14305   0.01057   0.74818   0.00000  Uiso   1.00
C660   C     0.12783   0.16272   0.83333   0.00000  Uiso   1.00
Cu661  Cu    0.10737   0.16108   0.74517   0.00000  Uiso   1.00
Cu662  Cu    0.22596   0.17225   0.75484   0.00000  Uiso   1.00
H663   H     0.14443   0.13460   0.60644   0.00000  Uiso   1.00
H664   H     0.09772   0.32000   0.74450   0.00000  Uiso   1.00
H665   H     0.00125   0.20510   0.78457   0.00000  Uiso   1.00
H666   H     0.33208   0.12823   0.71543   0.00000  Uiso   1.00
H667   H     0.30272   0.09714   0.60222   0.00000  Uiso   1.00
H668   H     0.00778   0.04885   0.56693   0.00000  Uiso   1.00
H669   H     0.20168   0.05509   0.57765   0.00000  Uiso   1.00
H670   H     0.24137   0.00453   0.54999   0.00000  Uiso   1.00
H671   H     0.25883   0.31740   0.62351   0.00000  Uiso   1.00
H672   H     0.17602   0.30682   0.62325   0.00000  Uiso   1.00
H673   H     0.21281   0.03183   0.64953   0.00000  Uiso   1.00
H674   H     0.19520   0.19162   0.89193   0.00000  Uiso   1.00
H675   H     0.01509   0.24756   0.91814   0.00000  Uiso   1.00
H676   H     0.06201   0.24920   0.95773   0.00000  Uiso   1.00
H677   H     0.05168   0.01199   0.91040   0.00000  Uiso   1.00
H678   H     0.09941   0.01355   0.94895   0.00000  Uiso   1.00
H679   H     0.16334   0.28953   0.89863   0.00000  Uiso   1.00
H680   H     0.16378   0.01457   0.87078   0.00000  Uiso   1.00
H681   H     0.11436   0.28548   0.86013   0.00000  Uiso   1.00
H682   H     0.32097   0.22947   0.62208   0.00000  Uiso   1.00
H683   H     0.00638   0.12168   0.88079   0.00000  Uiso   1.00
H684   H     0.30454   0.10589   0.95962   0.00000  Uiso   1.00
H685   H     0.01384   0.26133   0.54681   0.00000  Uiso   1.00
H686   H     0.07150   0.13846   0.57845   0.00000  Uiso   1.00
H687   H     0.23683   0.24537   0.93506   0.00000  Uiso   1.00
H688   H     0.23551   0.01333   0.75570   0.00000  Uiso   1.00
N689   N     0.31506   0.18068   0.76212   0.00000  Uiso   1.00
N690   N     0.01827   0.15265   0.73788   0.00000  Uiso   1.00
O691   O     0.12815   0.23809   0.74686   0.00000  Uiso   1.00
O692   O     0.31954   0.28546   0.97918   0.00000  Uiso   1.00
O693   O     0.20518   0.09524   0.75314   0.00000  Uiso   1.00
O694   O     0.22829   0.24753   0.75503   0.00000  Uiso   1.00
O695   O     0.10504   0.08580   0.74498   0.00000  Uiso   1.00
O696   O     0.08851   0.15930   0.80855   0.00000  Uiso   1.00
O697   O     0.24482   0.17403   0.69146   0.00000  Uiso   1.00
O698   O     0.18866   0.16874   0.81671   0.00000  Uiso   1.00
O699   O     0.14468   0.16460   0.68329   0.00000  Uiso   1.00
O700   O     0.31329   0.10464   0.53542   0.00000  Uiso   1.00
C701   C     0.51506   0.26675   0.75133   0.00000  Uiso   1.00
C702   C     0.53883   0.17120   0.66673   0.00000  Uiso   1.00
C703   C     0.43694   0.15828   0.88141   0.00000  Uiso   1.00
C704   C     0.56233   0.18152   0.61930   0.00000  Uiso   1.00
C705   C     0.35354   0.12580   0.94598   0.00000  Uiso   1.00
C706   C     0.63519   0.23434   0.55921   0.00000  Uiso   1.00
C707   C     0.37340   0.13490   0.90078   0.00000  Uiso   1.00
C708   C     0.62097   0.21545   0.60194   0.00000  Uiso   1.00
C709   C     0.47940   0.17519   0.90796   0.00000  Uiso   1.00
C710   C     0.52005   0.16397   0.59277   0.00000  Uiso   1.00
C711   C     0.45986   0.16873   0.95389   0.00000  Uiso   1.00
C712   C     0.48491   0.06658   0.74874   0.00000  Uiso   1.00
C713   C     0.53151   0.18443   0.55051   0.00000  Uiso   1.00
C714   C     0.39663   0.14106   0.97280   0.00000  Uiso   1.00
C715   C     0.59058   0.22000   0.53350   0.00000  Uiso   1.00
C716   C     0.50252   0.18760   0.98095   0.00000  Uiso   1.00
C717   C     0.48537   0.17113   0.52522   0.00000  Uiso   1.00
C718   C     0.63691   0.07220   0.57189   0.00000  Uiso   1.00
C719   C     0.57245   0.03341   0.57788   0.00000  Uiso   1.00
C720   C     0.55403   0.00388   0.62125   0.00000  Uiso   1.00
C721   C     0.36778   0.27167   0.94432   0.00000  Uiso   1.00
C722   C     0.41247   0.32232   0.92347   0.00000  Uiso   1.00
C723   C     0.42174   0.14442   0.54353   0.00000  Uiso   1.00
C724   C     0.46678   0.31035   0.88592   0.00000  Uiso   1.00
C725   C     0.56000   0.22519   0.96582   0.00000  Uiso   1.00
C726   C     0.37714   0.12888   0.51783   0.00000  Uiso   1.00
C727   C     0.60347   0.24181   0.99169   0.00000  Uiso   1.00
C728   C     0.52351   0.32275   0.75204   0.00000  Uiso   1.00
C729   C     0.47639   0.01057   0.74818   0.00000  Uiso   1.00
C730   C     0.46116   0.16272   0.83333   0.00000  Uiso   1.00
Cu731  Cu    0.44071   0.16108   0.74517   0.00000  Uiso   1.00
Cu732  Cu    0.55929   0.17225   0.75484   0.00000  Uiso   1.00
H733   H     0.47776   0.13460   0.60644   0.00000  Uiso   1.00
H734   H     0.43106   0.32000   0.74450   0.00000  Uiso   1.00
H735   H     0.33459   0.20510   0.78457   0.00000  Uiso   1.00
H736   H     0.66542   0.12823   0.71543   0.00000  Uiso   1.00
H737   H     0.63605   0.09714   0.60222   0.00000  Uiso   1.00
H738   H     0.34112   0.04885   0.56693   0.00000  Uiso   1.00
H739   H     0.53501   0.05509   0.57765   0.00000  Uiso   1.00
H740   H     0.57470   0.00453   0.54999   0.00000  Uiso   1.00
H741   H     0.59217   0.31740   0.62351   0.00000  Uiso   1.00
H742   H     0.50936   0.30682   0.62325   0.00000  Uiso   1.00
H743   H     0.54615   0.03183   0.64953   0.00000  Uiso   1.00
H744   H     0.52853   0.19162   0.89193   0.00000  Uiso   1.00
H745   H     0.34842   0.24756   0.91814   0.00000  Uiso   1.00
H746   H     0.39534   0.24920   0.95773   0.00000  Uiso   1.00
H747   H     0.38501   0.01199   0.91040   0.00000  Uiso   1.00
H748   H     0.43274   0.01355   0.94895   0.00000  Uiso   1.00
H749   H     0.49667   0.28953   0.89863   0.00000  Uiso   1.00
H750   H     0.49711   0.01457   0.87078   0.00000  Uiso   1.00
H751   H     0.44769   0.28548   0.86013   0.00000  Uiso   1.00
H752   H     0.65431   0.22947   0.62208   0.00000  Uiso   1.00
H753   H     0.33971   0.12168   0.88079   0.00000  Uiso   1.00
H754   H     0.63787   0.10589   0.95962   0.00000  Uiso   1.00
H755   H     0.34718   0.26133   0.54681   0.00000  Uiso   1.00
H756   H     0.40484   0.13846   0.57845   0.00000  Uiso   1.00
H757   H     0.57017   0.24537   0.93506   0.00000  Uiso   1.00
H758   H     0.56884   0.01333   0.75570   0.00000  Uiso   1.00
N759   N     0.64839   0.18068   0.76212   0.00000  Uiso   1.00
N760   N     0.35161   0.15265   0.73788   0.00000  Uiso   1.00
O761   O     0.46148   0.23809   0.74686   0.00000  Uiso   1.00
O762   O     0.65287   0.28546   0.97918   0.00000  Uiso   1.00
O763   O     0.53852   0.09524   0.75314   0.00000  Uiso   1.00
O764   O     0.56163   0.24753   0.75503   0.00000  Uiso   1.00
O765   O     0.43837   0.08580   0.74498   0.00000  Uiso   1.00
O766   O     0.42185   0.15930   0.80855   0.00000  Uiso   1.00
O767   O     0.57815   0.17403   0.69146   0.00000  Uiso   1.00
O768   O     0.52199   0.16874   0.81671   0.00000  Uiso   1.00
O769   O     0.47801   0.16460   0.68329   0.00000  Uiso   1.00
O770   O     0.64662   0.10464   0.53542   0.00000  Uiso   1.00
C771   C     0.84839   0.26675   0.75133   0.00000  Uiso   1.00
C772   C     0.87216   0.17120   0.66673   0.00000  Uiso   1.00
C773   C     0.77027   0.15828   0.88141   0.00000  Uiso   1.00
C774   C     0.89566   0.18152   0.61930   0.00000  Uiso   1.00
C775   C     0.68688   0.12580   0.94598   0.00000  Uiso   1.00
C776   C     0.96853   0.23434   0.55921   0.00000  Uiso   1.00
C777   C     0.70674   0.13490   0.90078   0.00000  Uiso   1.00
C778   C     0.95430   0.21545   0.60194   0.00000  Uiso   1.00
C779   C     0.81273   0.17519   0.90796   0.00000  Uiso   1.00
C780   C     0.85338   0.16397   0.59277   0.00000  Uiso   1.00
C781   C     0.79320   0.16873   0.95389   0.00000  Uiso   1.00
C782   C     0.81824   0.06658   0.74874   0.00000  Uiso   1.00
C783   C     0.86485   0.18443   0.55051   0.00000  Uiso   1.00
C784   C     0.72997   0.14106   0.97280   0.00000  Uiso   1.00
C785   C     0.92392   0.22000   0.53350   0.00000  Uiso   1.00
C786   C     0.83585   0.18760   0.98095   0.00000  Uiso   1.00
C787   C     0.81871   0.17113   0.52522   0.00000  Uiso   1.00
C788   C     0.97024   0.07220   0.57189   0.00000  Uiso   1.00
C789   C     0.90578   0.03341   0.57788   0.00000  Uiso   1.00
C790   C     0.88737   0.00388   0.62125   0.00000  Uiso   1.00
C791   C     0.70111   0.27167   0.94432   0.00000  Uiso   1.00
C792   C     0.74580   0.32232   0.92347   0.00000  Uiso   1.00
C793   C     0.75508   0.14442   0.54353   0.00000  Uiso   1.00
C794   C     0.80012   0.31035   0.88592   0.00000  Uiso   1.00
C795   C     0.89334   0.22519   0.96582   0.00000  Uiso   1.00
C796   C     0.71047   0.12888   0.51783   0.00000  Uiso   1.00
C797   C     0.93680   0.24181   0.99169   0.00000  Uiso   1.00
C798   C     0.85684   0.32275   0.75204   0.00000  Uiso   1.00
C799   C     0.80972   0.01057   0.74818   0.00000  Uiso   1.00
C800   C     0.79449   0.16272   0.83333   0.00000  Uiso   1.00
Cu801  Cu    0.77404   0.16108   0.74517   0.00000  Uiso   1.00
Cu802  Cu    0.89263   0.17225   0.75484   0.00000  Uiso   1.00
H803   H     0.81110   0.13460   0.60644   0.00000  Uiso   1.00
H804   H     0.76439   0.32000   0.74450   0.00000  Uiso   1.00
H805   H     0.66792   0.20510   0.78457   0.00000  Uiso   1.00
H806   H     0.99875   0.12823   0.71543   0.00000  Uiso   1.00
H807   H     0.96939   0.09714   0.60222   0.00000  Uiso   1.00
H808   H     0.67445   0.04885   0.56693   0.00000  Uiso   1.00
H809   H     0.86835   0.05509   0.57765   0.00000  Uiso   1.00
H810   H     0.90803   0.00453   0.54999   0.00000  Uiso   1.00
H811   H     0.92550   0.31740   0.62351   0.00000  Uiso   1.00
H812   H     0.84269   0.30682   0.62325   0.00000  Uiso   1.00
H813   H     0.87948   0.03183   0.64953   0.00000  Uiso   1.00
H814   H     0.86187   0.19162   0.89193   0.00000  Uiso   1.00
H815   H     0.68176   0.24756   0.91814   0.00000  Uiso   1.00
H816   H     0.72867   0.24920   0.95773   0.00000  Uiso   1.00
H817   H     0.71834   0.01199   0.91040   0.00000  Uiso   1.00
H818   H     0.76607   0.01355   0.94895   0.00000  Uiso   1.00
H819   H     0.83001   0.28953   0.89863   0.00000  Uiso   1.00
H820   H     0.83045   0.01457   0.87078   0.00000  Uiso   1.00
H821   H     0.78102   0.28548   0.86013   0.00000  Uiso   1.00
H822   H     0.98764   0.22947   0.62208   0.00000  Uiso   1.00
H823   H     0.67305   0.12168   0.88079   0.00000  Uiso   1.00
H824   H     0.97120   0.10589   0.95962   0.00000  Uiso   1.00
H825   H     0.68051   0.26133   0.54681   0.00000  Uiso   1.00
H826   H     0.73817   0.13846   0.57845   0.00000  Uiso   1.00
H827   H     0.90350   0.24537   0.93506   0.00000  Uiso   1.00
H828   H     0.90218   0.01333   0.75570   0.00000  Uiso   1.00
N829   N     0.98173   0.18068   0.76212   0.00000  Uiso   1.00
N830   N     0.68494   0.15265   0.73788   0.00000  Uiso   1.00
O831   O     0.79482   0.23809   0.74686   0.00000  Uiso   1.00
O832   O     0.98620   0.28546   0.97918   0.00000  Uiso   1.00
O833   O     0.87185   0.09524   0.75314   0.00000  Uiso   1.00
O834   O     0.89496   0.24753   0.75503   0.00000  Uiso   1.00
O835   O     0.77171   0.08580   0.74498   0.00000  Uiso   1.00
O836   O     0.75518   0.15930   0.80855   0.00000  Uiso   1.00
O837   O     0.91149   0.17403   0.69146   0.00000  Uiso   1.00
O838   O     0.85532   0.16874   0.81671   0.00000  Uiso   1.00
O839   O     0.81134   0.16460   0.68329   0.00000  Uiso   1.00
O840   O     0.97996   0.10464   0.53542   0.00000  Uiso   1.00
C841   C     0.18172   0.60008   0.75133   0.00000  Uiso   1.00
C842   C     0.20550   0.50453   0.66673   0.00000  Uiso   1.00
C843   C     0.10360   0.49162   0.88141   0.00000  Uiso   1.00
C844   C     0.22899   0.51486   0.61930   0.00000  Uiso   1.00
C845   C     0.02021   0.45913   0.94598   0.00000  Uiso   1.00
C846   C     0.30186   0.56768   0.55921   0.00000  Uiso   1.00
C847   C     0.04007   0.46823   0.90078   0.00000  Uiso   1.00
C848   C     0.28764   0.54878   0.60194   0.00000  Uiso   1.00
C849   C     0.14606   0.50853   0.90796   0.00000  Uiso   1.00
C850   C     0.18671   0.49731   0.59277   0.00000  Uiso   1.00
C851   C     0.12653   0.50206   0.95389   0.00000  Uiso   1.00
C852   C     0.15157   0.39992   0.74874   0.00000  Uiso   1.00
C853   C     0.19818   0.51777   0.55051   0.00000  Uiso   1.00
C854   C     0.06330   0.47439   0.97280   0.00000  Uiso   1.00
C855   C     0.25725   0.55334   0.53350   0.00000  Uiso   1.00
C856   C     0.16919   0.52093   0.98095   0.00000  Uiso   1.00
C857   C     0.15204   0.50447   0.52522   0.00000  Uiso   1.00
C858   C     0.30358   0.40553   0.57189   0.00000  Uiso   1.00
C859   C     0.23912   0.36674   0.57788   0.00000  Uiso   1.00
C860   C     0.22070   0.33721   0.62125   0.00000  Uiso   1.00
C861   C     0.03445   0.60501   0.94432   0.00000  Uiso   1.00
C862   C     0.07914   0.65565   0.92347   0.00000  Uiso   1.00
C863   C     0.08841   0.47775   0.54353   0.00000  Uiso   1.00
C864   C     0.13345   0.64368   0.88592   0.00000  Uiso   1.00
C865   C     0.22667   0.55853   0.96582   0.00000  Uiso   1.00
C866   C     0.04381   0.46221   0.51783   0.00000  Uiso   1.00
C867   C     0.27014   0.57514   0.99169   0.00000  Uiso   1.00
C868   C     0.19017   0.65608   0.75204   0.00000  Uiso   1.00
C869   C     0.14305   0.34391   0.74818   0.00000  Uiso   1.00
C870   C     0.12783   0.49605   0.83333   0.00000  Uiso   1.00
Cu871  Cu    0.10737   0.49441   0.74517   0.00000  Uiso   1.00
Cu872  Cu    0.22596   0.50559   0.75484   0.00000  Uiso   1.00
H873   H     0.14443   0.46793   0.60644   0.00000  Uiso   1.00
H874   H     0.09772   0.65333   0.74450   0.00000  Uiso   1.00
H875   H     0.00125   0.53844   0.78457   0.00000  Uiso   1.00
H876   H     0.33208   0.46157   0.71543   0.00000  Uiso   1.00
H877   H     0.30272   0.43048   0.60222   0.00000  Uiso   1.00
H878   H     0.00778   0.38219   0.56693   0.00000  Uiso   1.00
H879   H     0.20168   0.38843   0.57765   0.00000  Uiso   1.00
H880   H     0.24137   0.33786   0.54999   0.00000  Uiso   1.00
H881   H     0.25883   0.65073   0.62351   0.00000  Uiso   1.00
H882   H     0.17602   0.64016   0.62325   0.00000  Uiso   1.00
H883   H     0.21281   0.36516   0.64953   0.00000  Uiso   1.00
H884   H     0.19520   0.52496   0.89193   0.00000  Uiso   1.00
H885   H     0.01509   0.58089   0.91814   0.00000  Uiso   1.00
H886   H     0.06201   0.58253   0.95773   0.00000  Uiso   1.00
H887   H     0.05168   0.34532   0.91040   0.00000  Uiso   1.00
H888   H     0.09941   0.34689   0.94895   0.00000  Uiso   1.00
H889   H     0.16334   0.62286   0.89863   0.00000  Uiso   1.00
H890   H     0.16378   0.34790   0.87078   0.00000  Uiso   1.00
H891   H     0.11436   0.61881   0.86013   0.00000  Uiso   1.00
H892   H     0.32097   0.56280   0.62208   0.00000  Uiso   1.00
H893   H     0.00638   0.45502   0.88079   0.00000  Uiso   1.00
H894   H     0.30454   0.43922   0.95962   0.00000  Uiso   1.00
H895   H     0.01384   0.59466   0.54681   0.00000  Uiso   1.00
H896   H     0.07150   0.47179   0.57845   0.00000  Uiso   1.00
H897   H     0.23683   0.57870   0.93506   0.00000  Uiso   1.00
H898   H     0.23551   0.34666   0.75570   0.00000  Uiso   1.00
N899   N     0.31506   0.51401   0.76212   0.00000  Uiso   1.00
N900   N     0.01827   0.48599   0.73788   0.00000  Uiso   1.00
O901   O     0.12815   0.57142   0.74686   0.00000  Uiso   1.00
O902   O     0.31954   0.61879   0.97918   0.00000  Uiso   1.00
O903   O     0.20518   0.42858   0.75314   0.00000  Uiso   1.00
O904   O     0.22829   0.58086   0.75503   0.00000  Uiso   1.00
O905   O     0.10504   0.41914   0.74498   0.00000  Uiso   1.00
O906   O     0.08851   0.49263   0.80855   0.00000  Uiso   1.00
O907   O     0.24482   0.50737   0.69146   0.00000  Uiso   1.00
O908   O     0.18866   0.50207   0.81671   0.00000  Uiso   1.00
O909   O     0.14468   0.49793   0.68329   0.00000  Uiso   1.00
O910   O     0.31329   0.43798   0.53542   0.00000  Uiso   1.00
C911   C     0.51506   0.60008   0.75133   0.00000  Uiso   1.00
C912   C     0.53883   0.50453   0.66673   0.00000  Uiso   1.00
C913   C     0.43694   0.49162   0.88141   0.00000  Uiso   1.00
C914   C     0.56233   0.51486   0.61930   0.00000  Uiso   1.00
C915   C     0.35354   0.45913   0.94598   0.00000  Uiso   1.00
C916   C     0.63519   0.56768   0.55921   0.00000  Uiso   1.00
C917   C     0.37340   0.46823   0.90078   0.00000  Uiso   1.00
C918   C     0.62097   0.54878   0.60194   0.00000  Uiso   1.00
C919   C     0.47940   0.50853   0.90796   0.00000  Uiso   1.00
C920   C     0.52005   0.49731   0.59277   0.00000  Uiso   1.00
C921   C     0.45986   0.50206   0.95389   0.00000  Uiso   1.00
C922   C     0.48491   0.39992   0.74874   0.00000  Uiso   1.00
C923   C     0.53151   0.51777   0.55051   0.00000  Uiso   1.00
C924   C     0.39663   0.47439   0.97280   0.00000  Uiso   1.00
C925   C     0.59058   0.55334   0.53350   0.00000  Uiso   1.00
C926   C     0.50252   0.52093   0.98095   0.00000  Uiso   1.00
C927   C     0.48537   0.50447   0.52522   0.00000  Uiso   1.00
C928   C     0.63691   0.40553   0.57189   0.00000  Uiso   1.00
C929   C     0.57245   0.36674   0.57788   0.00000  Uiso   1.00
C930   C     0.55403   0.33721   0.62125   0.00000  Uiso   1.00
C931   C     0.36778   0.60501   0.94432   0.00000  Uiso   1.00
C932   C     0.41247   0.65565   0.92347   0.00000  Uiso   1.00
C933   C     0.42174   0.47775   0.54353   0.00000  Uiso   1.00
C934   C     0.46678   0.64368   0.88592   0.00000  Uiso   1.00
C935   C     0.56000   0.55853   0.96582   0.00000  Uiso   1.00
C936   C     0.37714   0.46221   0.51783   0.00000  Uiso   1.00
C937   C     0.60347   0.57514   0.99169   0.00000  Uiso   1.00
C938   C     0.52351   0.65608   0.75204   0.00000  Uiso   1.00
C939   C     0.47639   0.34391   0.74818   0.00000  Uiso   1.00
C940   C     0.46116   0.49605   0.83333   0.00000  Uiso   1.00
Cu941  Cu    0.44071   0.49441   0.74517   0.00000  Uiso   1.00
Cu942  Cu    0.55929   0.50559   0.75484   0.00000  Uiso   1.00
H943   H     0.47776   0.46793   0.60644   0.00000  Uiso   1.00
H944   H     0.43106   0.65333   0.74450   0.00000  Uiso   1.00
H945   H     0.33459   0.53844   0.78457   0.00000  Uiso   1.00
H946   H     0.66542   0.46157   0.71543   0.00000  Uiso   1.00
H947   H     0.63605   0.43048   0.60222   0.00000  Uiso   1.00
H948   H     0.34112   0.38219   0.56693   0.00000  Uiso   1.00
H949   H     0.53501   0.38843   0.57765   0.00000  Uiso   1.00
H950   H     0.57470   0.33786   0.54999   0.00000  Uiso   1.00
H951   H     0.59217   0.65073   0.62351   0.00000  Uiso   1.00
H952   H     0.50936   0.64016   0.62325   0.00000  Uiso   1.00
H953   H     0.54615   0.36516   0.64953   0.00000  Uiso   1.00
H954   H     0.52853   0.52496   0.89193   0.00000  Uiso   1.00
H955   H     0.34842   0.58089   0.91814   0.00000  Uiso   1.00
H956   H     0.39534   0.58253   0.95773   0.00000  Uiso   1.00
H957   H     0.38501   0.34532   0.91040   0.00000  Uiso   1.00
H958   H     0.43274   0.34689   0.94895   0.00000  Uiso   1.00
H959   H     0.49667   0.62286   0.89863   0.00000  Uiso   1.00
H960   H     0.49711   0.34790   0.87078   0.00000  Uiso   1.00
H961   H     0.44769   0.61881   0.86013   0.00000  Uiso   1.00
H962   H     0.65431   0.56280   0.62208   0.00000  Uiso   1.00
H963   H     0.33971   0.45502   0.88079   0.00000  Uiso   1.00
H964   H     0.63787   0.43922   0.95962   0.00000  Uiso   1.00
H965   H     0.34718   0.59466   0.54681   0.00000  Uiso   1.00
H966   H     0.40484   0.47179   0.57845   0.00000  Uiso   1.00
H967   H     0.57017   0.57870   0.93506   0.00000  Uiso   1.00
H968   H     0.56884   0.34666   0.75570   0.00000  Uiso   1.00
N969   N     0.64839   0.51401   0.76212   0.00000  Uiso   1.00
N970   N     0.35161   0.48599   0.73788   0.00000  Uiso   1.00
O971   O     0.46148   0.57142   0.74686   0.00000  Uiso   1.00
O972   O     0.65287   0.61879   0.97918   0.00000  Uiso   1.00
O973   O     0.53852   0.42858   0.75314   0.00000  Uiso   1.00
O974   O     0.56163   0.58086   0.75503   0.00000  Uiso   1.00
O975   O     0.43837   0.41914   0.74498   0.00000  Uiso   1.00
O976   O     0.42185   0.49263   0.80855   0.00000  Uiso   1.00
O977   O     0.57815   0.50737   0.69146   0.00000  Uiso   1.00
O978   O     0.52199   0.50207   0.81671   0.00000  Uiso   1.00
O979   O     0.47801   0.49793   0.68329   0.00000  Uiso   1.00
O980   O     0.64662   0.43798   0.53542   0.00000  Uiso   1.00
C981   C     0.84839   0.60008   0.75133   0.00000  Uiso   1.00
C982   C     0.87216   0.50453   0.66673   0.00000  Uiso   1.00
C983   C     0.77027   0.49162   0.88141   0.00000  Uiso   1.00
C984   C     0.89566   0.51486   0.61930   0.00000  Uiso   1.00
C985   C     0.68688   0.45913   0.94598   0.00000  Uiso   1.00
C986   C     0.96853   0.56768   0.55921   0.00000  Uiso   1.00
C987   C     0.70674   0.46823   0.90078   0.00000  Uiso   1.00
C988   C     0.95430   0.54878   0.60194   0.00000  Uiso   1.00
C989   C     0.81273   0.50853   0.90796   0.00000  Uiso   1.00
C990   C     0.85338   0.49731   0.59277   0.00000  Uiso   1.00
C991   C     0.79320   0.50206   0.95389   0.00000  Uiso   1.00
C992   C     0.81824   0.39992   0.74874   0.00000  Uiso   1.00
C993   C     0.86485   0.51777   0.55051   0.00000  Uiso   1.00
C994   C     0.72997   0.47439   0.97280   0.00000  Uiso   1.00
C995   C     0.92392   0.55334   0.53350   0.00000  Uiso   1.00
C996   C     0.83585   0.52093   0.98095   0.00000  Uiso   1.00
C997   C     0.81871   0.50447   0.52522   0.00000  Uiso   1.00
C998   C     0.97024   0.40553   0.57189   0.00000  Uiso   1.00
C999   C     0.90578   0.36674   0.57788   0.00000  Uiso   1.00
C1000  C     0.88737   0.33721   0.62125   0.00000  Uiso   1.00
C1001  C     0.70111   0.60501   0.94432   0.00000  Uiso   1.00
C1002  C     0.74580   0.65565   0.92347   0.00000  Uiso   1.00
C1003  C     0.75508   0.47775   0.54353   0.00000  Uiso   1.00
C1004  C     0.80012   0.64368   0.88592   0.00000  Uiso   1.00
C1005  C     0.89334   0.55853   0.96582   0.00000  Uiso   1.00
C1006  C     0.71047   0.46221   0.51783   0.00000  Uiso   1.00
C1007  C     0.93680   0.57514   0.99169   0.00000  Uiso   1.00
C1008  C     0.85684   0.65608   0.75204   0.00000  Uiso   1.00
C1009  C     0.80972   0.34391   0.74818   0.00000  Uiso   1.00
C1010  C     0.79449   0.49605   0.83333   0.00000  Uiso   1.00
Cu1011 Cu    0.77404   0.49441   0.74517   0.00000  Uiso   1.00
Cu1012 Cu    0.89263   0.50559   0.75484   0.00000  Uiso   1.00
H1013  H     0.81110   0.46793   0.60644   0.00000  Uiso   1.00
H1014  H     0.76439   0.65333   0.74450   0.00000  Uiso   1.00
H1015  H     0.66792   0.53844   0.78457   0.00000  Uiso   1.00
H1016  H     0.99875   0.46157   0.71543   0.00000  Uiso   1.00
H1017  H     0.96939   0.43048   0.60222   0.00000  Uiso   1.00
H1018  H     0.67445   0.38219   0.56693   0.00000  Uiso   1.00
H1019  H     0.86835   0.38843   0.57765   0.00000  Uiso   1.00
H1020  H     0.90803   0.33786   0.54999   0.00000  Uiso   1.00
H1021  H     0.92550   0.65073   0.62351   0.00000  Uiso   1.00
H1022  H     0.84269   0.64016   0.62325   0.00000  Uiso   1.00
H1023  H     0.87948   0.36516   0.64953   0.00000  Uiso   1.00
H1024  H     0.86187   0.52496   0.89193   0.00000  Uiso   1.00
H1025  H     0.68176   0.58089   0.91814   0.00000  Uiso   1.00
H1026  H     0.72867   0.58253   0.95773   0.00000  Uiso   1.00
H1027  H     0.71834   0.34532   0.91040   0.00000  Uiso   1.00
H1028  H     0.76607   0.34689   0.94895   0.00000  Uiso   1.00
H1029  H     0.83001   0.62286   0.89863   0.00000  Uiso   1.00
H1030  H     0.83045   0.34790   0.87078   0.00000  Uiso   1.00
H1031  H     0.78102   0.61881   0.86013   0.00000  Uiso   1.00
H1032  H     0.98764   0.56280   0.62208   0.00000  Uiso   1.00
H1033  H     0.67305   0.45502   0.88079   0.00000  Uiso   1.00
H1034  H     0.97120   0.43922   0.95962   0.00000  Uiso   1.00
H1035  H     0.68051   0.59466   0.54681   0.00000  Uiso   1.00
H1036  H     0.73817   0.47179   0.57845   0.00000  Uiso   1.00
H1037  H     0.90350   0.57870   0.93506   0.00000  Uiso   1.00
H1038  H     0.90218   0.34666   0.75570   0.00000  Uiso   1.00
N1039  N     0.98173   0.51401   0.76212   0.00000  Uiso   1.00
N1040  N     0.68494   0.48599   0.73788   0.00000  Uiso   1.00
O1041  O     0.79482   0.57142   0.74686   0.00000  Uiso   1.00
O1042  O     0.98620   0.61879   0.97918   0.00000  Uiso   1.00
O1043  O     0.87185   0.42858   0.75314   0.00000  Uiso   1.00
O1044  O     0.89496   0.58086   0.75503   0.00000  Uiso   1.00
O1045  O     0.77171   0.41914   0.74498   0.00000  Uiso   1.00
O1046  O     0.75518   0.49263   0.80855   0.00000  Uiso   1.00
O1047  O     0.91149   0.50737   0.69146   0.00000  Uiso   1.00
O1048  O     0.85532   0.50207   0.81671   0.00000  Uiso   1.00
O1049  O     0.81134   0.49793   0.68329   0.00000  Uiso   1.00
O1050  O     0.97996   0.43798   0.53542   0.00000  Uiso   1.00
C1051  C     0.18172   0.93341   0.75133   0.00000  Uiso   1.00
C1052  C     0.20550   0.83787   0.66673   0.00000  Uiso   1.00
C1053  C     0.10360   0.82495   0.88141   0.00000  Uiso   1.00
C1054  C     0.22899   0.84819   0.61930   0.00000  Uiso   1.00
C1055  C     0.02021   0.79246   0.94598   0.00000  Uiso   1.00
C1056  C     0.30186   0.90101   0.55921   0.00000  Uiso   1.00
C1057  C     0.04007   0.80156   0.90078   0.00000  Uiso   1.00
C1058  C     0.28764   0.88212   0.60194   0.00000  Uiso   1.00
C1059  C     0.14606   0.84186   0.90796   0.00000  Uiso   1.00
C1060  C     0.18671   0.83064   0.59277   0.00000  Uiso   1.00
C1061  C     0.12653   0.83540   0.95389   0.00000  Uiso   1.00
C1062  C     0.15157   0.73325   0.74874   0.00000  Uiso   1.00
C1063  C     0.19818   0.85110   0.55051   0.00000  Uiso   1.00
C1064  C     0.06330   0.80772   0.97280   0.00000  Uiso   1.00
C1065  C     0.25725   0.88667   0.53350   0.00000  Uiso   1.00
C1066  C     0.16919   0.85426   0.98095   0.00000  Uiso   1.00
C1067  C     0.15204   0.83780   0.52522   0.00000  Uiso   1.00
C1068  C     0.30358   0.73886   0.57189   0.00000  Uiso   1.00
C1069  C     0.23912   0.70008   0.57788   0.00000  Uiso   1.00
C1070  C     0.22070   0.67054   0.62125   0.00000  Uiso   1.00
C1071  C     0.03445   0.93834   0.94432   0.00000  Uiso   1.00
C1072  C     0.07914   0.98898   0.92347   0.00000  Uiso   1.00
C1073  C     0.08841   0.81109   0.54353   0.00000  Uiso   1.00
C1074  C     0.13345   0.97702   0.88592   0.00000  Uiso   1.00
C1075  C     0.22667   0.89186   0.96582   0.00000  Uiso   1.00
C1076  C     0.04381   0.79554   0.51783   0.00000  Uiso   1.00
C1077  C     0.27014   0.90847   0.99169   0.00000  Uiso   1.00
C1078  C     0.19017   0.98942   0.75204   0.00000  Uiso   1.00
C1079  C     0.14305   0.67724   0.74818   0.00000  Uiso   1.00
C1080  C     0.12783   0.82938   0.83333   0.00000  Uiso   1.00
Cu1081 Cu    0.10737   0.82775   0.74517   0.00000  Uiso   1.00
Cu1082 Cu    0.22596   0.83892   0.75484   0.00000  Uiso   1.00
H1083  H     0.14443   0.80126   0.60644   0.00000  Uiso   1.00
H1084  H     0.09772   0.98666   0.74450   0.00000  Uiso   1.00
H1085  H     0.00125   0.87177   0.78457   0.00000  Uiso   1.00
H1086  H     0.33208   0.79490   0.71543   0.00000  Uiso   1.00
H1087  H     0.30272   0.76381   0.60222   0.00000  Uiso   1.00
H1088  H     0.00778   0.71552   0.56693   0.00000  Uiso   1.00
H1089  H     0.20168   0.72176   0.57765   0.00000  Uiso   1.00
H1090  H     0.24137   0.67119   0.54999   0.00000  Uiso   1.00
H1091  H     0.25883   0.98406   0.62351   0.00000  Uiso   1.00
H1092  H     0.17602   0.97349   0.62325   0.00000  Uiso   1.00
H1093  H     0.21281   0.69850   0.64953   0.00000  Uiso   1.00
H1094  H     0.19520   0.85829   0.89193   0.00000  Uiso   1.00
H1095  H     0.01509   0.91423   0.91814   0.00000  Uiso   1.00
H1096  H     0.06201   0.91587   0.95773   0.00000  Uiso   1.00
H1097  H     0.05168   0.67866   0.91040   0.00000  Uiso   1.00
H1098  H     0.09941   0.68022   0.94895   0.00000  Uiso   1.00
H1099  H     0.16334   0.95620   0.89863   0.00000  Uiso   1.00
H1100  H     0.16378   0.68124   0.87078   0.00000  Uiso   1.00
H1101  H     0.11436   0.95215   0.86013   0.00000  Uiso   1.00
H1102  H     0.32097   0.89614   0.62208   0.00000  Uiso   1.00
H1103  H     0.00638   0.78835   0.88079   0.00000  Uiso   1.00
H1104  H     0.30454   0.77255   0.95962   0.00000  Uiso   1.00
H1105  H     0.01384   0.92800   0.54681   0.00000  Uiso   1.00
H1106  H     0.07150   0.80512   0.57845   0.00000  Uiso   1.00
H1107  H     0.23683   0.91203   0.93506   0.00000  Uiso   1.00
H1108  H     0.23551   0.67999   0.75570   0.00000  Uiso   1.00
N1109  N     0.31506   0.84735   0.76212   0.00000  Uiso   1.00
N1110  N     0.01827   0.81932   0.73788   0.00000  Uiso   1.00
O1111  O     0.12815   0.90476   0.74686   0.00000  Uiso   1.00
O1112  O     0.31954   0.95212   0.97918   0.00000  Uiso   1.00
O1113  O     0.20518   0.76191   0.75314   0.00000  Uiso   1.00
O1114  O     0.22829   0.91420   0.75503   0.00000  Uiso   1.00
O1115  O     0.10504   0.75247   0.74498   0.00000  Uiso   1.00
O1116  O     0.08851   0.82597   0.80855   0.00000  Uiso   1.00
O1117  O     0.24482   0.84070   0.69146   0.00000  Uiso   1.00
O1118  O     0.18866   0.83540   0.81671   0.00000  Uiso   1.00
O1119  O     0.14468   0.83126   0.68329   0.00000  Uiso   1.00
O1120  O     0.31329   0.77131   0.53542   0.00000  Uiso   1.00
C1121  C     0.51506   0.93341   0.75133   0.00000  Uiso   1.00
C1122  C     0.53883   0.83787   0.66673   0.00000  Uiso   1.00
C1123  C     0.43694   0.82495   0.88141   0.00000  Uiso   1.00
C1124  C     0.56233   0.84819   0.61930   0.00000  Uiso   1.00
C1125  C     0.35354   0.79246   0.94598   0.00000  Uiso   1.00
C1126  C     0.63519   0.90101   0.55921   0.00000  Uiso   1.00
C1127  C     0.37340   0.80156   0.90078   0.00000  Uiso   1.00
C1128  C     0.62097   0.88212   0.60194   0.00000  Uiso   1.00
C1129  C     0.47940   0.84186   0.90796   0.00000  Uiso   1.00
C1130  C     0.52005   0.83064   0.59277   0.00000  Uiso   1.00
C1131  C     0.45986   0.83540   0.95389   0.00000  Uiso   1.00
C1132  C     0.48491   0.73325   0.74874   0.00000  Uiso   1.00
C1133  C     0.53151   0.85110   0.55051   0.00000  Uiso   1.00
C1134  C     0.39663   0.80772   0.97280   0.00000  Uiso   1.00
C1135  C     0.59058   0.88667   0.53350   0.00000  Uiso   1.00
C1136  C     0.50252   0.85426   0.98095   0.00000  Uiso   1.00
C1137  C     0.48537   0.83780   0.52522   0.00000  Uiso   1.00
C1138  C     0.63691   0.73886   0.57189   0.00000  Uiso   1.00
C1139  C     0.57245   0.70008   0.57788   0.00000  Uiso   1.00
C1140  C     0.55403   0.67054   0.62125   0.00000  Uiso   1.00
C1141  C     0.36778   0.93834   0.94432   0.00000  Uiso   1.00
C1142  C     0.41247   0.98898   0.92347   0.00000  Uiso   1.00
C1143  C     0.42174   0.81109   0.54353   0.00000  Uiso   1.00
C1144  C     0.46678   0.97702   0.88592   0.00000  Uiso   1.00
C1145  C     0.56000   0.89186   0.96582   0.00000  Uiso   1.00
C1146  C     0.37714   0.79554   0.51783   0.00000  Uiso   1.00
C1147  C     0.60347   0.90847   0.99169   0.00000  Uiso   1.00
C1148  C     0.52351   0.98942   0.75204   0.00000  Uiso   1.00
C1149  C     0.47639   0.67724   0.74818   0.00000  Uiso   1.00
C1150  C     0.46116   0.82938   0.83333   0.00000  Uiso   1.00
Cu1151 Cu    0.44071   0.82775   0.74517   0.00000  Uiso   1.00
Cu1152 Cu    0.55929   0.83892   0.75484   0.00000  Uiso   1.00
H1153  H     0.47776   0.80126   0.60644   0.00000  Uiso   1.00
H1154  H     0.43106   0.98666   0.74450   0.00000  Uiso   1.00
H1155  H     0.33459   0.87177   0.78457   0.00000  Uiso   1.00
H1156  H     0.66542   0.79490   0.71543   0.00000  Uiso   1.00
H1157  H     0.63605   0.76381   0.60222   0.00000  Uiso   1.00
H1158  H     0.34112   0.71552   0.56693   0.00000  Uiso   1.00
H1159  H     0.53501   0.72176   0.57765   0.00000  Uiso   1.00
H1160  H     0.57470   0.67119   0.54999   0.00000  Uiso   1.00
H1161  H     0.59217   0.98406   0.62351   0.00000  Uiso   1.00
H1162  H     0.50936   0.97349   0.62325   0.00000  Uiso   1.00
H1163  H     0.54615   0.69850   0.64953   0.00000  Uiso   1.00
H1164  H     0.52853   0.85829   0.89193   0.00000  Uiso   1.00
H1165  H     0.34842   0.91423   0.91814   0.00000  Uiso   1.00
H1166  H     0.39534   0.91587   0.95773   0.00000  Uiso   1.00
H1167  H     0.38501   0.67866   0.91040   0.00000  Uiso   1.00
H1168  H     0.43274   0.68022   0.94895   0.00000  Uiso   1.00
H1169  H     0.49667   0.95620   0.89863   0.00000  Uiso   1.00
H1170  H     0.49711   0.68124   0.87078   0.00000  Uiso   1.00
H1171  H     0.44769   0.95215   0.86013   0.00000  Uiso   1.00
H1172  H     0.65431   0.89614   0.62208   0.00000  Uiso   1.00
H1173  H     0.33971   0.78835   0.88079   0.00000  Uiso   1.00
H1174  H     0.63787   0.77255   0.95962   0.00000  Uiso   1.00
H1175  H     0.34718   0.92800   0.54681   0.00000  Uiso   1.00
H1176  H     0.40484   0.80512   0.57845   0.00000  Uiso   1.00
H1177  H     0.57017   0.91203   0.93506   0.00000  Uiso   1.00
H1178  H     0.56884   0.67999   0.75570   0.00000  Uiso   1.00
N1179  N     0.64839   0.84735   0.76212   0.00000  Uiso   1.00
N1180  N     0.35161   0.81932   0.73788   0.00000  Uiso   1.00
O1181  O     0.46148   0.90476   0.74686   0.00000  Uiso   1.00
O1182  O     0.65287   0.95212   0.97918   0.00000  Uiso   1.00
O1183  O     0.53852   0.76191   0.75314   0.00000  Uiso   1.00
O1184  O     0.56163   0.91420   0.75503   0.00000  Uiso   1.00
O1185  O     0.43837   0.75247   0.74498   0.00000  Uiso   1.00
O1186  O     0.42185   0.82597   0.80855   0.00000  Uiso   1.00
O1187  O     0.57815   0.84070   0.69146   0.00000  Uiso   1.00
O1188  O     0.52199   0.83540   0.81671   0.00000  Uiso   1.00
O1189  O     0.47801   0.83126   0.68329   0.00000  Uiso   1.00
O1190  O     0.64662   0.77131   0.53542   0.00000  Uiso   1.00
C1191  C     0.84839   0.93341   0.75133   0.00000  Uiso   1.00
C1192  C     0.87216   0.83787   0.66673   0.00000  Uiso   1.00
C1193  C     0.77027   0.82495   0.88141   0.00000  Uiso   1.00
C1194  C     0.89566   0.84819   0.61930   0.00000  Uiso   1.00
C1195  C     0.68688   0.79246   0.94598   0.00000  Uiso   1.00
C1196  C     0.96853   0.90101   0.55921   0.00000  Uiso   1.00
C1197  C     0.70674   0.80156   0.90078   0.00000  Uiso   1.00
C1198  C     0.95430   0.88212   0.60194   0.00000  Uiso   1.00
C1199  C     0.81273   0.84186   0.90796   0.00000  Uiso   1.00
C1200  C     0.85338   0.83064   0.59277   0.00000  Uiso   1.00
C1201  C     0.79320   0.83540   0.95389   0.00000  Uiso   1.00
C1202  C     0.81824   0.73325   0.74874   0.00000  Uiso   1.00
C1203  C     0.86485   0.85110   0.55051   0.00000  Uiso   1.00
C1204  C     0.72997   0.80772   0.97280   0.00000  Uiso   1.00
C1205  C     0.92392   0.88667   0.53350   0.00000  Uiso   1.00
C1206  C     0.83585   0.85426   0.98095   0.00000  Uiso   1.00
C1207  C     0.81871   0.83780   0.52522   0.00000  Uiso   1.00
C1208  C     0.97024   0.73886   0.57189   0.00000  Uiso   1.00
C1209  C     0.90578   0.70008   0.57788   0.00000  Uiso   1.00
C1210  C     0.88737   0.67054   0.62125   0.00000  Uiso   1.00
C1211  C     0.70111   0.93834   0.94432   0.00000  Uiso   1.00
C1212  C     0.74580   0.98898   0.92347   0.00000  Uiso   1.00
C1213  C     0.75508   0.81109   0.54353   0.00000  Uiso   1.00
C1214  C     0.80012   0.97702   0.88592   0.00000  Uiso   1.00
C1215  C     0.89334   0.89186   0.96582   0.00000  Uiso   1.00
C1216  C     0.71047   0.79554   0.51783   0.00000  Uiso   1.00
C1217  C     0.93680   0.90847   0.99169   0.00000  Uiso   1.00
C1218  C     0.85684   0.98942   0.75204   0.00000  Uiso   1.00
C1219  C     0.80972   0.67724   0.74818   0.00000  Uiso   1.00
C1220  C     0.79449   0.82938   0.83333   0.00000  Uiso   1.00
Cu1221 Cu    0.77404   0.82775   0.74517   0.00000  Uiso   1.00
Cu1222 Cu    0.89263   0.83892   0.75484   0.00000  Uiso   1.00
H1223  H     0.81110   0.80126   0.60644   0.00000  Uiso   1.00
H1224  H     0.76439   0.98666   0.74450   0.00000  Uiso   1.00
H1225  H     0.66792   0.87177   0.78457   0.00000  Uiso   1.00
H1226  H     0.99875   0.79490   0.71543   0.00000  Uiso   1.00
H1227  H     0.96939   0.76381   0.60222   0.00000  Uiso   1.00
H1228  H     0.67445   0.71552   0.56693   0.00000  Uiso   1.00
H1229  H     0.86835   0.72176   0.57765   0.00000  Uiso   1.00
H1230  H     0.90803   0.67119   0.54999   0.00000  Uiso   1.00
H1231  H     0.92550   0.98406   0.62351   0.00000  Uiso   1.00
H1232  H     0.84269   0.97349   0.62325   0.00000  Uiso   1.00
H1233  H     0.87948   0.69850   0.64953   0.00000  Uiso   1.00
H1234  H     0.86187   0.85829   0.89193   0.00000  Uiso   1.00
H1235  H     0.68176   0.91423   0.91814   0.00000  Uiso   1.00
H1236  H     0.72867   0.91587   0.95773   0.00000  Uiso   1.00
H1237  H     0.71834   0.67866   0.91040   0.00000  Uiso   1.00
H1238  H     0.76607   0.68022   0.94895   0.00000  Uiso   1.00
H1239  H     0.83001   0.95620   0.89863   0.00000  Uiso   1.00
H1240  H     0.83045   0.68124   0.87078   0.00000  Uiso   1.00
H1241  H     0.78102   0.95215   0.86013   0.00000  Uiso   1.00
H1242  H     0.98764   0.89614   0.62208   0.00000  Uiso   1.00
H1243  H     0.67305   0.78835   0.88079   0.00000  Uiso   1.00
H1244  H     0.97120   0.77255   0.95962   0.00000  Uiso   1.00
H1245  H     0.68051   0.92800   0.54681   0.00000  Uiso   1.00
H1246  H     0.73817   0.80512   0.57845   0.00000  Uiso   1.00
H1247  H     0.90350   0.91203   0.93506   0.00000  Uiso   1.00
H1248  H     0.90218   0.67999   0.75570   0.00000  Uiso   1.00
N1249  N     0.98173   0.84735   0.76212   0.00000  Uiso   1.00
N1250  N     0.68494   0.81932   0.73788   0.00000  Uiso   1.00
O1251  O     0.79482   0.90476   0.74686   0.00000  Uiso   1.00
O1252  O     0.98620   0.95212   0.97918   0.00000  Uiso   1.00
O1253  O     0.87185   0.76191   0.75314   0.00000  Uiso   1.00
O1254  O     0.89496   0.91420   0.75503   0.00000  Uiso   1.00
O1255  O     0.77171   0.75247   0.74498   0.00000  Uiso   1.00
O1256  O     0.75518   0.82597   0.80855   0.00000  Uiso   1.00
O1257  O     0.91149   0.84070   0.69146   0.00000  Uiso   1.00
O1258  O     0.85532   0.83540   0.81671   0.00000  Uiso   1.00
O1259  O     0.81134   0.83126   0.68329   0.00000  Uiso   1.00
O1260  O     0.97996   0.77131   0.53542   0.00000  Uiso   1.00
loop_
_geom_bond_atom_site_label_1
_geom_bond_atom_site_label_2
_geom_bond_distance
_geom_bond_site_symmetry_2
_ccdc_geom_bond_type
C1     C28     1.425   .     S
C1     O64     1.285   .     A
C1     O61     1.290   .     A
C2     C4      1.468   .     S
C2     O69     1.295   .     A
C2     O67     1.302   .     A
C3     C9      1.398   .     A
C3     C30     1.469   .     S
C3     C7      1.398   .     A
C4     C10     1.396   .     A
C4     C8      1.397   .     A
C5     C7      1.394   .     A
C5     C14     1.410   .     A
C5     H194    1.083   1_455 S
C6     C8      1.395   .     A
C6     C15     1.409   .     A
C6     H125    1.083   .     S
C7     H53     1.083   .     S
C8     H52     1.083   .     S
C9     C11     1.405   .     A
C9     H44     1.079   .     S
C10    H33     1.078   .     S
C10    C13     1.405   .     A
C11    C14     1.420   .     A
C11    C16     1.420   .     A
C12    C29     1.425   .     S
C12    O65     1.285   .     A
C12    O63     1.290   .     A
C13    C17     1.426   .     A
C13    C15     1.421   .     A
C14    C656    1.405   .     S
C15    C657    1.402   1_554 S
C16    C25     1.413   .     A
C16    C647    1.413   .     S
C17    C23     1.416   .     A
C17    C646    1.413   1_554 S
C18    O70     1.414   .     S
C18    H37     1.112   .     S
C18    C19     1.529   .     S
C18    H108    1.116   .     S
C19    H39     1.111   .     S
C19    H40     1.111   .     S
C19    C20     1.527   .     S
C20    H43     1.111   .     S
C20    H461    1.110   1_545 S
C20    H462    1.111   1_545 S
C21    C22     1.529   .     S
C21    H46     1.110   .     S
C21    H45     1.115   .     S
C21    O202    1.411   1_455 S
C22    C24     1.526   .     S
C22    H257    1.112   .     S
C22    H258    1.112   .     S
C23    H56     1.074   .     S
C23    C26     1.411   .     A
C24    H51     1.111   .     S
C24    H49     1.110   .     S
C24    H260    1.111   .     S
C25    C27     1.398   .     A
C25    H57     1.080   .     S
C26    C644    1.405   1_554 S
C26    O210    1.399   1_455 S
C27    O62     1.386   .     S
C27    C645    1.402   .     S
C28    C239    1.328   .     S
C28    H268    1.088   .     S
C29    C448    1.328   1_545 S
C29    H454    1.088   1_545 S
C30    O66     1.301   .     A
C30    O68     1.296   .     A
Cu31   N60     2.019   .     S
Cu31   O61     1.950   .     S
Cu31   O69     1.905   .     S
Cu31   Cu32    2.687   .     S
Cu31   O65     1.946   .     S
Cu31   O66     1.927   .     S
Cu32   O68     1.905   .     S
Cu32   O67     1.927   .     S
Cu32   O64     1.946   .     S
Cu32   N59     2.019   .     S
Cu32   O63     1.950   .     S
H34    C239    1.088   .     S
H35    N199    1.029   1_455 S
H36    N130    1.029   .     S
H38    C158    1.116   1_455 S
H41    C230    1.110   .     S
H42    C230    1.111   .     S
H47    C442    1.112   1_545 S
H48    C442    1.112   1_545 S
H50    C444    1.111   1_545 S
H54    C75     1.083   .     S
H55    C146    1.083   1_455 S
H58    C448    1.088   1_545 S
N59    H105    1.029   .     S
N59    N130    1.282   .     S
N60    H176    1.029   1_455 S
N60    N199    1.282   1_455 S
O62    C91     1.411   .     S
O70    C96     1.399   .     S
C71    C98     1.425   .     S
C71    O134    1.285   .     A
C71    O131    1.290   .     A
C72    C74     1.468   .     S
C72    O139    1.295   .     A
C72    O137    1.302   .     A
C73    C79     1.398   .     A
C73    C100    1.469   .     S
C73    C77     1.398   .     A
C74    C80     1.396   .     A
C74    C78     1.397   .     A
C75    C77     1.394   .     A
C75    C84     1.410   .     A
C76    C78     1.395   .     A
C76    C85     1.409   .     A
C76    H195    1.083   .     S
C77    H123    1.083   .     S
C78    H122    1.083   .     S
C79    C81     1.405   .     A
C79    H114    1.079   .     S
C80    H103    1.078   .     S
C80    C83     1.405   .     A
C81    C84     1.420   .     A
C81    C86     1.420   .     A
C82    C99     1.425   .     S
C82    O135    1.285   .     A
C82    O133    1.290   .     A
C83    C87     1.426   .     A
C83    C85     1.421   .     A
C84    C726    1.405   .     S
C85    C727    1.402   1_554 S
C86    C95     1.413   .     A
C86    C717    1.413   .     S
C87    C93     1.416   .     A
C87    C716    1.413   1_554 S
C88    O140    1.414   .     S
C88    H107    1.112   .     S
C88    C89     1.529   .     S
C88    H178    1.116   .     S
C89    H109    1.111   .     S
C89    H110    1.111   .     S
C89    C90     1.527   .     S
C90    H113    1.111   .     S
C90    H531    1.110   1_545 S
C90    H532    1.111   1_545 S
C91    C92     1.529   .     S
C91    H116    1.110   .     S
C91    H115    1.115   .     S
C92    C94     1.526   .     S
C92    H327    1.112   .     S
C92    H328    1.112   .     S
C93    H126    1.074   .     S
C93    C96     1.411   .     A
C94    H121    1.111   .     S
C94    H119    1.110   .     S
C94    H330    1.111   .     S
C95    C97     1.398   .     A
C95    H127    1.080   .     S
C96    C714    1.405   1_554 S
C97    O132    1.386   .     S
C97    C715    1.402   .     S
C98    C309    1.328   .     S
C98    H338    1.088   .     S
C99    C518    1.328   1_545 S
C99    H524    1.088   1_545 S
C100   O136    1.301   .     A
C100   O138    1.296   .     A
Cu101  N130    2.019   .     S
Cu101  O131    1.950   .     S
Cu101  O139    1.905   .     S
Cu101  Cu102   2.687   .     S
Cu101  O135    1.946   .     S
Cu101  O136    1.927   .     S
Cu102  O138    1.905   .     S
Cu102  O137    1.927   .     S
Cu102  O134    1.946   .     S
Cu102  N129    2.019   .     S
Cu102  O133    1.950   .     S
H104   C309    1.088   .     S
H106   N200    1.029   .     S
H111   C300    1.110   .     S
H112   C300    1.111   .     S
H117   C512    1.112   1_545 S
H118   C512    1.112   1_545 S
H120   C514    1.111   1_545 S
H124   C145    1.083   .     S
H128   C518    1.088   1_545 S
N129   H175    1.029   .     S
N129   N200    1.282   .     S
O132   C161    1.411   .     S
O140   C166    1.399   .     S
C141   C168    1.425   .     S
C141   O204    1.285   .     A
C141   O201    1.290   .     A
C142   C144    1.468   .     S
C142   O209    1.295   .     A
C142   O207    1.302   .     A
C143   C149    1.398   .     A
C143   C170    1.469   .     S
C143   C147    1.398   .     A
C144   C150    1.396   .     A
C144   C148    1.397   .     A
C145   C147    1.394   .     A
C145   C154    1.410   .     A
C146   C148    1.395   .     A
C146   C155    1.409   .     A
C146   H55     1.083   1_655 S
C147   H193    1.083   .     S
C148   H192    1.083   .     S
C149   C151    1.405   .     A
C149   H184    1.079   .     S
C150   H173    1.078   .     S
C150   C153    1.405   .     A
C151   C154    1.420   .     A
C151   C156    1.420   .     A
C152   C169    1.425   .     S
C152   O205    1.285   .     A
C152   O203    1.290   .     A
C153   C157    1.426   .     A
C153   C155    1.421   .     A
C154   C796    1.405   .     S
C155   C797    1.402   1_554 S
C156   C165    1.413   .     A
C156   C787    1.413   .     S
C157   C163    1.416   .     A
C157   C786    1.413   1_554 S
C158   O210    1.414   .     S
C158   H177    1.112   .     S
C158   C159    1.529   .     S
C158   H38     1.116   1_655 S
C159   H179    1.111   .     S
C159   H180    1.111   .     S
C159   C160    1.527   .     S
C160   H183    1.111   .     S
C160   H601    1.110   1_545 S
C160   H602    1.111   1_545 S
C161   C162    1.529   .     S
C161   H186    1.110   .     S
C161   H185    1.115   .     S
C162   C164    1.526   .     S
C162   H397    1.112   .     S
C162   H398    1.112   .     S
C163   H196    1.074   .     S
C163   C166    1.411   .     A
C164   H191    1.111   .     S
C164   H189    1.110   .     S
C164   H400    1.111   .     S
C165   C167    1.398   .     A
C165   H197    1.080   .     S
C166   C784    1.405   1_554 S
C167   O202    1.386   .     S
C167   C785    1.402   .     S
C168   C379    1.328   .     S
C168   H408    1.088   .     S
C169   C588    1.328   1_545 S
C169   H594    1.088   1_545 S
C170   O206    1.301   .     A
C170   O208    1.296   .     A
Cu171  N200    2.019   .     S
Cu171  O201    1.950   .     S
Cu171  O209    1.905   .     S
Cu171  Cu172   2.687   .     S
Cu171  O205    1.946   .     S
Cu171  O206    1.927   .     S
Cu172  O208    1.905   .     S
Cu172  O207    1.927   .     S
Cu172  O204    1.946   .     S
Cu172  N199    2.019   .     S
Cu172  O203    1.950   .     S
H174   C379    1.088   .     S
H176   N60     1.029   1_655 S
H181   C370    1.110   .     S
H182   C370    1.111   .     S
H187   C582    1.112   1_545 S
H188   C582    1.112   1_545 S
H190   C584    1.111   1_545 S
H194   C5      1.083   1_655 S
H198   C588    1.088   1_545 S
N199   H35     1.029   1_655 S
N199   N60     1.282   1_655 S
O202   C21     1.411   1_655 S
O210   C26     1.399   1_655 S
C211   C238    1.425   .     S
C211   O274    1.285   .     A
C211   O271    1.290   .     A
C212   C214    1.468   .     S
C212   O279    1.295   .     A
C212   O277    1.302   .     A
C213   C219    1.398   .     A
C213   C240    1.469   .     S
C213   C217    1.398   .     A
C214   C220    1.396   .     A
C214   C218    1.397   .     A
C215   C217    1.394   .     A
C215   C224    1.410   .     A
C215   H404    1.083   1_455 S
C216   C218    1.395   .     A
C216   C225    1.409   .     A
C216   H335    1.083   .     S
C217   H263    1.083   .     S
C218   H262    1.083   .     S
C219   C221    1.405   .     A
C219   H254    1.079   .     S
C220   H243    1.078   .     S
C220   C223    1.405   .     A
C221   C224    1.420   .     A
C221   C226    1.420   .     A
C222   C239    1.425   .     S
C222   O275    1.285   .     A
C222   O273    1.290   .     A
C223   C227    1.426   .     A
C223   C225    1.421   .     A
C224   C866    1.405   .     S
C225   C867    1.402   1_554 S
C226   C235    1.413   .     A
C226   C857    1.413   .     S
C227   C233    1.416   .     A
C227   C856    1.413   1_554 S
C228   O280    1.414   .     S
C228   H247    1.112   .     S
C228   C229    1.529   .     S
C228   H318    1.116   .     S
C229   H249    1.111   .     S
C229   H250    1.111   .     S
C229   C230    1.527   .     S
C230   H253    1.111   .     S
C231   C232    1.529   .     S
C231   H256    1.110   .     S
C231   H255    1.115   .     S
C231   O412    1.411   1_455 S
C232   C234    1.526   .     S
C232   H467    1.112   .     S
C232   H468    1.112   .     S
C233   H266    1.074   .     S
C233   C236    1.411   .     A
C234   H261    1.111   .     S
C234   H259    1.110   .     S
C234   H470    1.111   .     S
C235   C237    1.398   .     A
C235   H267    1.080   .     S
C236   C854    1.405   1_554 S
C236   O420    1.399   1_455 S
C237   O272    1.386   .     S
C237   C855    1.402   .     S
C238   C449    1.328   .     S
C238   H478    1.088   .     S
C240   O276    1.301   .     A
C240   O278    1.296   .     A
Cu241  N270    2.019   .     S
Cu241  O271    1.950   .     S
Cu241  O279    1.905   .     S
Cu241  Cu242   2.687   .     S
Cu241  O275    1.946   .     S
Cu241  O276    1.927   .     S
Cu242  O278    1.905   .     S
Cu242  O277    1.927   .     S
Cu242  O274    1.946   .     S
Cu242  N269    2.019   .     S
Cu242  O273    1.950   .     S
H244   C449    1.088   .     S
H245   N409    1.029   1_455 S
H246   N340    1.029   .     S
H248   C368    1.116   1_455 S
H251   C440    1.110   .     S
H252   C440    1.111   .     S
H264   C285    1.083   .     S
H265   C356    1.083   1_455 S
N269   H315    1.029   .     S
N269   N340    1.282   .     S
N270   H386    1.029   1_455 S
N270   N409    1.282   1_455 S
O272   C301    1.411   .     S
O280   C306    1.399   .     S
C281   C308    1.425   .     S
C281   O344    1.285   .     A
C281   O341    1.290   .     A
C282   C284    1.468   .     S
C282   O349    1.295   .     A
C282   O347    1.302   .     A
C283   C289    1.398   .     A
C283   C310    1.469   .     S
C283   C287    1.398   .     A
C284   C290    1.396   .     A
C284   C288    1.397   .     A
C285   C287    1.394   .     A
C285   C294    1.410   .     A
C286   C288    1.395   .     A
C286   C295    1.409   .     A
C286   H405    1.083   .     S
C287   H333    1.083   .     S
C288   H332    1.083   .     S
C289   C291    1.405   .     A
C289   H324    1.079   .     S
C290   H313    1.078   .     S
C290   C293    1.405   .     A
C291   C294    1.420   .     A
C291   C296    1.420   .     A
C292   C309    1.425   .     S
C292   O345    1.285   .     A
C292   O343    1.290   .     A
C293   C297    1.426   .     A
C293   C295    1.421   .     A
C294   C936    1.405   .     S
C295   C937    1.402   1_554 S
C296   C305    1.413   .     A
C296   C927    1.413   .     S
C297   C303    1.416   .     A
C297   C926    1.413   1_554 S
C298   O350    1.414   .     S
C298   H317    1.112   .     S
C298   C299    1.529   .     S
C298   H388    1.116   .     S
C299   H319    1.111   .     S
C299   H320    1.111   .     S
C299   C300    1.527   .     S
C300   H323    1.111   .     S
C301   C302    1.529   .     S
C301   H326    1.110   .     S
C301   H325    1.115   .     S
C302   C304    1.526   .     S
C302   H537    1.112   .     S
C302   H538    1.112   .     S
C303   H336    1.074   .     S
C303   C306    1.411   .     A
C304   H331    1.111   .     S
C304   H329    1.110   .     S
C304   H540    1.111   .     S
C305   C307    1.398   .     A
C305   H337    1.080   .     S
C306   C924    1.405   1_554 S
C307   O342    1.386   .     S
C307   C925    1.402   .     S
C308   C519    1.328   .     S
C308   H548    1.088   .     S
C310   O346    1.301   .     A
C310   O348    1.296   .     A
Cu311  N340    2.019   .     S
Cu311  O341    1.950   .     S
Cu311  O349    1.905   .     S
Cu311  Cu312   2.687   .     S
Cu311  O345    1.946   .     S
Cu311  O346    1.927   .     S
Cu312  O348    1.905   .     S
Cu312  O347    1.927   .     S
Cu312  O344    1.946   .     S
Cu312  N339    2.019   .     S
Cu312  O343    1.950   .     S
H314   C519    1.088   .     S
H316   N410    1.029   .     S
H321   C510    1.110   .     S
H322   C510    1.111   .     S
H334   C355    1.083   .     S
N339   H385    1.029   .     S
N339   N410    1.282   .     S
O342   C371    1.411   .     S
O350   C376    1.399   .     S
C351   C378    1.425   .     S
C351   O414    1.285   .     A
C351   O411    1.290   .     A
C352   C354    1.468   .     S
C352   O419    1.295   .     A
C352   O417    1.302   .     A
C353   C359    1.398   .     A
C353   C380    1.469   .     S
C353   C357    1.398   .     A
C354   C360    1.396   .     A
C354   C358    1.397   .     A
C355   C357    1.394   .     A
C355   C364    1.410   .     A
C356   C358    1.395   .     A
C356   C365    1.409   .     A
C356   H265    1.083   1_655 S
C357   H403    1.083   .     S
C358   H402    1.083   .     S
C359   C361    1.405   .     A
C359   H394    1.079   .     S
C360   H383    1.078   .     S
C360   C363    1.405   .     A
C361   C364    1.420   .     A
C361   C366    1.420   .     A
C362   C379    1.425   .     S
C362   O415    1.285   .     A
C362   O413    1.290   .     A
C363   C367    1.426   .     A
C363   C365    1.421   .     A
C364   C1006   1.405   .     S
C365   C1007   1.402   1_554 S
C366   C375    1.413   .     A
C366   C997    1.413   .     S
C367   C373    1.416   .     A
C367   C996    1.413   1_554 S
C368   O420    1.414   .     S
C368   H387    1.112   .     S
C368   C369    1.529   .     S
C368   H248    1.116   1_655 S
C369   H389    1.111   .     S
C369   H390    1.111   .     S
C369   C370    1.527   .     S
C370   H393    1.111   .     S
C371   C372    1.529   .     S
C371   H396    1.110   .     S
C371   H395    1.115   .     S
C372   C374    1.526   .     S
C372   H607    1.112   .     S
C372   H608    1.112   .     S
C373   H406    1.074   .     S
C373   C376    1.411   .     A
C374   H401    1.111   .     S
C374   H399    1.110   .     S
C374   H610    1.111   .     S
C375   C377    1.398   .     A
C375   H407    1.080   .     S
C376   C994    1.405   1_554 S
C377   O412    1.386   .     S
C377   C995    1.402   .     S
C378   C589    1.328   .     S
C378   H618    1.088   .     S
C380   O416    1.301   .     A
C380   O418    1.296   .     A
Cu381  N410    2.019   .     S
Cu381  O411    1.950   .     S
Cu381  O419    1.905   .     S
Cu381  Cu382   2.687   .     S
Cu381  O415    1.946   .     S
Cu381  O416    1.927   .     S
Cu382  O418    1.905   .     S
Cu382  O417    1.927   .     S
Cu382  O414    1.946   .     S
Cu382  N409    2.019   .     S
Cu382  O413    1.950   .     S
H384   C589    1.088   .     S
H386   N270    1.029   1_655 S
H391   C580    1.110   .     S
H392   C580    1.111   .     S
H404   C215    1.083   1_655 S
N409   H245    1.029   1_655 S
N409   N270    1.282   1_655 S
O412   C231    1.411   1_655 S
O420   C236    1.399   1_655 S
C421   C448    1.425   .     S
C421   O484    1.285   .     A
C421   O481    1.290   .     A
C422   C424    1.468   .     S
C422   O489    1.295   .     A
C422   O487    1.302   .     A
C423   C429    1.398   .     A
C423   C450    1.469   .     S
C423   C427    1.398   .     A
C424   C430    1.396   .     A
C424   C428    1.397   .     A
C425   C427    1.394   .     A
C425   C434    1.410   .     A
C425   H614    1.083   1_455 S
C426   C428    1.395   .     A
C426   C435    1.409   .     A
C426   H545    1.083   .     S
C427   H473    1.083   .     S
C428   H472    1.083   .     S
C429   C431    1.405   .     A
C429   H464    1.079   .     S
C430   H453    1.078   .     S
C430   C433    1.405   .     A
C431   C434    1.420   .     A
C431   C436    1.420   .     A
C432   C449    1.425   .     S
C432   O485    1.285   .     A
C432   O483    1.290   .     A
C433   C437    1.426   .     A
C433   C435    1.421   .     A
C434   C1076   1.405   .     S
C435   C1077   1.402   1_554 S
C436   C445    1.413   .     A
C436   C1067   1.413   .     S
C437   C443    1.416   .     A
C437   C1066   1.413   1_554 S
C438   O490    1.414   .     S
C438   H457    1.112   .     S
C438   C439    1.529   .     S
C438   H528    1.116   .     S
C439   H459    1.111   .     S
C439   H460    1.111   .     S
C439   C440    1.527   .     S
C440   H463    1.111   .     S
C441   C442    1.529   .     S
C441   H466    1.110   .     S
C441   H465    1.115   .     S
C441   O622    1.411   1_455 S
C442   C444    1.526   .     S
C442   H47     1.112   1_565 S
C442   H48     1.112   1_565 S
C443   H476    1.074   .     S
C443   C446    1.411   .     A
C444   H471    1.111   .     S
C444   H469    1.110   .     S
C444   H50     1.111   1_565 S
C445   C447    1.398   .     A
C445   H477    1.080   .     S
C446   C1064   1.405   1_554 S
C446   O630    1.399   1_455 S
C447   O482    1.386   .     S
C447   C1065   1.402   .     S
C448   C29     1.328   1_565 S
C448   H58     1.088   1_565 S
C450   O486    1.301   .     A
C450   O488    1.296   .     A
Cu451  N480    2.019   .     S
Cu451  O481    1.950   .     S
Cu451  O489    1.905   .     S
Cu451  Cu452   2.687   .     S
Cu451  O485    1.946   .     S
Cu451  O486    1.927   .     S
Cu452  O488    1.905   .     S
Cu452  O487    1.927   .     S
Cu452  O484    1.946   .     S
Cu452  N479    2.019   .     S
Cu452  O483    1.950   .     S
H454   C29     1.088   1_565 S
H455   N619    1.029   1_455 S
H456   N550    1.029   .     S
H458   C578    1.116   1_455 S
H461   C20     1.110   1_565 S
H462   C20     1.111   1_565 S
H474   C495    1.083   .     S
H475   C566    1.083   1_455 S
N479   H525    1.029   .     S
N479   N550    1.282   .     S
N480   H596    1.029   1_455 S
N480   N619    1.282   1_455 S
O482   C511    1.411   .     S
O490   C516    1.399   .     S
C491   C518    1.425   .     S
C491   O554    1.285   .     A
C491   O551    1.290   .     A
C492   C494    1.468   .     S
C492   O559    1.295   .     A
C492   O557    1.302   .     A
C493   C499    1.398   .     A
C493   C520    1.469   .     S
C493   C497    1.398   .     A
C494   C500    1.396   .     A
C494   C498    1.397   .     A
C495   C497    1.394   .     A
C495   C504    1.410   .     A
C496   C498    1.395   .     A
C496   C505    1.409   .     A
C496   H615    1.083   .     S
C497   H543    1.083   .     S
C498   H542    1.083   .     S
C499   C501    1.405   .     A
C499   H534    1.079   .     S
C500   H523    1.078   .     S
C500   C503    1.405   .     A
C501   C504    1.420   .     A
C501   C506    1.420   .     A
C502   C519    1.425   .     S
C502   O555    1.285   .     A
C502   O553    1.290   .     A
C503   C507    1.426   .     A
C503   C505    1.421   .     A
C504   C1146   1.405   .     S
C505   C1147   1.402   1_554 S
C506   C515    1.413   .     A
C506   C1137   1.413   .     S
C507   C513    1.416   .     A
C507   C1136   1.413   1_554 S
C508   O560    1.414   .     S
C508   H527    1.112   .     S
C508   C509    1.529   .     S
C508   H598    1.116   .     S
C509   H529    1.111   .     S
C509   H530    1.111   .     S
C509   C510    1.527   .     S
C510   H533    1.111   .     S
C511   C512    1.529   .     S
C511   H536    1.110   .     S
C511   H535    1.115   .     S
C512   C514    1.526   .     S
C512   H117    1.112   1_565 S
C512   H118    1.112   1_565 S
C513   H546    1.074   .     S
C513   C516    1.411   .     A
C514   H541    1.111   .     S
C514   H539    1.110   .     S
C514   H120    1.111   1_565 S
C515   C517    1.398   .     A
C515   H547    1.080   .     S
C516   C1134   1.405   1_554 S
C517   O552    1.386   .     S
C517   C1135   1.402   .     S
C518   C99     1.328   1_565 S
C518   H128    1.088   1_565 S
C520   O556    1.301   .     A
C520   O558    1.296   .     A
Cu521  N550    2.019   .     S
Cu521  O551    1.950   .     S
Cu521  O559    1.905   .     S
Cu521  Cu522   2.687   .     S
Cu521  O555    1.946   .     S
Cu521  O556    1.927   .     S
Cu522  O558    1.905   .     S
Cu522  O557    1.927   .     S
Cu522  O554    1.946   .     S
Cu522  N549    2.019   .     S
Cu522  O553    1.950   .     S
H524   C99     1.088   1_565 S
H526   N620    1.029   .     S
H531   C90     1.110   1_565 S
H532   C90     1.111   1_565 S
H544   C565    1.083   .     S
N549   H595    1.029   .     S
N549   N620    1.282   .     S
O552   C581    1.411   .     S
O560   C586    1.399   .     S
C561   C588    1.425   .     S
C561   O624    1.285   .     A
C561   O621    1.290   .     A
C562   C564    1.468   .     S
C562   O629    1.295   .     A
C562   O627    1.302   .     A
C563   C569    1.398   .     A
C563   C590    1.469   .     S
C563   C567    1.398   .     A
C564   C570    1.396   .     A
C564   C568    1.397   .     A
C565   C567    1.394   .     A
C565   C574    1.410   .     A
C566   C568    1.395   .     A
C566   C575    1.409   .     A
C566   H475    1.083   1_655 S
C567   H613    1.083   .     S
C568   H612    1.083   .     S
C569   C571    1.405   .     A
C569   H604    1.079   .     S
C570   H593    1.078   .     S
C570   C573    1.405   .     A
C571   C574    1.420   .     A
C571   C576    1.420   .     A
C572   C589    1.425   .     S
C572   O625    1.285   .     A
C572   O623    1.290   .     A
C573   C577    1.426   .     A
C573   C575    1.421   .     A
C574   C1216   1.405   .     S
C575   C1217   1.402   1_554 S
C576   C585    1.413   .     A
C576   C1207   1.413   .     S
C577   C583    1.416   .     A
C577   C1206   1.413   1_554 S
C578   O630    1.414   .     S
C578   H597    1.112   .     S
C578   C579    1.529   .     S
C578   H458    1.116   1_655 S
C579   H599    1.111   .     S
C579   H600    1.111   .     S
C579   C580    1.527   .     S
C580   H603    1.111   .     S
C581   C582    1.529   .     S
C581   H606    1.110   .     S
C581   H605    1.115   .     S
C582   C584    1.526   .     S
C582   H187    1.112   1_565 S
C582   H188    1.112   1_565 S
C583   H616    1.074   .     S
C583   C586    1.411   .     A
C584   H611    1.111   .     S
C584   H609    1.110   .     S
C584   H190    1.111   1_565 S
C585   C587    1.398   .     A
C585   H617    1.080   .     S
C586   C1204   1.405   1_554 S
C587   O622    1.386   .     S
C587   C1205   1.402   .     S
C588   C169    1.328   1_565 S
C588   H198    1.088   1_565 S
C590   O626    1.301   .     A
C590   O628    1.296   .     A
Cu591  N620    2.019   .     S
Cu591  O621    1.950   .     S
Cu591  O629    1.905   .     S
Cu591  Cu592   2.687   .     S
Cu591  O625    1.946   .     S
Cu591  O626    1.927   .     S
Cu592  O628    1.905   .     S
Cu592  O627    1.927   .     S
Cu592  O624    1.946   .     S
Cu592  N619    2.019   .     S
Cu592  O623    1.950   .     S
H594   C169    1.088   1_565 S
H596   N480    1.029   1_655 S
H601   C160    1.110   1_565 S
H602   C160    1.111   1_565 S
H614   C425    1.083   1_655 S
N619   H455    1.029   1_655 S
N619   N480    1.282   1_655 S
O622   C441    1.411   1_655 S
O630   C446    1.399   1_655 S
C631   C658    1.425   .     S
C631   O694    1.285   .     A
C631   O691    1.290   .     A
C632   C634    1.468   .     S
C632   O699    1.295   .     A
C632   O697    1.302   .     A
C633   C639    1.398   .     A
C633   C660    1.469   .     S
C633   C637    1.398   .     A
C634   C640    1.396   .     A
C634   C638    1.397   .     A
C635   C637    1.394   .     A
C635   C644    1.410   .     A
C635   H824    1.083   1_455 S
C636   C638    1.395   .     A
C636   C645    1.409   .     A
C636   H755    1.083   .     S
C637   H683    1.083   .     S
C638   H682    1.083   .     S
C639   C641    1.405   .     A
C639   H674    1.079   .     S
C640   H663    1.078   .     S
C640   C643    1.405   .     A
C641   C644    1.420   .     A
C641   C646    1.420   .     A
C642   C659    1.425   .     S
C642   O695    1.285   .     A
C642   O693    1.290   .     A
C643   C647    1.426   .     A
C643   C645    1.421   .     A
C644   C26     1.405   1_556 S
C646   C655    1.413   .     A
C646   C17     1.413   1_556 S
C647   C653    1.416   .     A
C648   O700    1.414   .     S
C648   H667    1.112   .     S
C648   C649    1.529   .     S
C648   H738    1.116   .     S
C649   H669    1.111   .     S
C649   H670    1.111   .     S
C649   C650    1.527   .     S
C650   H673    1.111   .     S
C650   H1091   1.110   1_545 S
C650   H1092   1.111   1_545 S
C651   C652    1.529   .     S
C651   H676    1.110   .     S
C651   H675    1.115   .     S
C651   O832    1.411   1_455 S
C652   C654    1.526   .     S
C652   H887    1.112   .     S
C652   H888    1.112   .     S
C653   H686    1.074   .     S
C653   C656    1.411   .     A
C654   H681    1.111   .     S
C654   H679    1.110   .     S
C654   H890    1.111   .     S
C655   C657    1.398   .     A
C655   H687    1.080   .     S
C656   O840    1.399   1_455 S
C657   O692    1.386   .     S
C657   C15     1.402   1_556 S
C658   C869    1.328   .     S
C658   H898    1.088   .     S
C659   C1078   1.328   1_545 S
C659   H1084   1.088   1_545 S
C660   O696    1.301   .     A
C660   O698    1.296   .     A
Cu661  N690    2.019   .     S
Cu661  O691    1.950   .     S
Cu661  O699    1.905   .     S
Cu661  Cu662   2.687   .     S
Cu661  O695    1.946   .     S
Cu661  O696    1.927   .     S
Cu662  O698    1.905   .     S
Cu662  O697    1.927   .     S
Cu662  O694    1.946   .     S
Cu662  N689    2.019   .     S
Cu662  O693    1.950   .     S
H664   C869    1.088   .     S
H665   N829    1.029   1_455 S
H666   N760    1.029   .     S
H668   C788    1.116   1_455 S
H671   C860    1.110   .     S
H672   C860    1.111   .     S
H677   C1072   1.112   1_545 S
H678   C1072   1.112   1_545 S
H680   C1074   1.111   1_545 S
H684   C705    1.083   .     S
H685   C776    1.083   1_455 S
H688   C1078   1.088   1_545 S
N689   H735    1.029   .     S
N689   N760    1.282   .     S
N690   H806    1.029   1_455 S
N690   N829    1.282   1_455 S
O692   C721    1.411   .     S
O700   C726    1.399   .     S
C701   C728    1.425   .     S
C701   O764    1.285   .     A
C701   O761    1.290   .     A
C702   C704    1.468   .     S
C702   O769    1.295   .     A
C702   O767    1.302   .     A
C703   C709    1.398   .     A
C703   C730    1.469   .     S
C703   C707    1.398   .     A
C704   C710    1.396   .     A
C704   C708    1.397   .     A
C705   C707    1.394   .     A
C705   C714    1.410   .     A
C706   C708    1.395   .     A
C706   C715    1.409   .     A
C706   H825    1.083   .     S
C707   H753    1.083   .     S
C708   H752    1.083   .     S
C709   C711    1.405   .     A
C709   H744    1.079   .     S
C710   H733    1.078   .     S
C710   C713    1.405   .     A
C711   C714    1.420   .     A
C711   C716    1.420   .     A
C712   C729    1.425   .     S
C712   O765    1.285   .     A
C712   O763    1.290   .     A
C713   C717    1.426   .     A
C713   C715    1.421   .     A
C714   C96     1.405   1_556 S
C716   C725    1.413   .     A
C716   C87     1.413   1_556 S
C717   C723    1.416   .     A
C718   O770    1.414   .     S
C718   H737    1.112   .     S
C718   C719    1.529   .     S
C718   H808    1.116   .     S
C719   H739    1.111   .     S
C719   H740    1.111   .     S
C719   C720    1.527   .     S
C720   H743    1.111   .     S
C720   H1161   1.110   1_545 S
C720   H1162   1.111   1_545 S
C721   C722    1.529   .     S
C721   H746    1.110   .     S
C721   H745    1.115   .     S
C722   C724    1.526   .     S
C722   H957    1.112   .     S
C722   H958    1.112   .     S
C723   H756    1.074   .     S
C723   C726    1.411   .     A
C724   H751    1.111   .     S
C724   H749    1.110   .     S
C724   H960    1.111   .     S
C725   C727    1.398   .     A
C725   H757    1.080   .     S
C727   O762    1.386   .     S
C727   C85     1.402   1_556 S
C728   C939    1.328   .     S
C728   H968    1.088   .     S
C729   C1148   1.328   1_545 S
C729   H1154   1.088   1_545 S
C730   O766    1.301   .     A
C730   O768    1.296   .     A
Cu731  N760    2.019   .     S
Cu731  O761    1.950   .     S
Cu731  O769    1.905   .     S
Cu731  Cu732   2.687   .     S
Cu731  O765    1.946   .     S
Cu731  O766    1.927   .     S
Cu732  O768    1.905   .     S
Cu732  O767    1.927   .     S
Cu732  O764    1.946   .     S
Cu732  N759    2.019   .     S
Cu732  O763    1.950   .     S
H734   C939    1.088   .     S
H736   N830    1.029   .     S
H741   C930    1.110   .     S
H742   C930    1.111   .     S
H747   C1142   1.112   1_545 S
H748   C1142   1.112   1_545 S
H750   C1144   1.111   1_545 S
H754   C775    1.083   .     S
H758   C1148   1.088   1_545 S
N759   H805    1.029   .     S
N759   N830    1.282   .     S
O762   C791    1.411   .     S
O770   C796    1.399   .     S
C771   C798    1.425   .     S
C771   O834    1.285   .     A
C771   O831    1.290   .     A
C772   C774    1.468   .     S
C772   O839    1.295   .     A
C772   O837    1.302   .     A
C773   C779    1.398   .     A
C773   C800    1.469   .     S
C773   C777    1.398   .     A
C774   C780    1.396   .     A
C774   C778    1.397   .     A
C775   C777    1.394   .     A
C775   C784    1.410   .     A
C776   C778    1.395   .     A
C776   C785    1.409   .     A
C776   H685    1.083   1_655 S
C777   H823    1.083   .     S
C778   H822    1.083   .     S
C779   C781    1.405   .     A
C779   H814    1.079   .     S
C780   H803    1.078   .     S
C780   C783    1.405   .     A
C781   C784    1.420   .     A
C781   C786    1.420   .     A
C782   C799    1.425   .     S
C782   O835    1.285   .     A
C782   O833    1.290   .     A
C783   C787    1.426   .     A
C783   C785    1.421   .     A
C784   C166    1.405   1_556 S
C786   C795    1.413   .     A
C786   C157    1.413   1_556 S
C787   C793    1.416   .     A
C788   O840    1.414   .     S
C788   H807    1.112   .     S
C788   C789    1.529   .     S
C788   H668    1.116   1_655 S
C789   H809    1.111   .     S
C789   H810    1.111   .     S
C789   C790    1.527   .     S
C790   H813    1.111   .     S
C790   H1231   1.110   1_545 S
C790   H1232   1.111   1_545 S
C791   C792    1.529   .     S
C791   H816    1.110   .     S
C791   H815    1.115   .     S
C792   C794    1.526   .     S
C792   H1027   1.112   .     S
C792   H1028   1.112   .     S
C793   H826    1.074   .     S
C793   C796    1.411   .     A
C794   H821    1.111   .     S
C794   H819    1.110   .     S
C794   H1030   1.111   .     S
C795   C797    1.398   .     A
C795   H827    1.080   .     S
C797   O832    1.386   .     S
C797   C155    1.402   1_556 S
C798   C1009   1.328   .     S
C798   H1038   1.088   .     S
C799   C1218   1.328   1_545 S
C799   H1224   1.088   1_545 S
C800   O836    1.301   .     A
C800   O838    1.296   .     A
Cu801  N830    2.019   .     S
Cu801  O831    1.950   .     S
Cu801  O839    1.905   .     S
Cu801  Cu802   2.687   .     S
Cu801  O835    1.946   .     S
Cu801  O836    1.927   .     S
Cu802  O838    1.905   .     S
Cu802  O837    1.927   .     S
Cu802  O834    1.946   .     S
Cu802  N829    2.019   .     S
Cu802  O833    1.950   .     S
H804   C1009   1.088   .     S
H806   N690    1.029   1_655 S
H811   C1000   1.110   .     S
H812   C1000   1.111   .     S
H817   C1212   1.112   1_545 S
H818   C1212   1.112   1_545 S
H820   C1214   1.111   1_545 S
H824   C635    1.083   1_655 S
H828   C1218   1.088   1_545 S
N829   H665    1.029   1_655 S
N829   N690    1.282   1_655 S
O832   C651    1.411   1_655 S
O840   C656    1.399   1_655 S
C841   C868    1.425   .     S
C841   O904    1.285   .     A
C841   O901    1.290   .     A
C842   C844    1.468   .     S
C842   O909    1.295   .     A
C842   O907    1.302   .     A
C843   C849    1.398   .     A
C843   C870    1.469   .     S
C843   C847    1.398   .     A
C844   C850    1.396   .     A
C844   C848    1.397   .     A
C845   C847    1.394   .     A
C845   C854    1.410   .     A
C845   H1034   1.083   1_455 S
C846   C848    1.395   .     A
C846   C855    1.409   .     A
C846   H965    1.083   .     S
C847   H893    1.083   .     S
C848   H892    1.083   .     S
C849   C851    1.405   .     A
C849   H884    1.079   .     S
C850   H873    1.078   .     S
C850   C853    1.405   .     A
C851   C854    1.420   .     A
C851   C856    1.420   .     A
C852   C869    1.425   .     S
C852   O905    1.285   .     A
C852   O903    1.290   .     A
C853   C857    1.426   .     A
C853   C855    1.421   .     A
C854   C236    1.405   1_556 S
C856   C865    1.413   .     A
C856   C227    1.413   1_556 S
C857   C863    1.416   .     A
C858   O910    1.414   .     S
C858   H877    1.112   .     S
C858   C859    1.529   .     S
C858   H948    1.116   .     S
C859   H879    1.111   .     S
C859   H880    1.111   .     S
C859   C860    1.527   .     S
C860   H883    1.111   .     S
C861   C862    1.529   .     S
C861   H886    1.110   .     S
C861   H885    1.115   .     S
C861   O1042   1.411   1_455 S
C862   C864    1.526   .     S
C862   H1097   1.112   .     S
C862   H1098   1.112   .     S
C863   H896    1.074   .     S
C863   C866    1.411   .     A
C864   H891    1.111   .     S
C864   H889    1.110   .     S
C864   H1100   1.111   .     S
C865   C867    1.398   .     A
C865   H897    1.080   .     S
C866   O1050   1.399   1_455 S
C867   O902    1.386   .     S
C867   C225    1.402   1_556 S
C868   C1079   1.328   .     S
C868   H1108   1.088   .     S
C870   O906    1.301   .     A
C870   O908    1.296   .     A
Cu871  N900    2.019   .     S
Cu871  O901    1.950   .     S
Cu871  O909    1.905   .     S
Cu871  Cu872   2.687   .     S
Cu871  O905    1.946   .     S
Cu871  O906    1.927   .     S
Cu872  O908    1.905   .     S
Cu872  O907    1.927   .     S
Cu872  O904    1.946   .     S
Cu872  N899    2.019   .     S
Cu872  O903    1.950   .     S
H874   C1079   1.088   .     S
H875   N1039   1.029   1_455 S
H876   N970    1.029   .     S
H878   C998    1.116   1_455 S
H881   C1070   1.110   .     S
H882   C1070   1.111   .     S
H894   C915    1.083   .     S
H895   C986    1.083   1_455 S
N899   H945    1.029   .     S
N899   N970    1.282   .     S
N900   H1016   1.029   1_455 S
N900   N1039   1.282   1_455 S
O902   C931    1.411   .     S
O910   C936    1.399   .     S
C911   C938    1.425   .     S
C911   O974    1.285   .     A
C911   O971    1.290   .     A
C912   C914    1.468   .     S
C912   O979    1.295   .     A
C912   O977    1.302   .     A
C913   C919    1.398   .     A
C913   C940    1.469   .     S
C913   C917    1.398   .     A
C914   C920    1.396   .     A
C914   C918    1.397   .     A
C915   C917    1.394   .     A
C915   C924    1.410   .     A
C916   C918    1.395   .     A
C916   C925    1.409   .     A
C916   H1035   1.083   .     S
C917   H963    1.083   .     S
C918   H962    1.083   .     S
C919   C921    1.405   .     A
C919   H954    1.079   .     S
C920   H943    1.078   .     S
C920   C923    1.405   .     A
C921   C924    1.420   .     A
C921   C926    1.420   .     A
C922   C939    1.425   .     S
C922   O975    1.285   .     A
C922   O973    1.290   .     A
C923   C927    1.426   .     A
C923   C925    1.421   .     A
C924   C306    1.405   1_556 S
C926   C935    1.413   .     A
C926   C297    1.413   1_556 S
C927   C933    1.416   .     A
C928   O980    1.414   .     S
C928   H947    1.112   .     S
C928   C929    1.529   .     S
C928   H1018   1.116   .     S
C929   H949    1.111   .     S
C929   H950    1.111   .     S
C929   C930    1.527   .     S
C930   H953    1.111   .     S
C931   C932    1.529   .     S
C931   H956    1.110   .     S
C931   H955    1.115   .     S
C932   C934    1.526   .     S
C932   H1167   1.112   .     S
C932   H1168   1.112   .     S
C933   H966    1.074   .     S
C933   C936    1.411   .     A
C934   H961    1.111   .     S
C934   H959    1.110   .     S
C934   H1170   1.111   .     S
C935   C937    1.398   .     A
C935   H967    1.080   .     S
C937   O972    1.386   .     S
C937   C295    1.402   1_556 S
C938   C1149   1.328   .     S
C938   H1178   1.088   .     S
C940   O976    1.301   .     A
C940   O978    1.296   .     A
Cu941  N970    2.019   .     S
Cu941  O971    1.950   .     S
Cu941  O979    1.905   .     S
Cu941  Cu942   2.687   .     S
Cu941  O975    1.946   .     S
Cu941  O976    1.927   .     S
Cu942  O978    1.905   .     S
Cu942  O977    1.927   .     S
Cu942  O974    1.946   .     S
Cu942  N969    2.019   .     S
Cu942  O973    1.950   .     S
H944   C1149   1.088   .     S
H946   N1040   1.029   .     S
H951   C1140   1.110   .     S
H952   C1140   1.111   .     S
H964   C985    1.083   .     S
N969   H1015   1.029   .     S
N969   N1040   1.282   .     S
O972   C1001   1.411   .     S
O980   C1006   1.399   .     S
C981   C1008   1.425   .     S
C981   O1044   1.285   .     A
C981   O1041   1.290   .     A
C982   C984    1.468   .     S
C982   O1049   1.295   .     A
C982   O1047   1.302   .     A
C983   C989    1.398   .     A
C983   C1010   1.469   .     S
C983   C987    1.398   .     A
C984   C990    1.396   .     A
C984   C988    1.397   .     A
C985   C987    1.394   .     A
C985   C994    1.410   .     A
C986   C988    1.395   .     A
C986   C995    1.409   .     A
C986   H895    1.083   1_655 S
C987   H1033   1.083   .     S
C988   H1032   1.083   .     S
C989   C991    1.405   .     A
C989   H1024   1.079   .     S
C990   H1013   1.078   .     S
C990   C993    1.405   .     A
C991   C994    1.420   .     A
C991   C996    1.420   .     A
C992   C1009   1.425   .     S
C992   O1045   1.285   .     A
C992   O1043   1.290   .     A
C993   C997    1.426   .     A
C993   C995    1.421   .     A
C994   C376    1.405   1_556 S
C996   C1005   1.413   .     A
C996   C367    1.413   1_556 S
C997   C1003   1.416   .     A
C998   O1050   1.414   .     S
C998   H1017   1.112   .     S
C998   C999    1.529   .     S
C998   H878    1.116   1_655 S
C999   H1019   1.111   .     S
C999   H1020   1.111   .     S
C999   C1000   1.527   .     S
C1000  H1023   1.111   .     S
C1001  C1002   1.529   .     S
C1001  H1026   1.110   .     S
C1001  H1025   1.115   .     S
C1002  C1004   1.526   .     S
C1002  H1237   1.112   .     S
C1002  H1238   1.112   .     S
C1003  H1036   1.074   .     S
C1003  C1006   1.411   .     A
C1004  H1031   1.111   .     S
C1004  H1029   1.110   .     S
C1004  H1240   1.111   .     S
C1005  C1007   1.398   .     A
C1005  H1037   1.080   .     S
C1007  O1042   1.386   .     S
C1007  C365    1.402   1_556 S
C1008  C1219   1.328   .     S
C1008  H1248   1.088   .     S
C1010  O1046   1.301   .     A
C1010  O1048   1.296   .     A
Cu1011 N1040   2.019   .     S
Cu1011 O1041   1.950   .     S
Cu1011 O1049   1.905   .     S
Cu1011 Cu1012  2.687   .     S
Cu1011 O1045   1.946   .     S
Cu1011 O1046   1.927   .     S
Cu1012 O1048   1.905   .     S
Cu1012 O1047   1.927   .     S
Cu1012 O1044   1.946   .     S
Cu1012 N1039   2.019   .     S
Cu1012 O1043   1.950   .     S
H1014  C1219   1.088   .     S
H1016  N900    1.029   1_655 S
H1021  C1210   1.110   .     S
H1022  C1210   1.111   .     S
H1034  C845    1.083   1_655 S
N1039  H875    1.029   1_655 S
N1039  N900    1.282   1_655 S
O1042  C861    1.411   1_655 S
O1050  C866    1.399   1_655 S
C1051  C1078   1.425   .     S
C1051  O1114   1.285   .     A
C1051  O1111   1.290   .     A
C1052  C1054   1.468   .     S
C1052  O1119   1.295   .     A
C1052  O1117   1.302   .     A
C1053  C1059   1.398   .     A
C1053  C1080   1.469   .     S
C1053  C1057   1.398   .     A
C1054  C1060   1.396   .     A
C1054  C1058   1.397   .     A
C1055  C1057   1.394   .     A
C1055  C1064   1.410   .     A
C1055  H1244   1.083   1_455 S
C1056  C1058   1.395   .     A
C1056  C1065   1.409   .     A
C1056  H1175   1.083   .     S
C1057  H1103   1.083   .     S
C1058  H1102   1.083   .     S
C1059  C1061   1.405   .     A
C1059  H1094   1.079   .     S
C1060  H1083   1.078   .     S
C1060  C1063   1.405   .     A
C1061  C1064   1.420   .     A
C1061  C1066   1.420   .     A
C1062  C1079   1.425   .     S
C1062  O1115   1.285   .     A
C1062  O1113   1.290   .     A
C1063  C1067   1.426   .     A
C1063  C1065   1.421   .     A
C1064  C446    1.405   1_556 S
C1066  C1075   1.413   .     A
C1066  C437    1.413   1_556 S
C1067  C1073   1.416   .     A
C1068  O1120   1.414   .     S
C1068  H1087   1.112   .     S
C1068  C1069   1.529   .     S
C1068  H1158   1.116   .     S
C1069  H1089   1.111   .     S
C1069  H1090   1.111   .     S
C1069  C1070   1.527   .     S
C1070  H1093   1.111   .     S
C1071  C1072   1.529   .     S
C1071  H1096   1.110   .     S
C1071  H1095   1.115   .     S
C1071  O1252   1.411   1_455 S
C1072  C1074   1.526   .     S
C1072  H677    1.112   1_565 S
C1072  H678    1.112   1_565 S
C1073  H1106   1.074   .     S
C1073  C1076   1.411   .     A
C1074  H1101   1.111   .     S
C1074  H1099   1.110   .     S
C1074  H680    1.111   1_565 S
C1075  C1077   1.398   .     A
C1075  H1107   1.080   .     S
C1076  O1260   1.399   1_455 S
C1077  O1112   1.386   .     S
C1077  C435    1.402   1_556 S
C1078  C659    1.328   1_565 S
C1078  H688    1.088   1_565 S
C1080  O1116   1.301   .     A
C1080  O1118   1.296   .     A
Cu1081 N1110   2.019   .     S
Cu1081 O1111   1.950   .     S
Cu1081 O1119   1.905   .     S
Cu1081 Cu1082  2.687   .     S
Cu1081 O1115   1.946   .     S
Cu1081 O1116   1.927   .     S
Cu1082 O1118   1.905   .     S
Cu1082 O1117   1.927   .     S
Cu1082 O1114   1.946   .     S
Cu1082 N1109   2.019   .     S
Cu1082 O1113   1.950   .     S
H1084  C659    1.088   1_565 S
H1085  N1249   1.029   1_455 S
H1086  N1180   1.029   .     S
H1088  C1208   1.116   1_455 S
H1091  C650    1.110   1_565 S
H1092  C650    1.111   1_565 S
H1104  C1125   1.083   .     S
H1105  C1196   1.083   1_455 S
N1109  H1155   1.029   .     S
N1109  N1180   1.282   .     S
N1110  H1226   1.029   1_455 S
N1110  N1249   1.282   1_455 S
O1112  C1141   1.411   .     S
O1120  C1146   1.399   .     S
C1121  C1148   1.425   .     S
C1121  O1184   1.285   .     A
C1121  O1181   1.290   .     A
C1122  C1124   1.468   .     S
C1122  O1189   1.295   .     A
C1122  O1187   1.302   .     A
C1123  C1129   1.398   .     A
C1123  C1150   1.469   .     S
C1123  C1127   1.398   .     A
C1124  C1130   1.396   .     A
C1124  C1128   1.397   .     A
C1125  C1127   1.394   .     A
C1125  C1134   1.410   .     A
C1126  C1128   1.395   .     A
C1126  C1135   1.409   .     A
C1126  H1245   1.083   .     S
C1127  H1173   1.083   .     S
C1128  H1172   1.083   .     S
C1129  C1131   1.405   .     A
C1129  H1164   1.079   .     S
C1130  H1153   1.078   .     S
C1130  C1133   1.405   .     A
C1131  C1134   1.420   .     A
C1131  C1136   1.420   .     A
C1132  C1149   1.425   .     S
C1132  O1185   1.285   .     A
C1132  O1183   1.290   .     A
C1133  C1137   1.426   .     A
C1133  C1135   1.421   .     A
C1134  C516    1.405   1_556 S
C1136  C1145   1.413   .     A
C1136  C507    1.413   1_556 S
C1137  C1143   1.416   .     A
C1138  O1190   1.414   .     S
C1138  H1157   1.112   .     S
C1138  C1139   1.529   .     S
C1138  H1228   1.116   .     S
C1139  H1159   1.111   .     S
C1139  H1160   1.111   .     S
C1139  C1140   1.527   .     S
C1140  H1163   1.111   .     S
C1141  C1142   1.529   .     S
C1141  H1166   1.110   .     S
C1141  H1165   1.115   .     S
C1142  C1144   1.526   .     S
C1142  H747    1.112   1_565 S
C1142  H748    1.112   1_565 S
C1143  H1176   1.074   .     S
C1143  C1146   1.411   .     A
C1144  H1171   1.111   .     S
C1144  H1169   1.110   .     S
C1144  H750    1.111   1_565 S
C1145  C1147   1.398   .     A
C1145  H1177   1.080   .     S
C1147  O1182   1.386   .     S
C1147  C505    1.402   1_556 S
C1148  C729    1.328   1_565 S
C1148  H758    1.088   1_565 S
C1150  O1186   1.301   .     A
C1150  O1188   1.296   .     A
Cu1151 N1180   2.019   .     S
Cu1151 O1181   1.950   .     S
Cu1151 O1189   1.905   .     S
Cu1151 Cu1152  2.687   .     S
Cu1151 O1185   1.946   .     S
Cu1151 O1186   1.927   .     S
Cu1152 O1188   1.905   .     S
Cu1152 O1187   1.927   .     S
Cu1152 O1184   1.946   .     S
Cu1152 N1179   2.019   .     S
Cu1152 O1183   1.950   .     S
H1154  C729    1.088   1_565 S
H1156  N1250   1.029   .     S
H1161  C720    1.110   1_565 S
H1162  C720    1.111   1_565 S
H1174  C1195   1.083   .     S
N1179  H1225   1.029   .     S
N1179  N1250   1.282   .     S
O1182  C1211   1.411   .     S
O1190  C1216   1.399   .     S
C1191  C1218   1.425   .     S
C1191  O1254   1.285   .     A
C1191  O1251   1.290   .     A
C1192  C1194   1.468   .     S
C1192  O1259   1.295   .     A
C1192  O1257   1.302   .     A
C1193  C1199   1.398   .     A
C1193  C1220   1.469   .     S
C1193  C1197   1.398   .     A
C1194  C1200   1.396   .     A
C1194  C1198   1.397   .     A
C1195  C1197   1.394   .     A
C1195  C1204   1.410   .     A
C1196  C1198   1.395   .     A
C1196  C1205   1.409   .     A
C1196  H1105   1.083   1_655 S
C1197  H1243   1.083   .     S
C1198  H1242   1.083   .     S
C1199  C1201   1.405   .     A
C1199  H1234   1.079   .     S
C1200  H1223   1.078   .     S
C1200  C1203   1.405   .     A
C1201  C1204   1.420   .     A
C1201  C1206   1.420   .     A
C1202  C1219   1.425   .     S
C1202  O1255   1.285   .     A
C1202  O1253   1.290   .     A
C1203  C1207   1.426   .     A
C1203  C1205   1.421   .     A
C1204  C586    1.405   1_556 S
C1206  C1215   1.413   .     A
C1206  C577    1.413   1_556 S
C1207  C1213   1.416   .     A
C1208  O1260   1.414   .     S
C1208  H1227   1.112   .     S
C1208  C1209   1.529   .     S
C1208  H1088   1.116   1_655 S
C1209  H1229   1.111   .     S
C1209  H1230   1.111   .     S
C1209  C1210   1.527   .     S
C1210  H1233   1.111   .     S
C1211  C1212   1.529   .     S
C1211  H1236   1.110   .     S
C1211  H1235   1.115   .     S
C1212  C1214   1.526   .     S
C1212  H817    1.112   1_565 S
C1212  H818    1.112   1_565 S
C1213  H1246   1.074   .     S
C1213  C1216   1.411   .     A
C1214  H1241   1.111   .     S
C1214  H1239   1.110   .     S
C1214  H820    1.111   1_565 S
C1215  C1217   1.398   .     A
C1215  H1247   1.080   .     S
C1217  O1252   1.386   .     S
C1217  C575    1.402   1_556 S
C1218  C799    1.328   1_565 S
C1218  H828    1.088   1_565 S
C1220  O1256   1.301   .     A
C1220  O1258   1.296   .     A
Cu1221 N1250   2.019   .     S
Cu1221 O1251   1.950   .     S
Cu1221 O1259   1.905   .     S
Cu1221 Cu1222  2.687   .     S
Cu1221 O1255   1.946   .     S
Cu1221 O1256   1.927   .     S
Cu1222 O1258   1.905   .     S
Cu1222 O1257   1.927   .     S
Cu1222 O1254   1.946   .     S
Cu1222 N1249   2.019   .     S
Cu1222 O1253   1.950   .     S
H1224  C799    1.088   1_565 S
H1226  N1110   1.029   1_655 S
H1231  C790    1.110   1_565 S
H1232  C790    1.111   1_565 S
H1244  C1055   1.083   1_655 S
N1249  H1085   1.029   1_655 S
N1249  N1110   1.282   1_655 S
O1252  C1071   1.411   1_655 S
O1260  C1076   1.399   1_655 S
