data_str_m2_o1_o18_pcu_sym.91
_audit_creation_date              2020-01-03
_audit_creation_method            'Materials Studio'
_symmetry_space_group_name_H-M    'P1'
_symmetry_Int_Tables_number       1
_symmetry_cell_setting            triclinic
loop_
_symmetry_equiv_pos_as_xyz
  x,y,z
_cell_length_a                    28.8687
_cell_length_b                    32.3213
_cell_length_c                    31.1131
_cell_angle_alpha                 88.1331
_cell_angle_beta                  73.7520
_cell_angle_gamma                 91.4764
loop_
_atom_site_label
_atom_site_type_symbol
_atom_site_fract_x
_atom_site_fract_y
_atom_site_fract_z
_atom_site_U_iso_or_equiv
_atom_site_adp_type
_atom_site_occupancy
C1     C     0.33291   0.08748   0.25011   0.00000  Uiso   1.00
C2     C     0.02695   0.02144   0.27365   0.00000  Uiso   1.00
C3     C     0.00083   0.29052   0.24956   0.00000  Uiso   1.00
C4     C     0.33253   0.04281   0.25039   0.00000  Uiso   1.00
C5     C     0.18170   0.13659   0.27434   0.00000  Uiso   1.00
C6     C     0.15164   0.19673   0.22564   0.00000  Uiso   1.00
C7     C     0.13286   0.13729   0.27373   0.00000  Uiso   1.00
C8     C     0.20048   0.19604   0.22626   0.00000  Uiso   1.00
C9     C     0.30597   0.16666   0.33592   0.00000  Uiso   1.00
C10    C     0.02739   0.16730   0.16409   0.00000  Uiso   1.00
C11    C     0.29074   0.16643   0.38502   0.00000  Uiso   1.00
C12    C     0.00043   0.24585   0.24987   0.00000  Uiso   1.00
C13    C     0.04304   0.17207   0.11511   0.00000  Uiso   1.00
C14    C     0.30726   0.15631   0.45653   0.00000  Uiso   1.00
C15    C     0.02945   0.19526   0.04518   0.00000  Uiso   1.00
C16    C     0.32332   0.15854   0.40995   0.00000  Uiso   1.00
C17    C     0.01194   0.18654   0.09109   0.00000  Uiso   1.00
C18    C     0.24242   0.17324   0.40706   0.00000  Uiso   1.00
C19    C     0.09133   0.16569   0.09280   0.00000  Uiso   1.00
C20    C     0.22556   0.17239   0.45403   0.00000  Uiso   1.00
C21    C     0.11044   0.17608   0.04696   0.00000  Uiso   1.00
C22    C     0.25870   0.16276   0.47870   0.00000  Uiso   1.00
C23    C     0.19488   0.16401   0.04775   0.00000  Uiso   1.00
C24    C     0.07829   0.19004   0.02295   0.00000  Uiso   1.00
C25    C     0.17648   0.17943   0.47704   0.00000  Uiso   1.00
C26    C     0.16038   0.17277   0.02440   0.00000  Uiso   1.00
C27    C     0.14320   0.19355   0.45440   0.00000  Uiso   1.00
C28    C     0.24306   0.15932   0.02522   0.00000  Uiso   1.00
C29    C     0.09520   0.19901   0.47710   0.00000  Uiso   1.00
C30    C     0.30585   0.02139   0.22649   0.00000  Uiso   1.00
C31    C     0.02753   0.31194   0.27344   0.00000  Uiso   1.00
C32    C     0.30642   0.31189   0.22630   0.00000  Uiso   1.00
Cu33   Cu    0.04689   0.16667   0.25000   0.00000  Uiso   1.00
Cu34   Cu    0.28645   0.16666   0.25000   0.00000  Uiso   1.00
H35    H     0.26813   0.15234   0.04445   0.00000  Uiso   1.00
H36    H     0.21831   0.17789   0.38667   0.00000  Uiso   1.00
H37    H     0.30781   0.19203   0.10788   0.00000  Uiso   1.00
H38    H     0.02753   0.15306   0.39352   0.00000  Uiso   1.00
H39    H     0.33271   0.14892   0.47521   0.00000  Uiso   1.00
H40    H     0.00501   0.20685   0.02717   0.00000  Uiso   1.00
H41    H     0.28537   0.03778   0.20745   0.00000  Uiso   1.00
H42    H     0.04803   0.29555   0.29247   0.00000  Uiso   1.00
H43    H     0.14872   0.04664   0.35199   0.00000  Uiso   1.00
H44    H     0.18460   0.28633   0.14746   0.00000  Uiso   1.00
H45    H     0.07105   0.21017   0.45850   0.00000  Uiso   1.00
H46    H     0.18623   0.16167   0.08375   0.00000  Uiso   1.00
H47    H     0.15328   0.20203   0.41917   0.00000  Uiso   1.00
H48    H     0.28575   0.29549   0.20758   0.00000  Uiso   1.00
H49    H     0.04763   0.03784   0.29236   0.00000  Uiso   1.00
H50    H     0.10681   0.11376   0.29184   0.00000  Uiso   1.00
H51    H     0.22653   0.21957   0.20815   0.00000  Uiso   1.00
H52    H     0.11319   0.15232   0.11216   0.00000  Uiso   1.00
N53    N     0.11736   0.16668   0.24999   0.00000  Uiso   1.00
N54    N     0.21597   0.16666   0.25001   0.00000  Uiso   1.00
O55    O     0.03958   0.10655   0.25000   0.00000  Uiso   1.00
O56    O     0.23027   0.09806   0.32920   0.00000  Uiso   1.00
O57    O     0.14197   0.07472   0.34207   0.00000  Uiso   1.00
O58    O     0.10301   0.23531   0.17083   0.00000  Uiso   1.00
O59    O     0.12444   0.27505   0.22855   0.00000  Uiso   1.00
O60    O     0.19141   0.25839   0.15771   0.00000  Uiso   1.00
O61    O     0.29375   0.22678   0.25000   0.00000  Uiso   1.00
O62    O     0.29372   0.10654   0.25000   0.00000  Uiso   1.00
O63    O     0.03961   0.22679   0.25000   0.00000  Uiso   1.00
O64    O     0.01852   0.16668   0.31491   0.00000  Uiso   1.00
O65    O     0.31481   0.16666   0.18508   0.00000  Uiso   1.00
O66    O     0.27267   0.16667   0.31492   0.00000  Uiso   1.00
O67    O     0.06067   0.16667   0.18508   0.00000  Uiso   1.00
O68    O     0.20914   0.05834   0.27129   0.00000  Uiso   1.00
S69    S     0.19345   0.09172   0.30418   0.00000  Uiso   1.00
S70    S     0.13993   0.24158   0.19573   0.00000  Uiso   1.00
C71    C     0.66624   0.08748   0.25011   0.00000  Uiso   1.00
C72    C     0.36028   0.02144   0.27365   0.00000  Uiso   1.00
C73    C     0.33416   0.29052   0.24956   0.00000  Uiso   1.00
C74    C     0.66586   0.04281   0.25039   0.00000  Uiso   1.00
C75    C     0.51503   0.13659   0.27434   0.00000  Uiso   1.00
C76    C     0.48497   0.19673   0.22564   0.00000  Uiso   1.00
C77    C     0.46619   0.13729   0.27373   0.00000  Uiso   1.00
C78    C     0.53381   0.19604   0.22626   0.00000  Uiso   1.00
C79    C     0.63930   0.16666   0.33592   0.00000  Uiso   1.00
C80    C     0.36073   0.16730   0.16409   0.00000  Uiso   1.00
C81    C     0.62407   0.16643   0.38502   0.00000  Uiso   1.00
C82    C     0.33377   0.24585   0.24987   0.00000  Uiso   1.00
C83    C     0.37637   0.17207   0.11511   0.00000  Uiso   1.00
C84    C     0.64060   0.15631   0.45653   0.00000  Uiso   1.00
C85    C     0.36279   0.19526   0.04518   0.00000  Uiso   1.00
C86    C     0.65665   0.15854   0.40995   0.00000  Uiso   1.00
C87    C     0.34527   0.18654   0.09109   0.00000  Uiso   1.00
C88    C     0.57576   0.17324   0.40706   0.00000  Uiso   1.00
C89    C     0.42466   0.16569   0.09280   0.00000  Uiso   1.00
C90    C     0.55889   0.17239   0.45403   0.00000  Uiso   1.00
C91    C     0.44378   0.17608   0.04696   0.00000  Uiso   1.00
C92    C     0.59203   0.16276   0.47870   0.00000  Uiso   1.00
C93    C     0.52821   0.16401   0.04775   0.00000  Uiso   1.00
C94    C     0.41163   0.19004   0.02295   0.00000  Uiso   1.00
C95    C     0.50982   0.17943   0.47704   0.00000  Uiso   1.00
C96    C     0.49371   0.17277   0.02440   0.00000  Uiso   1.00
C97    C     0.47653   0.19355   0.45440   0.00000  Uiso   1.00
C98    C     0.57639   0.15932   0.02522   0.00000  Uiso   1.00
C99    C     0.42853   0.19901   0.47710   0.00000  Uiso   1.00
C100   C     0.63919   0.02139   0.22649   0.00000  Uiso   1.00
C101   C     0.36086   0.31194   0.27344   0.00000  Uiso   1.00
C102   C     0.63976   0.31189   0.22630   0.00000  Uiso   1.00
Cu103  Cu    0.38022   0.16667   0.25000   0.00000  Uiso   1.00
Cu104  Cu    0.61978   0.16666   0.25000   0.00000  Uiso   1.00
H105   H     0.60146   0.15234   0.04445   0.00000  Uiso   1.00
H106   H     0.55164   0.17789   0.38667   0.00000  Uiso   1.00
H107   H     0.64115   0.19203   0.10788   0.00000  Uiso   1.00
H108   H     0.36087   0.15306   0.39352   0.00000  Uiso   1.00
H109   H     0.66605   0.14892   0.47521   0.00000  Uiso   1.00
H110   H     0.33834   0.20685   0.02717   0.00000  Uiso   1.00
H111   H     0.61870   0.03778   0.20745   0.00000  Uiso   1.00
H112   H     0.38136   0.29555   0.29247   0.00000  Uiso   1.00
H113   H     0.48206   0.04664   0.35199   0.00000  Uiso   1.00
H114   H     0.51793   0.28633   0.14746   0.00000  Uiso   1.00
H115   H     0.40439   0.21017   0.45850   0.00000  Uiso   1.00
H116   H     0.51956   0.16167   0.08375   0.00000  Uiso   1.00
H117   H     0.48662   0.20203   0.41917   0.00000  Uiso   1.00
H118   H     0.61908   0.29549   0.20758   0.00000  Uiso   1.00
H119   H     0.38096   0.03784   0.29236   0.00000  Uiso   1.00
H120   H     0.44014   0.11376   0.29184   0.00000  Uiso   1.00
H121   H     0.55986   0.21957   0.20815   0.00000  Uiso   1.00
H122   H     0.44652   0.15232   0.11216   0.00000  Uiso   1.00
N123   N     0.45069   0.16668   0.24999   0.00000  Uiso   1.00
N124   N     0.54931   0.16666   0.25001   0.00000  Uiso   1.00
O125   O     0.37291   0.10655   0.25000   0.00000  Uiso   1.00
O126   O     0.56360   0.09806   0.32920   0.00000  Uiso   1.00
O127   O     0.47530   0.07472   0.34207   0.00000  Uiso   1.00
O128   O     0.43634   0.23531   0.17083   0.00000  Uiso   1.00
O129   O     0.45777   0.27505   0.22855   0.00000  Uiso   1.00
O130   O     0.52474   0.25839   0.15771   0.00000  Uiso   1.00
O131   O     0.62709   0.22678   0.25000   0.00000  Uiso   1.00
O132   O     0.62706   0.10654   0.25000   0.00000  Uiso   1.00
O133   O     0.37294   0.22679   0.25000   0.00000  Uiso   1.00
O134   O     0.35186   0.16668   0.31491   0.00000  Uiso   1.00
O135   O     0.64814   0.16666   0.18508   0.00000  Uiso   1.00
O136   O     0.60600   0.16667   0.31492   0.00000  Uiso   1.00
O137   O     0.39400   0.16667   0.18508   0.00000  Uiso   1.00
O138   O     0.54248   0.05834   0.27129   0.00000  Uiso   1.00
S139   S     0.52678   0.09172   0.30418   0.00000  Uiso   1.00
S140   S     0.47327   0.24158   0.19573   0.00000  Uiso   1.00
C141   C     0.99957   0.08748   0.25011   0.00000  Uiso   1.00
C142   C     0.69362   0.02144   0.27365   0.00000  Uiso   1.00
C143   C     0.66750   0.29052   0.24956   0.00000  Uiso   1.00
C144   C     0.99920   0.04281   0.25039   0.00000  Uiso   1.00
C145   C     0.84837   0.13659   0.27434   0.00000  Uiso   1.00
C146   C     0.81830   0.19673   0.22564   0.00000  Uiso   1.00
C147   C     0.79952   0.13729   0.27373   0.00000  Uiso   1.00
C148   C     0.86715   0.19604   0.22626   0.00000  Uiso   1.00
C149   C     0.97263   0.16666   0.33592   0.00000  Uiso   1.00
C150   C     0.69406   0.16730   0.16409   0.00000  Uiso   1.00
C151   C     0.95741   0.16643   0.38502   0.00000  Uiso   1.00
C152   C     0.66710   0.24585   0.24987   0.00000  Uiso   1.00
C153   C     0.70971   0.17207   0.11511   0.00000  Uiso   1.00
C154   C     0.97393   0.15631   0.45653   0.00000  Uiso   1.00
C155   C     0.69612   0.19526   0.04518   0.00000  Uiso   1.00
C156   C     0.98999   0.15854   0.40995   0.00000  Uiso   1.00
C157   C     0.67860   0.18654   0.09109   0.00000  Uiso   1.00
C158   C     0.90909   0.17324   0.40706   0.00000  Uiso   1.00
C159   C     0.75799   0.16569   0.09280   0.00000  Uiso   1.00
C160   C     0.89222   0.17239   0.45403   0.00000  Uiso   1.00
C161   C     0.77711   0.17608   0.04696   0.00000  Uiso   1.00
C162   C     0.92536   0.16276   0.47870   0.00000  Uiso   1.00
C163   C     0.86155   0.16401   0.04775   0.00000  Uiso   1.00
C164   C     0.74496   0.19004   0.02295   0.00000  Uiso   1.00
C165   C     0.84315   0.17943   0.47704   0.00000  Uiso   1.00
C166   C     0.82704   0.17277   0.02440   0.00000  Uiso   1.00
C167   C     0.80987   0.19355   0.45440   0.00000  Uiso   1.00
C168   C     0.90972   0.15932   0.02522   0.00000  Uiso   1.00
C169   C     0.76187   0.19901   0.47710   0.00000  Uiso   1.00
C170   C     0.97252   0.02139   0.22649   0.00000  Uiso   1.00
C171   C     0.69420   0.31194   0.27344   0.00000  Uiso   1.00
C172   C     0.97309   0.31189   0.22630   0.00000  Uiso   1.00
Cu173  Cu    0.71355   0.16667   0.25000   0.00000  Uiso   1.00
Cu174  Cu    0.95311   0.16666   0.25000   0.00000  Uiso   1.00
H175   H     0.93480   0.15234   0.04445   0.00000  Uiso   1.00
H176   H     0.88497   0.17789   0.38667   0.00000  Uiso   1.00
H177   H     0.97448   0.19203   0.10788   0.00000  Uiso   1.00
H178   H     0.69420   0.15306   0.39352   0.00000  Uiso   1.00
H179   H     0.99938   0.14892   0.47521   0.00000  Uiso   1.00
H180   H     0.67168   0.20685   0.02717   0.00000  Uiso   1.00
H181   H     0.95204   0.03778   0.20745   0.00000  Uiso   1.00
H182   H     0.71470   0.29555   0.29247   0.00000  Uiso   1.00
H183   H     0.81539   0.04664   0.35199   0.00000  Uiso   1.00
H184   H     0.85126   0.28633   0.14746   0.00000  Uiso   1.00
H185   H     0.73772   0.21017   0.45850   0.00000  Uiso   1.00
H186   H     0.85289   0.16167   0.08375   0.00000  Uiso   1.00
H187   H     0.81995   0.20203   0.41917   0.00000  Uiso   1.00
H188   H     0.95242   0.29549   0.20758   0.00000  Uiso   1.00
H189   H     0.71430   0.03784   0.29236   0.00000  Uiso   1.00
H190   H     0.77347   0.11376   0.29184   0.00000  Uiso   1.00
H191   H     0.89320   0.21957   0.20815   0.00000  Uiso   1.00
H192   H     0.77986   0.15232   0.11216   0.00000  Uiso   1.00
N193   N     0.78403   0.16668   0.24999   0.00000  Uiso   1.00
N194   N     0.88264   0.16666   0.25001   0.00000  Uiso   1.00
O195   O     0.70625   0.10655   0.25000   0.00000  Uiso   1.00
O196   O     0.89693   0.09806   0.32920   0.00000  Uiso   1.00
O197   O     0.80863   0.07472   0.34207   0.00000  Uiso   1.00
O198   O     0.76967   0.23531   0.17083   0.00000  Uiso   1.00
O199   O     0.79111   0.27505   0.22855   0.00000  Uiso   1.00
O200   O     0.85807   0.25839   0.15771   0.00000  Uiso   1.00
O201   O     0.96042   0.22678   0.25000   0.00000  Uiso   1.00
O202   O     0.96039   0.10654   0.25000   0.00000  Uiso   1.00
O203   O     0.70628   0.22679   0.25000   0.00000  Uiso   1.00
O204   O     0.68519   0.16668   0.31491   0.00000  Uiso   1.00
O205   O     0.98148   0.16666   0.18508   0.00000  Uiso   1.00
O206   O     0.93933   0.16667   0.31492   0.00000  Uiso   1.00
O207   O     0.72733   0.16667   0.18508   0.00000  Uiso   1.00
O208   O     0.87581   0.05834   0.27129   0.00000  Uiso   1.00
S209   S     0.86012   0.09172   0.30418   0.00000  Uiso   1.00
S210   S     0.80660   0.24158   0.19573   0.00000  Uiso   1.00
C211   C     0.33291   0.42082   0.25011   0.00000  Uiso   1.00
C212   C     0.02695   0.35477   0.27365   0.00000  Uiso   1.00
C213   C     0.00083   0.62385   0.24956   0.00000  Uiso   1.00
C214   C     0.33253   0.37615   0.25039   0.00000  Uiso   1.00
C215   C     0.18170   0.46992   0.27434   0.00000  Uiso   1.00
C216   C     0.15164   0.53007   0.22564   0.00000  Uiso   1.00
C217   C     0.13286   0.47063   0.27373   0.00000  Uiso   1.00
C218   C     0.20048   0.52937   0.22626   0.00000  Uiso   1.00
C219   C     0.30597   0.49999   0.33592   0.00000  Uiso   1.00
C220   C     0.02739   0.50063   0.16409   0.00000  Uiso   1.00
C221   C     0.29074   0.49977   0.38502   0.00000  Uiso   1.00
C222   C     0.00043   0.57918   0.24987   0.00000  Uiso   1.00
C223   C     0.04304   0.50540   0.11511   0.00000  Uiso   1.00
C224   C     0.30726   0.48965   0.45653   0.00000  Uiso   1.00
C225   C     0.02945   0.52859   0.04518   0.00000  Uiso   1.00
C226   C     0.32332   0.49188   0.40995   0.00000  Uiso   1.00
C227   C     0.01194   0.51987   0.09109   0.00000  Uiso   1.00
C228   C     0.24242   0.50657   0.40706   0.00000  Uiso   1.00
C229   C     0.09133   0.49903   0.09280   0.00000  Uiso   1.00
C230   C     0.22556   0.50573   0.45403   0.00000  Uiso   1.00
C231   C     0.11044   0.50941   0.04696   0.00000  Uiso   1.00
C232   C     0.25870   0.49610   0.47870   0.00000  Uiso   1.00
C233   C     0.19488   0.49735   0.04775   0.00000  Uiso   1.00
C234   C     0.07829   0.52337   0.02295   0.00000  Uiso   1.00
C235   C     0.17648   0.51276   0.47704   0.00000  Uiso   1.00
C236   C     0.16038   0.50610   0.02440   0.00000  Uiso   1.00
C237   C     0.14320   0.52688   0.45440   0.00000  Uiso   1.00
C238   C     0.24306   0.49265   0.02522   0.00000  Uiso   1.00
C239   C     0.09520   0.53235   0.47710   0.00000  Uiso   1.00
C240   C     0.30585   0.35472   0.22649   0.00000  Uiso   1.00
C241   C     0.02753   0.64527   0.27344   0.00000  Uiso   1.00
C242   C     0.30642   0.64523   0.22630   0.00000  Uiso   1.00
Cu243  Cu    0.04689   0.50001   0.25000   0.00000  Uiso   1.00
Cu244  Cu    0.28645   0.49999   0.25000   0.00000  Uiso   1.00
H245   H     0.26813   0.48567   0.04445   0.00000  Uiso   1.00
H246   H     0.21831   0.51123   0.38667   0.00000  Uiso   1.00
H247   H     0.30781   0.52536   0.10788   0.00000  Uiso   1.00
H248   H     0.02753   0.48640   0.39352   0.00000  Uiso   1.00
H249   H     0.33271   0.48226   0.47521   0.00000  Uiso   1.00
H250   H     0.00501   0.54019   0.02717   0.00000  Uiso   1.00
H251   H     0.28537   0.37112   0.20745   0.00000  Uiso   1.00
H252   H     0.04803   0.62888   0.29247   0.00000  Uiso   1.00
H253   H     0.14872   0.37998   0.35199   0.00000  Uiso   1.00
H254   H     0.18460   0.61967   0.14746   0.00000  Uiso   1.00
H255   H     0.07105   0.54350   0.45850   0.00000  Uiso   1.00
H256   H     0.18623   0.49500   0.08375   0.00000  Uiso   1.00
H257   H     0.15328   0.53536   0.41917   0.00000  Uiso   1.00
H258   H     0.28575   0.62882   0.20758   0.00000  Uiso   1.00
H259   H     0.04763   0.37117   0.29236   0.00000  Uiso   1.00
H260   H     0.10681   0.44709   0.29184   0.00000  Uiso   1.00
H261   H     0.22653   0.55290   0.20815   0.00000  Uiso   1.00
H262   H     0.11319   0.48565   0.11216   0.00000  Uiso   1.00
N263   N     0.11736   0.50001   0.24999   0.00000  Uiso   1.00
N264   N     0.21597   0.49999   0.25001   0.00000  Uiso   1.00
O265   O     0.03958   0.43989   0.25000   0.00000  Uiso   1.00
O266   O     0.23027   0.43139   0.32920   0.00000  Uiso   1.00
O267   O     0.14197   0.40805   0.34207   0.00000  Uiso   1.00
O268   O     0.10301   0.56864   0.17083   0.00000  Uiso   1.00
O269   O     0.12444   0.60838   0.22855   0.00000  Uiso   1.00
O270   O     0.19141   0.59173   0.15771   0.00000  Uiso   1.00
O271   O     0.29375   0.56011   0.25000   0.00000  Uiso   1.00
O272   O     0.29372   0.43988   0.25000   0.00000  Uiso   1.00
O273   O     0.03961   0.56012   0.25000   0.00000  Uiso   1.00
O274   O     0.01852   0.50001   0.31491   0.00000  Uiso   1.00
O275   O     0.31481   0.49999   0.18508   0.00000  Uiso   1.00
O276   O     0.27267   0.50000   0.31492   0.00000  Uiso   1.00
O277   O     0.06067   0.50000   0.18508   0.00000  Uiso   1.00
O278   O     0.20914   0.39167   0.27129   0.00000  Uiso   1.00
S279   S     0.19345   0.42505   0.30418   0.00000  Uiso   1.00
S280   S     0.13993   0.57492   0.19573   0.00000  Uiso   1.00
C281   C     0.66624   0.42082   0.25011   0.00000  Uiso   1.00
C282   C     0.36028   0.35477   0.27365   0.00000  Uiso   1.00
C283   C     0.33416   0.62385   0.24956   0.00000  Uiso   1.00
C284   C     0.66586   0.37615   0.25039   0.00000  Uiso   1.00
C285   C     0.51503   0.46992   0.27434   0.00000  Uiso   1.00
C286   C     0.48497   0.53007   0.22564   0.00000  Uiso   1.00
C287   C     0.46619   0.47063   0.27373   0.00000  Uiso   1.00
C288   C     0.53381   0.52937   0.22626   0.00000  Uiso   1.00
C289   C     0.63930   0.49999   0.33592   0.00000  Uiso   1.00
C290   C     0.36073   0.50063   0.16409   0.00000  Uiso   1.00
C291   C     0.62407   0.49977   0.38502   0.00000  Uiso   1.00
C292   C     0.33377   0.57918   0.24987   0.00000  Uiso   1.00
C293   C     0.37637   0.50540   0.11511   0.00000  Uiso   1.00
C294   C     0.64060   0.48965   0.45653   0.00000  Uiso   1.00
C295   C     0.36279   0.52859   0.04518   0.00000  Uiso   1.00
C296   C     0.65665   0.49188   0.40995   0.00000  Uiso   1.00
C297   C     0.34527   0.51987   0.09109   0.00000  Uiso   1.00
C298   C     0.57576   0.50657   0.40706   0.00000  Uiso   1.00
C299   C     0.42466   0.49903   0.09280   0.00000  Uiso   1.00
C300   C     0.55889   0.50573   0.45403   0.00000  Uiso   1.00
C301   C     0.44378   0.50941   0.04696   0.00000  Uiso   1.00
C302   C     0.59203   0.49610   0.47870   0.00000  Uiso   1.00
C303   C     0.52821   0.49735   0.04775   0.00000  Uiso   1.00
C304   C     0.41163   0.52337   0.02295   0.00000  Uiso   1.00
C305   C     0.50982   0.51276   0.47704   0.00000  Uiso   1.00
C306   C     0.49371   0.50610   0.02440   0.00000  Uiso   1.00
C307   C     0.47653   0.52688   0.45440   0.00000  Uiso   1.00
C308   C     0.57639   0.49265   0.02522   0.00000  Uiso   1.00
C309   C     0.42853   0.53235   0.47710   0.00000  Uiso   1.00
C310   C     0.63919   0.35472   0.22649   0.00000  Uiso   1.00
C311   C     0.36086   0.64527   0.27344   0.00000  Uiso   1.00
C312   C     0.63976   0.64523   0.22630   0.00000  Uiso   1.00
Cu313  Cu    0.38022   0.50001   0.25000   0.00000  Uiso   1.00
Cu314  Cu    0.61978   0.49999   0.25000   0.00000  Uiso   1.00
H315   H     0.60146   0.48567   0.04445   0.00000  Uiso   1.00
H316   H     0.55164   0.51123   0.38667   0.00000  Uiso   1.00
H317   H     0.64115   0.52536   0.10788   0.00000  Uiso   1.00
H318   H     0.36087   0.48640   0.39352   0.00000  Uiso   1.00
H319   H     0.66605   0.48226   0.47521   0.00000  Uiso   1.00
H320   H     0.33834   0.54019   0.02717   0.00000  Uiso   1.00
H321   H     0.61870   0.37112   0.20745   0.00000  Uiso   1.00
H322   H     0.38136   0.62888   0.29247   0.00000  Uiso   1.00
H323   H     0.48206   0.37998   0.35199   0.00000  Uiso   1.00
H324   H     0.51793   0.61967   0.14746   0.00000  Uiso   1.00
H325   H     0.40439   0.54350   0.45850   0.00000  Uiso   1.00
H326   H     0.51956   0.49500   0.08375   0.00000  Uiso   1.00
H327   H     0.48662   0.53536   0.41917   0.00000  Uiso   1.00
H328   H     0.61908   0.62882   0.20758   0.00000  Uiso   1.00
H329   H     0.38096   0.37117   0.29236   0.00000  Uiso   1.00
H330   H     0.44014   0.44709   0.29184   0.00000  Uiso   1.00
H331   H     0.55986   0.55290   0.20815   0.00000  Uiso   1.00
H332   H     0.44652   0.48565   0.11216   0.00000  Uiso   1.00
N333   N     0.45069   0.50001   0.24999   0.00000  Uiso   1.00
N334   N     0.54931   0.49999   0.25001   0.00000  Uiso   1.00
O335   O     0.37291   0.43989   0.25000   0.00000  Uiso   1.00
O336   O     0.56360   0.43139   0.32920   0.00000  Uiso   1.00
O337   O     0.47530   0.40805   0.34207   0.00000  Uiso   1.00
O338   O     0.43634   0.56864   0.17083   0.00000  Uiso   1.00
O339   O     0.45777   0.60838   0.22855   0.00000  Uiso   1.00
O340   O     0.52474   0.59173   0.15771   0.00000  Uiso   1.00
O341   O     0.62709   0.56011   0.25000   0.00000  Uiso   1.00
O342   O     0.62706   0.43988   0.25000   0.00000  Uiso   1.00
O343   O     0.37294   0.56012   0.25000   0.00000  Uiso   1.00
O344   O     0.35186   0.50001   0.31491   0.00000  Uiso   1.00
O345   O     0.64814   0.49999   0.18508   0.00000  Uiso   1.00
O346   O     0.60600   0.50000   0.31492   0.00000  Uiso   1.00
O347   O     0.39400   0.50000   0.18508   0.00000  Uiso   1.00
O348   O     0.54248   0.39167   0.27129   0.00000  Uiso   1.00
S349   S     0.52678   0.42505   0.30418   0.00000  Uiso   1.00
S350   S     0.47327   0.57492   0.19573   0.00000  Uiso   1.00
C351   C     0.99957   0.42082   0.25011   0.00000  Uiso   1.00
C352   C     0.69362   0.35477   0.27365   0.00000  Uiso   1.00
C353   C     0.66750   0.62385   0.24956   0.00000  Uiso   1.00
C354   C     0.99920   0.37615   0.25039   0.00000  Uiso   1.00
C355   C     0.84837   0.46992   0.27434   0.00000  Uiso   1.00
C356   C     0.81830   0.53007   0.22564   0.00000  Uiso   1.00
C357   C     0.79952   0.47063   0.27373   0.00000  Uiso   1.00
C358   C     0.86715   0.52937   0.22626   0.00000  Uiso   1.00
C359   C     0.97263   0.49999   0.33592   0.00000  Uiso   1.00
C360   C     0.69406   0.50063   0.16409   0.00000  Uiso   1.00
C361   C     0.95741   0.49977   0.38502   0.00000  Uiso   1.00
C362   C     0.66710   0.57918   0.24987   0.00000  Uiso   1.00
C363   C     0.70971   0.50540   0.11511   0.00000  Uiso   1.00
C364   C     0.97393   0.48965   0.45653   0.00000  Uiso   1.00
C365   C     0.69612   0.52859   0.04518   0.00000  Uiso   1.00
C366   C     0.98999   0.49188   0.40995   0.00000  Uiso   1.00
C367   C     0.67860   0.51987   0.09109   0.00000  Uiso   1.00
C368   C     0.90909   0.50657   0.40706   0.00000  Uiso   1.00
C369   C     0.75799   0.49903   0.09280   0.00000  Uiso   1.00
C370   C     0.89222   0.50573   0.45403   0.00000  Uiso   1.00
C371   C     0.77711   0.50941   0.04696   0.00000  Uiso   1.00
C372   C     0.92536   0.49610   0.47870   0.00000  Uiso   1.00
C373   C     0.86155   0.49735   0.04775   0.00000  Uiso   1.00
C374   C     0.74496   0.52337   0.02295   0.00000  Uiso   1.00
C375   C     0.84315   0.51276   0.47704   0.00000  Uiso   1.00
C376   C     0.82704   0.50610   0.02440   0.00000  Uiso   1.00
C377   C     0.80987   0.52688   0.45440   0.00000  Uiso   1.00
C378   C     0.90972   0.49265   0.02522   0.00000  Uiso   1.00
C379   C     0.76187   0.53235   0.47710   0.00000  Uiso   1.00
C380   C     0.97252   0.35472   0.22649   0.00000  Uiso   1.00
C381   C     0.69420   0.64527   0.27344   0.00000  Uiso   1.00
C382   C     0.97309   0.64523   0.22630   0.00000  Uiso   1.00
Cu383  Cu    0.71355   0.50001   0.25000   0.00000  Uiso   1.00
Cu384  Cu    0.95311   0.49999   0.25000   0.00000  Uiso   1.00
H385   H     0.93480   0.48567   0.04445   0.00000  Uiso   1.00
H386   H     0.88497   0.51123   0.38667   0.00000  Uiso   1.00
H387   H     0.97448   0.52536   0.10788   0.00000  Uiso   1.00
H388   H     0.69420   0.48640   0.39352   0.00000  Uiso   1.00
H389   H     0.99938   0.48226   0.47521   0.00000  Uiso   1.00
H390   H     0.67168   0.54019   0.02717   0.00000  Uiso   1.00
H391   H     0.95204   0.37112   0.20745   0.00000  Uiso   1.00
H392   H     0.71470   0.62888   0.29247   0.00000  Uiso   1.00
H393   H     0.81539   0.37998   0.35199   0.00000  Uiso   1.00
H394   H     0.85126   0.61967   0.14746   0.00000  Uiso   1.00
H395   H     0.73772   0.54350   0.45850   0.00000  Uiso   1.00
H396   H     0.85289   0.49500   0.08375   0.00000  Uiso   1.00
H397   H     0.81995   0.53536   0.41917   0.00000  Uiso   1.00
H398   H     0.95242   0.62882   0.20758   0.00000  Uiso   1.00
H399   H     0.71430   0.37117   0.29236   0.00000  Uiso   1.00
H400   H     0.77347   0.44709   0.29184   0.00000  Uiso   1.00
H401   H     0.89320   0.55290   0.20815   0.00000  Uiso   1.00
H402   H     0.77986   0.48565   0.11216   0.00000  Uiso   1.00
N403   N     0.78403   0.50001   0.24999   0.00000  Uiso   1.00
N404   N     0.88264   0.49999   0.25001   0.00000  Uiso   1.00
O405   O     0.70625   0.43989   0.25000   0.00000  Uiso   1.00
O406   O     0.89693   0.43139   0.32920   0.00000  Uiso   1.00
O407   O     0.80863   0.40805   0.34207   0.00000  Uiso   1.00
O408   O     0.76967   0.56864   0.17083   0.00000  Uiso   1.00
O409   O     0.79111   0.60838   0.22855   0.00000  Uiso   1.00
O410   O     0.85807   0.59173   0.15771   0.00000  Uiso   1.00
O411   O     0.96042   0.56011   0.25000   0.00000  Uiso   1.00
O412   O     0.96039   0.43988   0.25000   0.00000  Uiso   1.00
O413   O     0.70628   0.56012   0.25000   0.00000  Uiso   1.00
O414   O     0.68519   0.50001   0.31491   0.00000  Uiso   1.00
O415   O     0.98148   0.49999   0.18508   0.00000  Uiso   1.00
O416   O     0.93933   0.50000   0.31492   0.00000  Uiso   1.00
O417   O     0.72733   0.50000   0.18508   0.00000  Uiso   1.00
O418   O     0.87581   0.39167   0.27129   0.00000  Uiso   1.00
S419   S     0.86012   0.42505   0.30418   0.00000  Uiso   1.00
S420   S     0.80660   0.57492   0.19573   0.00000  Uiso   1.00
C421   C     0.33291   0.75415   0.25011   0.00000  Uiso   1.00
C422   C     0.02695   0.68810   0.27365   0.00000  Uiso   1.00
C423   C     0.00083   0.95718   0.24956   0.00000  Uiso   1.00
C424   C     0.33253   0.70948   0.25039   0.00000  Uiso   1.00
C425   C     0.18170   0.80326   0.27434   0.00000  Uiso   1.00
C426   C     0.15164   0.86340   0.22564   0.00000  Uiso   1.00
C427   C     0.13286   0.80396   0.27373   0.00000  Uiso   1.00
C428   C     0.20048   0.86270   0.22626   0.00000  Uiso   1.00
C429   C     0.30597   0.83333   0.33592   0.00000  Uiso   1.00
C430   C     0.02739   0.83396   0.16409   0.00000  Uiso   1.00
C431   C     0.29074   0.83310   0.38502   0.00000  Uiso   1.00
C432   C     0.00043   0.91252   0.24987   0.00000  Uiso   1.00
C433   C     0.04304   0.83873   0.11511   0.00000  Uiso   1.00
C434   C     0.30726   0.82298   0.45653   0.00000  Uiso   1.00
C435   C     0.02945   0.86192   0.04518   0.00000  Uiso   1.00
C436   C     0.32332   0.82521   0.40995   0.00000  Uiso   1.00
C437   C     0.01194   0.85321   0.09109   0.00000  Uiso   1.00
C438   C     0.24242   0.83990   0.40706   0.00000  Uiso   1.00
C439   C     0.09133   0.83236   0.09280   0.00000  Uiso   1.00
C440   C     0.22556   0.83906   0.45403   0.00000  Uiso   1.00
C441   C     0.11044   0.84274   0.04696   0.00000  Uiso   1.00
C442   C     0.25870   0.82943   0.47870   0.00000  Uiso   1.00
C443   C     0.19488   0.83068   0.04775   0.00000  Uiso   1.00
C444   C     0.07829   0.85670   0.02295   0.00000  Uiso   1.00
C445   C     0.17648   0.84610   0.47704   0.00000  Uiso   1.00
C446   C     0.16038   0.83943   0.02440   0.00000  Uiso   1.00
C447   C     0.14320   0.86021   0.45440   0.00000  Uiso   1.00
C448   C     0.24306   0.82599   0.02522   0.00000  Uiso   1.00
C449   C     0.09520   0.86568   0.47710   0.00000  Uiso   1.00
C450   C     0.30585   0.68806   0.22649   0.00000  Uiso   1.00
C451   C     0.02753   0.97861   0.27344   0.00000  Uiso   1.00
C452   C     0.30642   0.97856   0.22630   0.00000  Uiso   1.00
Cu453  Cu    0.04689   0.83334   0.25000   0.00000  Uiso   1.00
Cu454  Cu    0.28645   0.83333   0.25000   0.00000  Uiso   1.00
H455   H     0.26813   0.81901   0.04445   0.00000  Uiso   1.00
H456   H     0.21831   0.84456   0.38667   0.00000  Uiso   1.00
H457   H     0.30781   0.85870   0.10788   0.00000  Uiso   1.00
H458   H     0.02753   0.81973   0.39352   0.00000  Uiso   1.00
H459   H     0.33271   0.81559   0.47521   0.00000  Uiso   1.00
H460   H     0.00501   0.87352   0.02717   0.00000  Uiso   1.00
H461   H     0.28537   0.70445   0.20745   0.00000  Uiso   1.00
H462   H     0.04803   0.96221   0.29247   0.00000  Uiso   1.00
H463   H     0.14872   0.71331   0.35199   0.00000  Uiso   1.00
H464   H     0.18460   0.95300   0.14746   0.00000  Uiso   1.00
H465   H     0.07105   0.87683   0.45850   0.00000  Uiso   1.00
H466   H     0.18623   0.82833   0.08375   0.00000  Uiso   1.00
H467   H     0.15328   0.86870   0.41917   0.00000  Uiso   1.00
H468   H     0.28575   0.96215   0.20758   0.00000  Uiso   1.00
H469   H     0.04763   0.70451   0.29236   0.00000  Uiso   1.00
H470   H     0.10681   0.78043   0.29184   0.00000  Uiso   1.00
H471   H     0.22653   0.88624   0.20815   0.00000  Uiso   1.00
H472   H     0.11319   0.81898   0.11216   0.00000  Uiso   1.00
N473   N     0.11736   0.83334   0.24999   0.00000  Uiso   1.00
N474   N     0.21597   0.83332   0.25001   0.00000  Uiso   1.00
O475   O     0.03958   0.77322   0.25000   0.00000  Uiso   1.00
O476   O     0.23027   0.76472   0.32920   0.00000  Uiso   1.00
O477   O     0.14197   0.74139   0.34207   0.00000  Uiso   1.00
O478   O     0.10301   0.90197   0.17083   0.00000  Uiso   1.00
O479   O     0.12444   0.94172   0.22855   0.00000  Uiso   1.00
O480   O     0.19141   0.92506   0.15771   0.00000  Uiso   1.00
O481   O     0.29375   0.89345   0.25000   0.00000  Uiso   1.00
O482   O     0.29372   0.77321   0.25000   0.00000  Uiso   1.00
O483   O     0.03961   0.89346   0.25000   0.00000  Uiso   1.00
O484   O     0.01852   0.83334   0.31491   0.00000  Uiso   1.00
O485   O     0.31481   0.83332   0.18508   0.00000  Uiso   1.00
O486   O     0.27267   0.83333   0.31492   0.00000  Uiso   1.00
O487   O     0.06067   0.83333   0.18508   0.00000  Uiso   1.00
O488   O     0.20914   0.72501   0.27129   0.00000  Uiso   1.00
S489   S     0.19345   0.75838   0.30418   0.00000  Uiso   1.00
S490   S     0.13993   0.90825   0.19573   0.00000  Uiso   1.00
C491   C     0.66624   0.75415   0.25011   0.00000  Uiso   1.00
C492   C     0.36028   0.68810   0.27365   0.00000  Uiso   1.00
C493   C     0.33416   0.95718   0.24956   0.00000  Uiso   1.00
C494   C     0.66586   0.70948   0.25039   0.00000  Uiso   1.00
C495   C     0.51503   0.80326   0.27434   0.00000  Uiso   1.00
C496   C     0.48497   0.86340   0.22564   0.00000  Uiso   1.00
C497   C     0.46619   0.80396   0.27373   0.00000  Uiso   1.00
C498   C     0.53381   0.86270   0.22626   0.00000  Uiso   1.00
C499   C     0.63930   0.83333   0.33592   0.00000  Uiso   1.00
C500   C     0.36073   0.83396   0.16409   0.00000  Uiso   1.00
C501   C     0.62407   0.83310   0.38502   0.00000  Uiso   1.00
C502   C     0.33377   0.91252   0.24987   0.00000  Uiso   1.00
C503   C     0.37637   0.83873   0.11511   0.00000  Uiso   1.00
C504   C     0.64060   0.82298   0.45653   0.00000  Uiso   1.00
C505   C     0.36279   0.86192   0.04518   0.00000  Uiso   1.00
C506   C     0.65665   0.82521   0.40995   0.00000  Uiso   1.00
C507   C     0.34527   0.85321   0.09109   0.00000  Uiso   1.00
C508   C     0.57576   0.83990   0.40706   0.00000  Uiso   1.00
C509   C     0.42466   0.83236   0.09280   0.00000  Uiso   1.00
C510   C     0.55889   0.83906   0.45403   0.00000  Uiso   1.00
C511   C     0.44378   0.84274   0.04696   0.00000  Uiso   1.00
C512   C     0.59203   0.82943   0.47870   0.00000  Uiso   1.00
C513   C     0.52821   0.83068   0.04775   0.00000  Uiso   1.00
C514   C     0.41163   0.85670   0.02295   0.00000  Uiso   1.00
C515   C     0.50982   0.84610   0.47704   0.00000  Uiso   1.00
C516   C     0.49371   0.83943   0.02440   0.00000  Uiso   1.00
C517   C     0.47653   0.86021   0.45440   0.00000  Uiso   1.00
C518   C     0.57639   0.82599   0.02522   0.00000  Uiso   1.00
C519   C     0.42853   0.86568   0.47710   0.00000  Uiso   1.00
C520   C     0.63919   0.68806   0.22649   0.00000  Uiso   1.00
C521   C     0.36086   0.97861   0.27344   0.00000  Uiso   1.00
C522   C     0.63976   0.97856   0.22630   0.00000  Uiso   1.00
Cu523  Cu    0.38022   0.83334   0.25000   0.00000  Uiso   1.00
Cu524  Cu    0.61978   0.83333   0.25000   0.00000  Uiso   1.00
H525   H     0.60146   0.81901   0.04445   0.00000  Uiso   1.00
H526   H     0.55164   0.84456   0.38667   0.00000  Uiso   1.00
H527   H     0.64115   0.85870   0.10788   0.00000  Uiso   1.00
H528   H     0.36087   0.81973   0.39352   0.00000  Uiso   1.00
H529   H     0.66605   0.81559   0.47521   0.00000  Uiso   1.00
H530   H     0.33834   0.87352   0.02717   0.00000  Uiso   1.00
H531   H     0.61870   0.70445   0.20745   0.00000  Uiso   1.00
H532   H     0.38136   0.96221   0.29247   0.00000  Uiso   1.00
H533   H     0.48206   0.71331   0.35199   0.00000  Uiso   1.00
H534   H     0.51793   0.95300   0.14746   0.00000  Uiso   1.00
H535   H     0.40439   0.87683   0.45850   0.00000  Uiso   1.00
H536   H     0.51956   0.82833   0.08375   0.00000  Uiso   1.00
H537   H     0.48662   0.86870   0.41917   0.00000  Uiso   1.00
H538   H     0.61908   0.96215   0.20758   0.00000  Uiso   1.00
H539   H     0.38096   0.70451   0.29236   0.00000  Uiso   1.00
H540   H     0.44014   0.78043   0.29184   0.00000  Uiso   1.00
H541   H     0.55986   0.88624   0.20815   0.00000  Uiso   1.00
H542   H     0.44652   0.81898   0.11216   0.00000  Uiso   1.00
N543   N     0.45069   0.83334   0.24999   0.00000  Uiso   1.00
N544   N     0.54931   0.83332   0.25001   0.00000  Uiso   1.00
O545   O     0.37291   0.77322   0.25000   0.00000  Uiso   1.00
O546   O     0.56360   0.76472   0.32920   0.00000  Uiso   1.00
O547   O     0.47530   0.74139   0.34207   0.00000  Uiso   1.00
O548   O     0.43634   0.90197   0.17083   0.00000  Uiso   1.00
O549   O     0.45777   0.94172   0.22855   0.00000  Uiso   1.00
O550   O     0.52474   0.92506   0.15771   0.00000  Uiso   1.00
O551   O     0.62709   0.89345   0.25000   0.00000  Uiso   1.00
O552   O     0.62706   0.77321   0.25000   0.00000  Uiso   1.00
O553   O     0.37294   0.89346   0.25000   0.00000  Uiso   1.00
O554   O     0.35186   0.83334   0.31491   0.00000  Uiso   1.00
O555   O     0.64814   0.83332   0.18508   0.00000  Uiso   1.00
O556   O     0.60600   0.83333   0.31492   0.00000  Uiso   1.00
O557   O     0.39400   0.83333   0.18508   0.00000  Uiso   1.00
O558   O     0.54248   0.72501   0.27129   0.00000  Uiso   1.00
S559   S     0.52678   0.75838   0.30418   0.00000  Uiso   1.00
S560   S     0.47327   0.90825   0.19573   0.00000  Uiso   1.00
C561   C     0.99957   0.75415   0.25011   0.00000  Uiso   1.00
C562   C     0.69362   0.68810   0.27365   0.00000  Uiso   1.00
C563   C     0.66750   0.95718   0.24956   0.00000  Uiso   1.00
C564   C     0.99920   0.70948   0.25039   0.00000  Uiso   1.00
C565   C     0.84837   0.80326   0.27434   0.00000  Uiso   1.00
C566   C     0.81830   0.86340   0.22564   0.00000  Uiso   1.00
C567   C     0.79952   0.80396   0.27373   0.00000  Uiso   1.00
C568   C     0.86715   0.86270   0.22626   0.00000  Uiso   1.00
C569   C     0.97263   0.83333   0.33592   0.00000  Uiso   1.00
C570   C     0.69406   0.83396   0.16409   0.00000  Uiso   1.00
C571   C     0.95741   0.83310   0.38502   0.00000  Uiso   1.00
C572   C     0.66710   0.91252   0.24987   0.00000  Uiso   1.00
C573   C     0.70971   0.83873   0.11511   0.00000  Uiso   1.00
C574   C     0.97393   0.82298   0.45653   0.00000  Uiso   1.00
C575   C     0.69612   0.86192   0.04518   0.00000  Uiso   1.00
C576   C     0.98999   0.82521   0.40995   0.00000  Uiso   1.00
C577   C     0.67860   0.85321   0.09109   0.00000  Uiso   1.00
C578   C     0.90909   0.83990   0.40706   0.00000  Uiso   1.00
C579   C     0.75799   0.83236   0.09280   0.00000  Uiso   1.00
C580   C     0.89222   0.83906   0.45403   0.00000  Uiso   1.00
C581   C     0.77711   0.84274   0.04696   0.00000  Uiso   1.00
C582   C     0.92536   0.82943   0.47870   0.00000  Uiso   1.00
C583   C     0.86155   0.83068   0.04775   0.00000  Uiso   1.00
C584   C     0.74496   0.85670   0.02295   0.00000  Uiso   1.00
C585   C     0.84315   0.84610   0.47704   0.00000  Uiso   1.00
C586   C     0.82704   0.83943   0.02440   0.00000  Uiso   1.00
C587   C     0.80987   0.86021   0.45440   0.00000  Uiso   1.00
C588   C     0.90972   0.82599   0.02522   0.00000  Uiso   1.00
C589   C     0.76187   0.86568   0.47710   0.00000  Uiso   1.00
C590   C     0.97252   0.68806   0.22649   0.00000  Uiso   1.00
C591   C     0.69420   0.97861   0.27344   0.00000  Uiso   1.00
C592   C     0.97309   0.97856   0.22630   0.00000  Uiso   1.00
Cu593  Cu    0.71355   0.83334   0.25000   0.00000  Uiso   1.00
Cu594  Cu    0.95311   0.83333   0.25000   0.00000  Uiso   1.00
H595   H     0.93480   0.81901   0.04445   0.00000  Uiso   1.00
H596   H     0.88497   0.84456   0.38667   0.00000  Uiso   1.00
H597   H     0.97448   0.85870   0.10788   0.00000  Uiso   1.00
H598   H     0.69420   0.81973   0.39352   0.00000  Uiso   1.00
H599   H     0.99938   0.81559   0.47521   0.00000  Uiso   1.00
H600   H     0.67168   0.87352   0.02717   0.00000  Uiso   1.00
H601   H     0.95204   0.70445   0.20745   0.00000  Uiso   1.00
H602   H     0.71470   0.96221   0.29247   0.00000  Uiso   1.00
H603   H     0.81539   0.71331   0.35199   0.00000  Uiso   1.00
H604   H     0.85126   0.95300   0.14746   0.00000  Uiso   1.00
H605   H     0.73772   0.87683   0.45850   0.00000  Uiso   1.00
H606   H     0.85289   0.82833   0.08375   0.00000  Uiso   1.00
H607   H     0.81995   0.86870   0.41917   0.00000  Uiso   1.00
H608   H     0.95242   0.96215   0.20758   0.00000  Uiso   1.00
H609   H     0.71430   0.70451   0.29236   0.00000  Uiso   1.00
H610   H     0.77347   0.78043   0.29184   0.00000  Uiso   1.00
H611   H     0.89320   0.88624   0.20815   0.00000  Uiso   1.00
H612   H     0.77986   0.81898   0.11216   0.00000  Uiso   1.00
N613   N     0.78403   0.83334   0.24999   0.00000  Uiso   1.00
N614   N     0.88264   0.83332   0.25001   0.00000  Uiso   1.00
O615   O     0.70625   0.77322   0.25000   0.00000  Uiso   1.00
O616   O     0.89693   0.76472   0.32920   0.00000  Uiso   1.00
O617   O     0.80863   0.74139   0.34207   0.00000  Uiso   1.00
O618   O     0.76967   0.90197   0.17083   0.00000  Uiso   1.00
O619   O     0.79111   0.94172   0.22855   0.00000  Uiso   1.00
O620   O     0.85807   0.92506   0.15771   0.00000  Uiso   1.00
O621   O     0.96042   0.89345   0.25000   0.00000  Uiso   1.00
O622   O     0.96039   0.77321   0.25000   0.00000  Uiso   1.00
O623   O     0.70628   0.89346   0.25000   0.00000  Uiso   1.00
O624   O     0.68519   0.83334   0.31491   0.00000  Uiso   1.00
O625   O     0.98148   0.83332   0.18508   0.00000  Uiso   1.00
O626   O     0.93933   0.83333   0.31492   0.00000  Uiso   1.00
O627   O     0.72733   0.83333   0.18508   0.00000  Uiso   1.00
O628   O     0.87581   0.72501   0.27129   0.00000  Uiso   1.00
S629   S     0.86012   0.75838   0.30418   0.00000  Uiso   1.00
S630   S     0.80660   0.90825   0.19573   0.00000  Uiso   1.00
C631   C     0.33291   0.08748   0.75011   0.00000  Uiso   1.00
C632   C     0.02695   0.02144   0.77365   0.00000  Uiso   1.00
C633   C     0.00083   0.29052   0.74956   0.00000  Uiso   1.00
C634   C     0.33253   0.04281   0.75039   0.00000  Uiso   1.00
C635   C     0.18170   0.13659   0.77434   0.00000  Uiso   1.00
C636   C     0.15164   0.19673   0.72564   0.00000  Uiso   1.00
C637   C     0.13286   0.13729   0.77373   0.00000  Uiso   1.00
C638   C     0.20048   0.19604   0.72626   0.00000  Uiso   1.00
C639   C     0.30597   0.16666   0.83592   0.00000  Uiso   1.00
C640   C     0.02739   0.16730   0.66409   0.00000  Uiso   1.00
C641   C     0.29074   0.16643   0.88502   0.00000  Uiso   1.00
C642   C     0.00043   0.24585   0.74987   0.00000  Uiso   1.00
C643   C     0.04304   0.17207   0.61511   0.00000  Uiso   1.00
C644   C     0.30726   0.15631   0.95653   0.00000  Uiso   1.00
C645   C     0.02945   0.19526   0.54518   0.00000  Uiso   1.00
C646   C     0.32332   0.15854   0.90995   0.00000  Uiso   1.00
C647   C     0.01194   0.18654   0.59109   0.00000  Uiso   1.00
C648   C     0.24242   0.17324   0.90706   0.00000  Uiso   1.00
C649   C     0.09133   0.16569   0.59280   0.00000  Uiso   1.00
C650   C     0.22556   0.17239   0.95403   0.00000  Uiso   1.00
C651   C     0.11044   0.17608   0.54696   0.00000  Uiso   1.00
C652   C     0.25870   0.16276   0.97870   0.00000  Uiso   1.00
C653   C     0.19488   0.16401   0.54775   0.00000  Uiso   1.00
C654   C     0.07829   0.19004   0.52295   0.00000  Uiso   1.00
C655   C     0.17648   0.17943   0.97704   0.00000  Uiso   1.00
C656   C     0.16038   0.17277   0.52440   0.00000  Uiso   1.00
C657   C     0.14320   0.19355   0.95440   0.00000  Uiso   1.00
C658   C     0.24306   0.15932   0.52522   0.00000  Uiso   1.00
C659   C     0.09520   0.19901   0.97710   0.00000  Uiso   1.00
C660   C     0.30585   0.02139   0.72649   0.00000  Uiso   1.00
C661   C     0.02753   0.31194   0.77344   0.00000  Uiso   1.00
C662   C     0.30642   0.31189   0.72630   0.00000  Uiso   1.00
Cu663  Cu    0.04689   0.16667   0.75000   0.00000  Uiso   1.00
Cu664  Cu    0.28645   0.16666   0.75000   0.00000  Uiso   1.00
H665   H     0.26813   0.15234   0.54445   0.00000  Uiso   1.00
H666   H     0.21831   0.17789   0.88667   0.00000  Uiso   1.00
H667   H     0.30781   0.19203   0.60788   0.00000  Uiso   1.00
H668   H     0.02753   0.15306   0.89352   0.00000  Uiso   1.00
H669   H     0.33271   0.14892   0.97521   0.00000  Uiso   1.00
H670   H     0.00501   0.20685   0.52717   0.00000  Uiso   1.00
H671   H     0.28537   0.03778   0.70745   0.00000  Uiso   1.00
H672   H     0.04803   0.29555   0.79247   0.00000  Uiso   1.00
H673   H     0.14872   0.04664   0.85199   0.00000  Uiso   1.00
H674   H     0.18460   0.28633   0.64746   0.00000  Uiso   1.00
H675   H     0.07105   0.21017   0.95850   0.00000  Uiso   1.00
H676   H     0.18623   0.16167   0.58375   0.00000  Uiso   1.00
H677   H     0.15328   0.20203   0.91917   0.00000  Uiso   1.00
H678   H     0.28575   0.29549   0.70758   0.00000  Uiso   1.00
H679   H     0.04763   0.03784   0.79236   0.00000  Uiso   1.00
H680   H     0.10681   0.11376   0.79184   0.00000  Uiso   1.00
H681   H     0.22653   0.21957   0.70815   0.00000  Uiso   1.00
H682   H     0.11319   0.15232   0.61216   0.00000  Uiso   1.00
N683   N     0.11736   0.16668   0.74999   0.00000  Uiso   1.00
N684   N     0.21597   0.16666   0.75001   0.00000  Uiso   1.00
O685   O     0.03958   0.10655   0.75000   0.00000  Uiso   1.00
O686   O     0.23027   0.09806   0.82920   0.00000  Uiso   1.00
O687   O     0.14197   0.07472   0.84207   0.00000  Uiso   1.00
O688   O     0.10301   0.23531   0.67083   0.00000  Uiso   1.00
O689   O     0.12444   0.27505   0.72855   0.00000  Uiso   1.00
O690   O     0.19141   0.25839   0.65771   0.00000  Uiso   1.00
O691   O     0.29375   0.22678   0.75000   0.00000  Uiso   1.00
O692   O     0.29372   0.10654   0.75000   0.00000  Uiso   1.00
O693   O     0.03961   0.22679   0.75000   0.00000  Uiso   1.00
O694   O     0.01852   0.16668   0.81491   0.00000  Uiso   1.00
O695   O     0.31481   0.16666   0.68508   0.00000  Uiso   1.00
O696   O     0.27267   0.16667   0.81492   0.00000  Uiso   1.00
O697   O     0.06067   0.16667   0.68508   0.00000  Uiso   1.00
O698   O     0.20914   0.05834   0.77129   0.00000  Uiso   1.00
S699   S     0.19345   0.09172   0.80418   0.00000  Uiso   1.00
S700   S     0.13993   0.24158   0.69573   0.00000  Uiso   1.00
C701   C     0.66624   0.08748   0.75011   0.00000  Uiso   1.00
C702   C     0.36028   0.02144   0.77365   0.00000  Uiso   1.00
C703   C     0.33416   0.29052   0.74956   0.00000  Uiso   1.00
C704   C     0.66586   0.04281   0.75039   0.00000  Uiso   1.00
C705   C     0.51503   0.13659   0.77434   0.00000  Uiso   1.00
C706   C     0.48497   0.19673   0.72564   0.00000  Uiso   1.00
C707   C     0.46619   0.13729   0.77373   0.00000  Uiso   1.00
C708   C     0.53381   0.19604   0.72626   0.00000  Uiso   1.00
C709   C     0.63930   0.16666   0.83592   0.00000  Uiso   1.00
C710   C     0.36073   0.16730   0.66409   0.00000  Uiso   1.00
C711   C     0.62407   0.16643   0.88502   0.00000  Uiso   1.00
C712   C     0.33377   0.24585   0.74987   0.00000  Uiso   1.00
C713   C     0.37637   0.17207   0.61511   0.00000  Uiso   1.00
C714   C     0.64060   0.15631   0.95653   0.00000  Uiso   1.00
C715   C     0.36279   0.19526   0.54518   0.00000  Uiso   1.00
C716   C     0.65665   0.15854   0.90995   0.00000  Uiso   1.00
C717   C     0.34527   0.18654   0.59109   0.00000  Uiso   1.00
C718   C     0.57576   0.17324   0.90706   0.00000  Uiso   1.00
C719   C     0.42466   0.16569   0.59280   0.00000  Uiso   1.00
C720   C     0.55889   0.17239   0.95403   0.00000  Uiso   1.00
C721   C     0.44378   0.17608   0.54696   0.00000  Uiso   1.00
C722   C     0.59203   0.16276   0.97870   0.00000  Uiso   1.00
C723   C     0.52821   0.16401   0.54775   0.00000  Uiso   1.00
C724   C     0.41163   0.19004   0.52295   0.00000  Uiso   1.00
C725   C     0.50982   0.17943   0.97704   0.00000  Uiso   1.00
C726   C     0.49371   0.17277   0.52440   0.00000  Uiso   1.00
C727   C     0.47653   0.19355   0.95440   0.00000  Uiso   1.00
C728   C     0.57639   0.15932   0.52522   0.00000  Uiso   1.00
C729   C     0.42853   0.19901   0.97710   0.00000  Uiso   1.00
C730   C     0.63919   0.02139   0.72649   0.00000  Uiso   1.00
C731   C     0.36086   0.31194   0.77344   0.00000  Uiso   1.00
C732   C     0.63976   0.31189   0.72630   0.00000  Uiso   1.00
Cu733  Cu    0.38022   0.16667   0.75000   0.00000  Uiso   1.00
Cu734  Cu    0.61978   0.16666   0.75000   0.00000  Uiso   1.00
H735   H     0.60146   0.15234   0.54445   0.00000  Uiso   1.00
H736   H     0.55164   0.17789   0.88667   0.00000  Uiso   1.00
H737   H     0.64115   0.19203   0.60788   0.00000  Uiso   1.00
H738   H     0.36087   0.15306   0.89352   0.00000  Uiso   1.00
H739   H     0.66605   0.14892   0.97521   0.00000  Uiso   1.00
H740   H     0.33834   0.20685   0.52717   0.00000  Uiso   1.00
H741   H     0.61870   0.03778   0.70745   0.00000  Uiso   1.00
H742   H     0.38136   0.29555   0.79247   0.00000  Uiso   1.00
H743   H     0.48206   0.04664   0.85199   0.00000  Uiso   1.00
H744   H     0.51793   0.28633   0.64746   0.00000  Uiso   1.00
H745   H     0.40439   0.21017   0.95850   0.00000  Uiso   1.00
H746   H     0.51956   0.16167   0.58375   0.00000  Uiso   1.00
H747   H     0.48662   0.20203   0.91917   0.00000  Uiso   1.00
H748   H     0.61908   0.29549   0.70758   0.00000  Uiso   1.00
H749   H     0.38096   0.03784   0.79236   0.00000  Uiso   1.00
H750   H     0.44014   0.11376   0.79184   0.00000  Uiso   1.00
H751   H     0.55986   0.21957   0.70815   0.00000  Uiso   1.00
H752   H     0.44652   0.15232   0.61216   0.00000  Uiso   1.00
N753   N     0.45069   0.16668   0.74999   0.00000  Uiso   1.00
N754   N     0.54931   0.16666   0.75001   0.00000  Uiso   1.00
O755   O     0.37291   0.10655   0.75000   0.00000  Uiso   1.00
O756   O     0.56360   0.09806   0.82920   0.00000  Uiso   1.00
O757   O     0.47530   0.07472   0.84207   0.00000  Uiso   1.00
O758   O     0.43634   0.23531   0.67083   0.00000  Uiso   1.00
O759   O     0.45777   0.27505   0.72855   0.00000  Uiso   1.00
O760   O     0.52474   0.25839   0.65771   0.00000  Uiso   1.00
O761   O     0.62709   0.22678   0.75000   0.00000  Uiso   1.00
O762   O     0.62706   0.10654   0.75000   0.00000  Uiso   1.00
O763   O     0.37294   0.22679   0.75000   0.00000  Uiso   1.00
O764   O     0.35186   0.16668   0.81491   0.00000  Uiso   1.00
O765   O     0.64814   0.16666   0.68508   0.00000  Uiso   1.00
O766   O     0.60600   0.16667   0.81492   0.00000  Uiso   1.00
O767   O     0.39400   0.16667   0.68508   0.00000  Uiso   1.00
O768   O     0.54248   0.05834   0.77129   0.00000  Uiso   1.00
S769   S     0.52678   0.09172   0.80418   0.00000  Uiso   1.00
S770   S     0.47327   0.24158   0.69573   0.00000  Uiso   1.00
C771   C     0.99957   0.08748   0.75011   0.00000  Uiso   1.00
C772   C     0.69362   0.02144   0.77365   0.00000  Uiso   1.00
C773   C     0.66750   0.29052   0.74956   0.00000  Uiso   1.00
C774   C     0.99920   0.04281   0.75039   0.00000  Uiso   1.00
C775   C     0.84837   0.13659   0.77434   0.00000  Uiso   1.00
C776   C     0.81830   0.19673   0.72564   0.00000  Uiso   1.00
C777   C     0.79952   0.13729   0.77373   0.00000  Uiso   1.00
C778   C     0.86715   0.19604   0.72626   0.00000  Uiso   1.00
C779   C     0.97263   0.16666   0.83592   0.00000  Uiso   1.00
C780   C     0.69406   0.16730   0.66409   0.00000  Uiso   1.00
C781   C     0.95741   0.16643   0.88502   0.00000  Uiso   1.00
C782   C     0.66710   0.24585   0.74987   0.00000  Uiso   1.00
C783   C     0.70971   0.17207   0.61511   0.00000  Uiso   1.00
C784   C     0.97393   0.15631   0.95653   0.00000  Uiso   1.00
C785   C     0.69612   0.19526   0.54518   0.00000  Uiso   1.00
C786   C     0.98999   0.15854   0.90995   0.00000  Uiso   1.00
C787   C     0.67860   0.18654   0.59109   0.00000  Uiso   1.00
C788   C     0.90909   0.17324   0.90706   0.00000  Uiso   1.00
C789   C     0.75799   0.16569   0.59280   0.00000  Uiso   1.00
C790   C     0.89222   0.17239   0.95403   0.00000  Uiso   1.00
C791   C     0.77711   0.17608   0.54696   0.00000  Uiso   1.00
C792   C     0.92536   0.16276   0.97870   0.00000  Uiso   1.00
C793   C     0.86155   0.16401   0.54775   0.00000  Uiso   1.00
C794   C     0.74496   0.19004   0.52295   0.00000  Uiso   1.00
C795   C     0.84315   0.17943   0.97704   0.00000  Uiso   1.00
C796   C     0.82704   0.17277   0.52440   0.00000  Uiso   1.00
C797   C     0.80987   0.19355   0.95440   0.00000  Uiso   1.00
C798   C     0.90972   0.15932   0.52522   0.00000  Uiso   1.00
C799   C     0.76187   0.19901   0.97710   0.00000  Uiso   1.00
C800   C     0.97252   0.02139   0.72649   0.00000  Uiso   1.00
C801   C     0.69420   0.31194   0.77344   0.00000  Uiso   1.00
C802   C     0.97309   0.31189   0.72630   0.00000  Uiso   1.00
Cu803  Cu    0.71355   0.16667   0.75000   0.00000  Uiso   1.00
Cu804  Cu    0.95311   0.16666   0.75000   0.00000  Uiso   1.00
H805   H     0.93480   0.15234   0.54445   0.00000  Uiso   1.00
H806   H     0.88497   0.17789   0.88667   0.00000  Uiso   1.00
H807   H     0.97448   0.19203   0.60788   0.00000  Uiso   1.00
H808   H     0.69420   0.15306   0.89352   0.00000  Uiso   1.00
H809   H     0.99938   0.14892   0.97521   0.00000  Uiso   1.00
H810   H     0.67168   0.20685   0.52717   0.00000  Uiso   1.00
H811   H     0.95204   0.03778   0.70745   0.00000  Uiso   1.00
H812   H     0.71470   0.29555   0.79247   0.00000  Uiso   1.00
H813   H     0.81539   0.04664   0.85199   0.00000  Uiso   1.00
H814   H     0.85126   0.28633   0.64746   0.00000  Uiso   1.00
H815   H     0.73772   0.21017   0.95850   0.00000  Uiso   1.00
H816   H     0.85289   0.16167   0.58375   0.00000  Uiso   1.00
H817   H     0.81995   0.20203   0.91917   0.00000  Uiso   1.00
H818   H     0.95242   0.29549   0.70758   0.00000  Uiso   1.00
H819   H     0.71430   0.03784   0.79236   0.00000  Uiso   1.00
H820   H     0.77347   0.11376   0.79184   0.00000  Uiso   1.00
H821   H     0.89320   0.21957   0.70815   0.00000  Uiso   1.00
H822   H     0.77986   0.15232   0.61216   0.00000  Uiso   1.00
N823   N     0.78403   0.16668   0.74999   0.00000  Uiso   1.00
N824   N     0.88264   0.16666   0.75001   0.00000  Uiso   1.00
O825   O     0.70625   0.10655   0.75000   0.00000  Uiso   1.00
O826   O     0.89693   0.09806   0.82920   0.00000  Uiso   1.00
O827   O     0.80863   0.07472   0.84207   0.00000  Uiso   1.00
O828   O     0.76967   0.23531   0.67083   0.00000  Uiso   1.00
O829   O     0.79111   0.27505   0.72855   0.00000  Uiso   1.00
O830   O     0.85807   0.25839   0.65771   0.00000  Uiso   1.00
O831   O     0.96042   0.22678   0.75000   0.00000  Uiso   1.00
O832   O     0.96039   0.10654   0.75000   0.00000  Uiso   1.00
O833   O     0.70628   0.22679   0.75000   0.00000  Uiso   1.00
O834   O     0.68519   0.16668   0.81491   0.00000  Uiso   1.00
O835   O     0.98148   0.16666   0.68508   0.00000  Uiso   1.00
O836   O     0.93933   0.16667   0.81492   0.00000  Uiso   1.00
O837   O     0.72733   0.16667   0.68508   0.00000  Uiso   1.00
O838   O     0.87581   0.05834   0.77129   0.00000  Uiso   1.00
S839   S     0.86012   0.09172   0.80418   0.00000  Uiso   1.00
S840   S     0.80660   0.24158   0.69573   0.00000  Uiso   1.00
C841   C     0.33291   0.42082   0.75011   0.00000  Uiso   1.00
C842   C     0.02695   0.35477   0.77365   0.00000  Uiso   1.00
C843   C     0.00083   0.62385   0.74956   0.00000  Uiso   1.00
C844   C     0.33253   0.37615   0.75039   0.00000  Uiso   1.00
C845   C     0.18170   0.46992   0.77434   0.00000  Uiso   1.00
C846   C     0.15164   0.53007   0.72564   0.00000  Uiso   1.00
C847   C     0.13286   0.47063   0.77373   0.00000  Uiso   1.00
C848   C     0.20048   0.52937   0.72626   0.00000  Uiso   1.00
C849   C     0.30597   0.49999   0.83592   0.00000  Uiso   1.00
C850   C     0.02739   0.50063   0.66409   0.00000  Uiso   1.00
C851   C     0.29074   0.49977   0.88502   0.00000  Uiso   1.00
C852   C     0.00043   0.57918   0.74987   0.00000  Uiso   1.00
C853   C     0.04304   0.50540   0.61511   0.00000  Uiso   1.00
C854   C     0.30726   0.48965   0.95653   0.00000  Uiso   1.00
C855   C     0.02945   0.52859   0.54518   0.00000  Uiso   1.00
C856   C     0.32332   0.49188   0.90995   0.00000  Uiso   1.00
C857   C     0.01194   0.51987   0.59109   0.00000  Uiso   1.00
C858   C     0.24242   0.50657   0.90706   0.00000  Uiso   1.00
C859   C     0.09133   0.49903   0.59280   0.00000  Uiso   1.00
C860   C     0.22556   0.50573   0.95403   0.00000  Uiso   1.00
C861   C     0.11044   0.50941   0.54696   0.00000  Uiso   1.00
C862   C     0.25870   0.49610   0.97870   0.00000  Uiso   1.00
C863   C     0.19488   0.49735   0.54775   0.00000  Uiso   1.00
C864   C     0.07829   0.52337   0.52295   0.00000  Uiso   1.00
C865   C     0.17648   0.51276   0.97704   0.00000  Uiso   1.00
C866   C     0.16038   0.50610   0.52440   0.00000  Uiso   1.00
C867   C     0.14320   0.52688   0.95440   0.00000  Uiso   1.00
C868   C     0.24306   0.49265   0.52522   0.00000  Uiso   1.00
C869   C     0.09520   0.53235   0.97710   0.00000  Uiso   1.00
C870   C     0.30585   0.35472   0.72649   0.00000  Uiso   1.00
C871   C     0.02753   0.64527   0.77344   0.00000  Uiso   1.00
C872   C     0.30642   0.64523   0.72630   0.00000  Uiso   1.00
Cu873  Cu    0.04689   0.50001   0.75000   0.00000  Uiso   1.00
Cu874  Cu    0.28645   0.49999   0.75000   0.00000  Uiso   1.00
H875   H     0.26813   0.48567   0.54445   0.00000  Uiso   1.00
H876   H     0.21831   0.51123   0.88667   0.00000  Uiso   1.00
H877   H     0.30781   0.52536   0.60788   0.00000  Uiso   1.00
H878   H     0.02753   0.48640   0.89352   0.00000  Uiso   1.00
H879   H     0.33271   0.48226   0.97521   0.00000  Uiso   1.00
H880   H     0.00501   0.54019   0.52717   0.00000  Uiso   1.00
H881   H     0.28537   0.37112   0.70745   0.00000  Uiso   1.00
H882   H     0.04803   0.62888   0.79247   0.00000  Uiso   1.00
H883   H     0.14872   0.37998   0.85199   0.00000  Uiso   1.00
H884   H     0.18460   0.61967   0.64746   0.00000  Uiso   1.00
H885   H     0.07105   0.54350   0.95850   0.00000  Uiso   1.00
H886   H     0.18623   0.49500   0.58375   0.00000  Uiso   1.00
H887   H     0.15328   0.53536   0.91917   0.00000  Uiso   1.00
H888   H     0.28575   0.62882   0.70758   0.00000  Uiso   1.00
H889   H     0.04763   0.37117   0.79236   0.00000  Uiso   1.00
H890   H     0.10681   0.44709   0.79184   0.00000  Uiso   1.00
H891   H     0.22653   0.55290   0.70815   0.00000  Uiso   1.00
H892   H     0.11319   0.48565   0.61216   0.00000  Uiso   1.00
N893   N     0.11736   0.50001   0.74999   0.00000  Uiso   1.00
N894   N     0.21597   0.49999   0.75001   0.00000  Uiso   1.00
O895   O     0.03958   0.43989   0.75000   0.00000  Uiso   1.00
O896   O     0.23027   0.43139   0.82920   0.00000  Uiso   1.00
O897   O     0.14197   0.40805   0.84207   0.00000  Uiso   1.00
O898   O     0.10301   0.56864   0.67083   0.00000  Uiso   1.00
O899   O     0.12444   0.60838   0.72855   0.00000  Uiso   1.00
O900   O     0.19141   0.59173   0.65771   0.00000  Uiso   1.00
O901   O     0.29375   0.56011   0.75000   0.00000  Uiso   1.00
O902   O     0.29372   0.43988   0.75000   0.00000  Uiso   1.00
O903   O     0.03961   0.56012   0.75000   0.00000  Uiso   1.00
O904   O     0.01852   0.50001   0.81491   0.00000  Uiso   1.00
O905   O     0.31481   0.49999   0.68508   0.00000  Uiso   1.00
O906   O     0.27267   0.50000   0.81492   0.00000  Uiso   1.00
O907   O     0.06067   0.50000   0.68508   0.00000  Uiso   1.00
O908   O     0.20914   0.39167   0.77129   0.00000  Uiso   1.00
S909   S     0.19345   0.42505   0.80418   0.00000  Uiso   1.00
S910   S     0.13993   0.57492   0.69573   0.00000  Uiso   1.00
C911   C     0.66624   0.42082   0.75011   0.00000  Uiso   1.00
C912   C     0.36028   0.35477   0.77365   0.00000  Uiso   1.00
C913   C     0.33416   0.62385   0.74956   0.00000  Uiso   1.00
C914   C     0.66586   0.37615   0.75039   0.00000  Uiso   1.00
C915   C     0.51503   0.46992   0.77434   0.00000  Uiso   1.00
C916   C     0.48497   0.53007   0.72564   0.00000  Uiso   1.00
C917   C     0.46619   0.47063   0.77373   0.00000  Uiso   1.00
C918   C     0.53381   0.52937   0.72626   0.00000  Uiso   1.00
C919   C     0.63930   0.49999   0.83592   0.00000  Uiso   1.00
C920   C     0.36073   0.50063   0.66409   0.00000  Uiso   1.00
C921   C     0.62407   0.49977   0.88502   0.00000  Uiso   1.00
C922   C     0.33377   0.57918   0.74987   0.00000  Uiso   1.00
C923   C     0.37637   0.50540   0.61511   0.00000  Uiso   1.00
C924   C     0.64060   0.48965   0.95653   0.00000  Uiso   1.00
C925   C     0.36279   0.52859   0.54518   0.00000  Uiso   1.00
C926   C     0.65665   0.49188   0.90995   0.00000  Uiso   1.00
C927   C     0.34527   0.51987   0.59109   0.00000  Uiso   1.00
C928   C     0.57576   0.50657   0.90706   0.00000  Uiso   1.00
C929   C     0.42466   0.49903   0.59280   0.00000  Uiso   1.00
C930   C     0.55889   0.50573   0.95403   0.00000  Uiso   1.00
C931   C     0.44378   0.50941   0.54696   0.00000  Uiso   1.00
C932   C     0.59203   0.49610   0.97870   0.00000  Uiso   1.00
C933   C     0.52821   0.49735   0.54775   0.00000  Uiso   1.00
C934   C     0.41163   0.52337   0.52295   0.00000  Uiso   1.00
C935   C     0.50982   0.51276   0.97704   0.00000  Uiso   1.00
C936   C     0.49371   0.50610   0.52440   0.00000  Uiso   1.00
C937   C     0.47653   0.52688   0.95440   0.00000  Uiso   1.00
C938   C     0.57639   0.49265   0.52522   0.00000  Uiso   1.00
C939   C     0.42853   0.53235   0.97710   0.00000  Uiso   1.00
C940   C     0.63919   0.35472   0.72649   0.00000  Uiso   1.00
C941   C     0.36086   0.64527   0.77344   0.00000  Uiso   1.00
C942   C     0.63976   0.64523   0.72630   0.00000  Uiso   1.00
Cu943  Cu    0.38022   0.50001   0.75000   0.00000  Uiso   1.00
Cu944  Cu    0.61978   0.49999   0.75000   0.00000  Uiso   1.00
H945   H     0.60146   0.48567   0.54445   0.00000  Uiso   1.00
H946   H     0.55164   0.51123   0.88667   0.00000  Uiso   1.00
H947   H     0.64115   0.52536   0.60788   0.00000  Uiso   1.00
H948   H     0.36087   0.48640   0.89352   0.00000  Uiso   1.00
H949   H     0.66605   0.48226   0.97521   0.00000  Uiso   1.00
H950   H     0.33834   0.54019   0.52717   0.00000  Uiso   1.00
H951   H     0.61870   0.37112   0.70745   0.00000  Uiso   1.00
H952   H     0.38136   0.62888   0.79247   0.00000  Uiso   1.00
H953   H     0.48206   0.37998   0.85199   0.00000  Uiso   1.00
H954   H     0.51793   0.61967   0.64746   0.00000  Uiso   1.00
H955   H     0.40439   0.54350   0.95850   0.00000  Uiso   1.00
H956   H     0.51956   0.49500   0.58375   0.00000  Uiso   1.00
H957   H     0.48662   0.53536   0.91917   0.00000  Uiso   1.00
H958   H     0.61908   0.62882   0.70758   0.00000  Uiso   1.00
H959   H     0.38096   0.37117   0.79236   0.00000  Uiso   1.00
H960   H     0.44014   0.44709   0.79184   0.00000  Uiso   1.00
H961   H     0.55986   0.55290   0.70815   0.00000  Uiso   1.00
H962   H     0.44652   0.48565   0.61216   0.00000  Uiso   1.00
N963   N     0.45069   0.50001   0.74999   0.00000  Uiso   1.00
N964   N     0.54931   0.49999   0.75001   0.00000  Uiso   1.00
O965   O     0.37291   0.43989   0.75000   0.00000  Uiso   1.00
O966   O     0.56360   0.43139   0.82920   0.00000  Uiso   1.00
O967   O     0.47530   0.40805   0.84207   0.00000  Uiso   1.00
O968   O     0.43634   0.56864   0.67083   0.00000  Uiso   1.00
O969   O     0.45777   0.60838   0.72855   0.00000  Uiso   1.00
O970   O     0.52474   0.59173   0.65771   0.00000  Uiso   1.00
O971   O     0.62709   0.56011   0.75000   0.00000  Uiso   1.00
O972   O     0.62706   0.43988   0.75000   0.00000  Uiso   1.00
O973   O     0.37294   0.56012   0.75000   0.00000  Uiso   1.00
O974   O     0.35186   0.50001   0.81491   0.00000  Uiso   1.00
O975   O     0.64814   0.49999   0.68508   0.00000  Uiso   1.00
O976   O     0.60600   0.50000   0.81492   0.00000  Uiso   1.00
O977   O     0.39400   0.50000   0.68508   0.00000  Uiso   1.00
O978   O     0.54248   0.39167   0.77129   0.00000  Uiso   1.00
S979   S     0.52678   0.42505   0.80418   0.00000  Uiso   1.00
S980   S     0.47327   0.57492   0.69573   0.00000  Uiso   1.00
C981   C     0.99957   0.42082   0.75011   0.00000  Uiso   1.00
C982   C     0.69362   0.35477   0.77365   0.00000  Uiso   1.00
C983   C     0.66750   0.62385   0.74956   0.00000  Uiso   1.00
C984   C     0.99920   0.37615   0.75039   0.00000  Uiso   1.00
C985   C     0.84837   0.46992   0.77434   0.00000  Uiso   1.00
C986   C     0.81830   0.53007   0.72564   0.00000  Uiso   1.00
C987   C     0.79952   0.47063   0.77373   0.00000  Uiso   1.00
C988   C     0.86715   0.52937   0.72626   0.00000  Uiso   1.00
C989   C     0.97263   0.49999   0.83592   0.00000  Uiso   1.00
C990   C     0.69406   0.50063   0.66409   0.00000  Uiso   1.00
C991   C     0.95741   0.49977   0.88502   0.00000  Uiso   1.00
C992   C     0.66710   0.57918   0.74987   0.00000  Uiso   1.00
C993   C     0.70971   0.50540   0.61511   0.00000  Uiso   1.00
C994   C     0.97393   0.48965   0.95653   0.00000  Uiso   1.00
C995   C     0.69612   0.52859   0.54518   0.00000  Uiso   1.00
C996   C     0.98999   0.49188   0.90995   0.00000  Uiso   1.00
C997   C     0.67860   0.51987   0.59109   0.00000  Uiso   1.00
C998   C     0.90909   0.50657   0.90706   0.00000  Uiso   1.00
C999   C     0.75799   0.49903   0.59280   0.00000  Uiso   1.00
C1000  C     0.89222   0.50573   0.95403   0.00000  Uiso   1.00
C1001  C     0.77711   0.50941   0.54696   0.00000  Uiso   1.00
C1002  C     0.92536   0.49610   0.97870   0.00000  Uiso   1.00
C1003  C     0.86155   0.49735   0.54775   0.00000  Uiso   1.00
C1004  C     0.74496   0.52337   0.52295   0.00000  Uiso   1.00
C1005  C     0.84315   0.51276   0.97704   0.00000  Uiso   1.00
C1006  C     0.82704   0.50610   0.52440   0.00000  Uiso   1.00
C1007  C     0.80987   0.52688   0.95440   0.00000  Uiso   1.00
C1008  C     0.90972   0.49265   0.52522   0.00000  Uiso   1.00
C1009  C     0.76187   0.53235   0.97710   0.00000  Uiso   1.00
C1010  C     0.97252   0.35472   0.72649   0.00000  Uiso   1.00
C1011  C     0.69420   0.64527   0.77344   0.00000  Uiso   1.00
C1012  C     0.97309   0.64523   0.72630   0.00000  Uiso   1.00
Cu1013 Cu    0.71355   0.50001   0.75000   0.00000  Uiso   1.00
Cu1014 Cu    0.95311   0.49999   0.75000   0.00000  Uiso   1.00
H1015  H     0.93480   0.48567   0.54445   0.00000  Uiso   1.00
H1016  H     0.88497   0.51123   0.88667   0.00000  Uiso   1.00
H1017  H     0.97448   0.52536   0.60788   0.00000  Uiso   1.00
H1018  H     0.69420   0.48640   0.89352   0.00000  Uiso   1.00
H1019  H     0.99938   0.48226   0.97521   0.00000  Uiso   1.00
H1020  H     0.67168   0.54019   0.52717   0.00000  Uiso   1.00
H1021  H     0.95204   0.37112   0.70745   0.00000  Uiso   1.00
H1022  H     0.71470   0.62888   0.79247   0.00000  Uiso   1.00
H1023  H     0.81539   0.37998   0.85199   0.00000  Uiso   1.00
H1024  H     0.85126   0.61967   0.64746   0.00000  Uiso   1.00
H1025  H     0.73772   0.54350   0.95850   0.00000  Uiso   1.00
H1026  H     0.85289   0.49500   0.58375   0.00000  Uiso   1.00
H1027  H     0.81995   0.53536   0.91917   0.00000  Uiso   1.00
H1028  H     0.95242   0.62882   0.70758   0.00000  Uiso   1.00
H1029  H     0.71430   0.37117   0.79236   0.00000  Uiso   1.00
H1030  H     0.77347   0.44709   0.79184   0.00000  Uiso   1.00
H1031  H     0.89320   0.55290   0.70815   0.00000  Uiso   1.00
H1032  H     0.77986   0.48565   0.61216   0.00000  Uiso   1.00
N1033  N     0.78403   0.50001   0.74999   0.00000  Uiso   1.00
N1034  N     0.88264   0.49999   0.75001   0.00000  Uiso   1.00
O1035  O     0.70625   0.43989   0.75000   0.00000  Uiso   1.00
O1036  O     0.89693   0.43139   0.82920   0.00000  Uiso   1.00
O1037  O     0.80863   0.40805   0.84207   0.00000  Uiso   1.00
O1038  O     0.76967   0.56864   0.67083   0.00000  Uiso   1.00
O1039  O     0.79111   0.60838   0.72855   0.00000  Uiso   1.00
O1040  O     0.85807   0.59173   0.65771   0.00000  Uiso   1.00
O1041  O     0.96042   0.56011   0.75000   0.00000  Uiso   1.00
O1042  O     0.96039   0.43988   0.75000   0.00000  Uiso   1.00
O1043  O     0.70628   0.56012   0.75000   0.00000  Uiso   1.00
O1044  O     0.68519   0.50001   0.81491   0.00000  Uiso   1.00
O1045  O     0.98148   0.49999   0.68508   0.00000  Uiso   1.00
O1046  O     0.93933   0.50000   0.81492   0.00000  Uiso   1.00
O1047  O     0.72733   0.50000   0.68508   0.00000  Uiso   1.00
O1048  O     0.87581   0.39167   0.77129   0.00000  Uiso   1.00
S1049  S     0.86012   0.42505   0.80418   0.00000  Uiso   1.00
S1050  S     0.80660   0.57492   0.69573   0.00000  Uiso   1.00
C1051  C     0.33291   0.75415   0.75011   0.00000  Uiso   1.00
C1052  C     0.02695   0.68810   0.77365   0.00000  Uiso   1.00
C1053  C     0.00083   0.95718   0.74956   0.00000  Uiso   1.00
C1054  C     0.33253   0.70948   0.75039   0.00000  Uiso   1.00
C1055  C     0.18170   0.80326   0.77434   0.00000  Uiso   1.00
C1056  C     0.15164   0.86340   0.72564   0.00000  Uiso   1.00
C1057  C     0.13286   0.80396   0.77373   0.00000  Uiso   1.00
C1058  C     0.20048   0.86270   0.72626   0.00000  Uiso   1.00
C1059  C     0.30597   0.83333   0.83592   0.00000  Uiso   1.00
C1060  C     0.02739   0.83396   0.66409   0.00000  Uiso   1.00
C1061  C     0.29074   0.83310   0.88502   0.00000  Uiso   1.00
C1062  C     0.00043   0.91252   0.74987   0.00000  Uiso   1.00
C1063  C     0.04304   0.83873   0.61511   0.00000  Uiso   1.00
C1064  C     0.30726   0.82298   0.95653   0.00000  Uiso   1.00
C1065  C     0.02945   0.86192   0.54518   0.00000  Uiso   1.00
C1066  C     0.32332   0.82521   0.90995   0.00000  Uiso   1.00
C1067  C     0.01194   0.85321   0.59109   0.00000  Uiso   1.00
C1068  C     0.24242   0.83990   0.90706   0.00000  Uiso   1.00
C1069  C     0.09133   0.83236   0.59280   0.00000  Uiso   1.00
C1070  C     0.22556   0.83906   0.95403   0.00000  Uiso   1.00
C1071  C     0.11044   0.84274   0.54696   0.00000  Uiso   1.00
C1072  C     0.25870   0.82943   0.97870   0.00000  Uiso   1.00
C1073  C     0.19488   0.83068   0.54775   0.00000  Uiso   1.00
C1074  C     0.07829   0.85670   0.52295   0.00000  Uiso   1.00
C1075  C     0.17648   0.84610   0.97704   0.00000  Uiso   1.00
C1076  C     0.16038   0.83943   0.52440   0.00000  Uiso   1.00
C1077  C     0.14320   0.86021   0.95440   0.00000  Uiso   1.00
C1078  C     0.24306   0.82599   0.52522   0.00000  Uiso   1.00
C1079  C     0.09520   0.86568   0.97710   0.00000  Uiso   1.00
C1080  C     0.30585   0.68806   0.72649   0.00000  Uiso   1.00
C1081  C     0.02753   0.97861   0.77344   0.00000  Uiso   1.00
C1082  C     0.30642   0.97856   0.72630   0.00000  Uiso   1.00
Cu1083 Cu    0.04689   0.83334   0.75000   0.00000  Uiso   1.00
Cu1084 Cu    0.28645   0.83333   0.75000   0.00000  Uiso   1.00
H1085  H     0.26813   0.81901   0.54445   0.00000  Uiso   1.00
H1086  H     0.21831   0.84456   0.88667   0.00000  Uiso   1.00
H1087  H     0.30781   0.85870   0.60788   0.00000  Uiso   1.00
H1088  H     0.02753   0.81973   0.89352   0.00000  Uiso   1.00
H1089  H     0.33271   0.81559   0.97521   0.00000  Uiso   1.00
H1090  H     0.00501   0.87352   0.52717   0.00000  Uiso   1.00
H1091  H     0.28537   0.70445   0.70745   0.00000  Uiso   1.00
H1092  H     0.04803   0.96221   0.79247   0.00000  Uiso   1.00
H1093  H     0.14872   0.71331   0.85199   0.00000  Uiso   1.00
H1094  H     0.18460   0.95300   0.64746   0.00000  Uiso   1.00
H1095  H     0.07105   0.87683   0.95850   0.00000  Uiso   1.00
H1096  H     0.18623   0.82833   0.58375   0.00000  Uiso   1.00
H1097  H     0.15328   0.86870   0.91917   0.00000  Uiso   1.00
H1098  H     0.28575   0.96215   0.70758   0.00000  Uiso   1.00
H1099  H     0.04763   0.70451   0.79236   0.00000  Uiso   1.00
H1100  H     0.10681   0.78043   0.79184   0.00000  Uiso   1.00
H1101  H     0.22653   0.88624   0.70815   0.00000  Uiso   1.00
H1102  H     0.11319   0.81898   0.61216   0.00000  Uiso   1.00
N1103  N     0.11736   0.83334   0.74999   0.00000  Uiso   1.00
N1104  N     0.21597   0.83332   0.75001   0.00000  Uiso   1.00
O1105  O     0.03958   0.77322   0.75000   0.00000  Uiso   1.00
O1106  O     0.23027   0.76472   0.82920   0.00000  Uiso   1.00
O1107  O     0.14197   0.74139   0.84207   0.00000  Uiso   1.00
O1108  O     0.10301   0.90197   0.67083   0.00000  Uiso   1.00
O1109  O     0.12444   0.94172   0.72855   0.00000  Uiso   1.00
O1110  O     0.19141   0.92506   0.65771   0.00000  Uiso   1.00
O1111  O     0.29375   0.89345   0.75000   0.00000  Uiso   1.00
O1112  O     0.29372   0.77321   0.75000   0.00000  Uiso   1.00
O1113  O     0.03961   0.89346   0.75000   0.00000  Uiso   1.00
O1114  O     0.01852   0.83334   0.81491   0.00000  Uiso   1.00
O1115  O     0.31481   0.83332   0.68508   0.00000  Uiso   1.00
O1116  O     0.27267   0.83333   0.81492   0.00000  Uiso   1.00
O1117  O     0.06067   0.83333   0.68508   0.00000  Uiso   1.00
O1118  O     0.20914   0.72501   0.77129   0.00000  Uiso   1.00
S1119  S     0.19345   0.75838   0.80418   0.00000  Uiso   1.00
S1120  S     0.13993   0.90825   0.69573   0.00000  Uiso   1.00
C1121  C     0.66624   0.75415   0.75011   0.00000  Uiso   1.00
C1122  C     0.36028   0.68810   0.77365   0.00000  Uiso   1.00
C1123  C     0.33416   0.95718   0.74956   0.00000  Uiso   1.00
C1124  C     0.66586   0.70948   0.75039   0.00000  Uiso   1.00
C1125  C     0.51503   0.80326   0.77434   0.00000  Uiso   1.00
C1126  C     0.48497   0.86340   0.72564   0.00000  Uiso   1.00
C1127  C     0.46619   0.80396   0.77373   0.00000  Uiso   1.00
C1128  C     0.53381   0.86270   0.72626   0.00000  Uiso   1.00
C1129  C     0.63930   0.83333   0.83592   0.00000  Uiso   1.00
C1130  C     0.36073   0.83396   0.66409   0.00000  Uiso   1.00
C1131  C     0.62407   0.83310   0.88502   0.00000  Uiso   1.00
C1132  C     0.33377   0.91252   0.74987   0.00000  Uiso   1.00
C1133  C     0.37637   0.83873   0.61511   0.00000  Uiso   1.00
C1134  C     0.64060   0.82298   0.95653   0.00000  Uiso   1.00
C1135  C     0.36279   0.86192   0.54518   0.00000  Uiso   1.00
C1136  C     0.65665   0.82521   0.90995   0.00000  Uiso   1.00
C1137  C     0.34527   0.85321   0.59109   0.00000  Uiso   1.00
C1138  C     0.57576   0.83990   0.90706   0.00000  Uiso   1.00
C1139  C     0.42466   0.83236   0.59280   0.00000  Uiso   1.00
C1140  C     0.55889   0.83906   0.95403   0.00000  Uiso   1.00
C1141  C     0.44378   0.84274   0.54696   0.00000  Uiso   1.00
C1142  C     0.59203   0.82943   0.97870   0.00000  Uiso   1.00
C1143  C     0.52821   0.83068   0.54775   0.00000  Uiso   1.00
C1144  C     0.41163   0.85670   0.52295   0.00000  Uiso   1.00
C1145  C     0.50982   0.84610   0.97704   0.00000  Uiso   1.00
C1146  C     0.49371   0.83943   0.52440   0.00000  Uiso   1.00
C1147  C     0.47653   0.86021   0.95440   0.00000  Uiso   1.00
C1148  C     0.57639   0.82599   0.52522   0.00000  Uiso   1.00
C1149  C     0.42853   0.86568   0.97710   0.00000  Uiso   1.00
C1150  C     0.63919   0.68806   0.72649   0.00000  Uiso   1.00
C1151  C     0.36086   0.97861   0.77344   0.00000  Uiso   1.00
C1152  C     0.63976   0.97856   0.72630   0.00000  Uiso   1.00
Cu1153 Cu    0.38022   0.83334   0.75000   0.00000  Uiso   1.00
Cu1154 Cu    0.61978   0.83333   0.75000   0.00000  Uiso   1.00
H1155  H     0.60146   0.81901   0.54445   0.00000  Uiso   1.00
H1156  H     0.55164   0.84456   0.88667   0.00000  Uiso   1.00
H1157  H     0.64115   0.85870   0.60788   0.00000  Uiso   1.00
H1158  H     0.36087   0.81973   0.89352   0.00000  Uiso   1.00
H1159  H     0.66605   0.81559   0.97521   0.00000  Uiso   1.00
H1160  H     0.33834   0.87352   0.52717   0.00000  Uiso   1.00
H1161  H     0.61870   0.70445   0.70745   0.00000  Uiso   1.00
H1162  H     0.38136   0.96221   0.79247   0.00000  Uiso   1.00
H1163  H     0.48206   0.71331   0.85199   0.00000  Uiso   1.00
H1164  H     0.51793   0.95300   0.64746   0.00000  Uiso   1.00
H1165  H     0.40439   0.87683   0.95850   0.00000  Uiso   1.00
H1166  H     0.51956   0.82833   0.58375   0.00000  Uiso   1.00
H1167  H     0.48662   0.86870   0.91917   0.00000  Uiso   1.00
H1168  H     0.61908   0.96215   0.70758   0.00000  Uiso   1.00
H1169  H     0.38096   0.70451   0.79236   0.00000  Uiso   1.00
H1170  H     0.44014   0.78043   0.79184   0.00000  Uiso   1.00
H1171  H     0.55986   0.88624   0.70815   0.00000  Uiso   1.00
H1172  H     0.44652   0.81898   0.61216   0.00000  Uiso   1.00
N1173  N     0.45069   0.83334   0.74999   0.00000  Uiso   1.00
N1174  N     0.54931   0.83332   0.75001   0.00000  Uiso   1.00
O1175  O     0.37291   0.77322   0.75000   0.00000  Uiso   1.00
O1176  O     0.56360   0.76472   0.82920   0.00000  Uiso   1.00
O1177  O     0.47530   0.74139   0.84207   0.00000  Uiso   1.00
O1178  O     0.43634   0.90197   0.67083   0.00000  Uiso   1.00
O1179  O     0.45777   0.94172   0.72855   0.00000  Uiso   1.00
O1180  O     0.52474   0.92506   0.65771   0.00000  Uiso   1.00
O1181  O     0.62709   0.89345   0.75000   0.00000  Uiso   1.00
O1182  O     0.62706   0.77321   0.75000   0.00000  Uiso   1.00
O1183  O     0.37294   0.89346   0.75000   0.00000  Uiso   1.00
O1184  O     0.35186   0.83334   0.81491   0.00000  Uiso   1.00
O1185  O     0.64814   0.83332   0.68508   0.00000  Uiso   1.00
O1186  O     0.60600   0.83333   0.81492   0.00000  Uiso   1.00
O1187  O     0.39400   0.83333   0.68508   0.00000  Uiso   1.00
O1188  O     0.54248   0.72501   0.77129   0.00000  Uiso   1.00
S1189  S     0.52678   0.75838   0.80418   0.00000  Uiso   1.00
S1190  S     0.47327   0.90825   0.69573   0.00000  Uiso   1.00
C1191  C     0.99957   0.75415   0.75011   0.00000  Uiso   1.00
C1192  C     0.69362   0.68810   0.77365   0.00000  Uiso   1.00
C1193  C     0.66750   0.95718   0.74956   0.00000  Uiso   1.00
C1194  C     0.99920   0.70948   0.75039   0.00000  Uiso   1.00
C1195  C     0.84837   0.80326   0.77434   0.00000  Uiso   1.00
C1196  C     0.81830   0.86340   0.72564   0.00000  Uiso   1.00
C1197  C     0.79952   0.80396   0.77373   0.00000  Uiso   1.00
C1198  C     0.86715   0.86270   0.72626   0.00000  Uiso   1.00
C1199  C     0.97263   0.83333   0.83592   0.00000  Uiso   1.00
C1200  C     0.69406   0.83396   0.66409   0.00000  Uiso   1.00
C1201  C     0.95741   0.83310   0.88502   0.00000  Uiso   1.00
C1202  C     0.66710   0.91252   0.74987   0.00000  Uiso   1.00
C1203  C     0.70971   0.83873   0.61511   0.00000  Uiso   1.00
C1204  C     0.97393   0.82298   0.95653   0.00000  Uiso   1.00
C1205  C     0.69612   0.86192   0.54518   0.00000  Uiso   1.00
C1206  C     0.98999   0.82521   0.90995   0.00000  Uiso   1.00
C1207  C     0.67860   0.85321   0.59109   0.00000  Uiso   1.00
C1208  C     0.90909   0.83990   0.90706   0.00000  Uiso   1.00
C1209  C     0.75799   0.83236   0.59280   0.00000  Uiso   1.00
C1210  C     0.89222   0.83906   0.95403   0.00000  Uiso   1.00
C1211  C     0.77711   0.84274   0.54696   0.00000  Uiso   1.00
C1212  C     0.92536   0.82943   0.97870   0.00000  Uiso   1.00
C1213  C     0.86155   0.83068   0.54775   0.00000  Uiso   1.00
C1214  C     0.74496   0.85670   0.52295   0.00000  Uiso   1.00
C1215  C     0.84315   0.84610   0.97704   0.00000  Uiso   1.00
C1216  C     0.82704   0.83943   0.52440   0.00000  Uiso   1.00
C1217  C     0.80987   0.86021   0.95440   0.00000  Uiso   1.00
C1218  C     0.90972   0.82599   0.52522   0.00000  Uiso   1.00
C1219  C     0.76187   0.86568   0.97710   0.00000  Uiso   1.00
C1220  C     0.97252   0.68806   0.72649   0.00000  Uiso   1.00
C1221  C     0.69420   0.97861   0.77344   0.00000  Uiso   1.00
C1222  C     0.97309   0.97856   0.72630   0.00000  Uiso   1.00
Cu1223 Cu    0.71355   0.83334   0.75000   0.00000  Uiso   1.00
Cu1224 Cu    0.95311   0.83333   0.75000   0.00000  Uiso   1.00
H1225  H     0.93480   0.81901   0.54445   0.00000  Uiso   1.00
H1226  H     0.88497   0.84456   0.88667   0.00000  Uiso   1.00
H1227  H     0.97448   0.85870   0.60788   0.00000  Uiso   1.00
H1228  H     0.69420   0.81973   0.89352   0.00000  Uiso   1.00
H1229  H     0.99938   0.81559   0.97521   0.00000  Uiso   1.00
H1230  H     0.67168   0.87352   0.52717   0.00000  Uiso   1.00
H1231  H     0.95204   0.70445   0.70745   0.00000  Uiso   1.00
H1232  H     0.71470   0.96221   0.79247   0.00000  Uiso   1.00
H1233  H     0.81539   0.71331   0.85199   0.00000  Uiso   1.00
H1234  H     0.85126   0.95300   0.64746   0.00000  Uiso   1.00
H1235  H     0.73772   0.87683   0.95850   0.00000  Uiso   1.00
H1236  H     0.85289   0.82833   0.58375   0.00000  Uiso   1.00
H1237  H     0.81995   0.86870   0.91917   0.00000  Uiso   1.00
H1238  H     0.95242   0.96215   0.70758   0.00000  Uiso   1.00
H1239  H     0.71430   0.70451   0.79236   0.00000  Uiso   1.00
H1240  H     0.77347   0.78043   0.79184   0.00000  Uiso   1.00
H1241  H     0.89320   0.88624   0.70815   0.00000  Uiso   1.00
H1242  H     0.77986   0.81898   0.61216   0.00000  Uiso   1.00
N1243  N     0.78403   0.83334   0.74999   0.00000  Uiso   1.00
N1244  N     0.88264   0.83332   0.75001   0.00000  Uiso   1.00
O1245  O     0.70625   0.77322   0.75000   0.00000  Uiso   1.00
O1246  O     0.89693   0.76472   0.82920   0.00000  Uiso   1.00
O1247  O     0.80863   0.74139   0.84207   0.00000  Uiso   1.00
O1248  O     0.76967   0.90197   0.67083   0.00000  Uiso   1.00
O1249  O     0.79111   0.94172   0.72855   0.00000  Uiso   1.00
O1250  O     0.85807   0.92506   0.65771   0.00000  Uiso   1.00
O1251  O     0.96042   0.89345   0.75000   0.00000  Uiso   1.00
O1252  O     0.96039   0.77321   0.75000   0.00000  Uiso   1.00
O1253  O     0.70628   0.89346   0.75000   0.00000  Uiso   1.00
O1254  O     0.68519   0.83334   0.81491   0.00000  Uiso   1.00
O1255  O     0.98148   0.83332   0.68508   0.00000  Uiso   1.00
O1256  O     0.93933   0.83333   0.81492   0.00000  Uiso   1.00
O1257  O     0.72733   0.83333   0.68508   0.00000  Uiso   1.00
O1258  O     0.87581   0.72501   0.77129   0.00000  Uiso   1.00
S1259  S     0.86012   0.75838   0.80418   0.00000  Uiso   1.00
S1260  S     0.80660   0.90825   0.69573   0.00000  Uiso   1.00
loop_
_geom_bond_atom_site_label_1
_geom_bond_atom_site_label_2
_geom_bond_distance
_geom_bond_site_symmetry_2
_ccdc_geom_bond_type
C1     C4      1.443   .     S
C1     O62     1.303   .     A
C1     O125    1.294   .     S
C2     H49     1.084   .     S
C2     C144    1.401   1_455 S
C2     C451    1.385   1_545 S
C3     C31     1.397   .     A
C3     C12     1.443   .     S
C3     C172    1.401   1_455 S
C4     C30     1.397   .     A
C4     C72     1.401   .     S
C5     C7      1.416   .     A
C5     N54     1.407   .     A
C5     S69     1.787   .     S
C6     S70     1.787   .     S
C6     C8      1.416   .     A
C6     N53     1.407   .     A
C7     N53     1.345   .     A
C7     H50     1.080   .     S
C8     H51     1.080   .     S
C8     N54     1.345   .     A
C9     C11     1.467   .     S
C9     O66     1.305   .     A
C9     O134    1.303   .     S
C10    O67     1.304   .     A
C10    C13     1.465   .     S
C10    O205    1.303   1_455 S
C11    C16     1.400   .     A
C11    C18     1.398   .     A
C12    O63     1.303   .     A
C12    O201    1.294   1_455 S
C13    C17     1.399   .     A
C13    C19     1.396   .     A
C14    C22     1.403   .     A
C14    H39     1.083   .     S
C14    C16     1.391   .     A
C15    C24     1.403   .     A
C15    H40     1.083   .     S
C15    C17     1.392   .     A
C16    H108    1.083   .     S
C17    H177    1.083   1_455 S
C18    C20     1.404   .     A
C18    H36     1.075   .     S
C19    H52     1.076   .     S
C19    C21     1.404   .     A
C20    C22     1.418   .     A
C20    C25     1.425   .     A
C21    C26     1.424   .     A
C21    C24     1.418   .     A
C22    C658    1.390   .     S
C23    H46     1.077   .     S
C23    C28     1.386   .     A
C23    C26     1.416   .     A
C24    C659    1.390   1_554 S
C25    C27     1.417   .     A
C25    C656    1.423   .     S
C26    C655    1.423   1_554 S
C27    C29     1.387   .     A
C27    H47     1.077   .     S
C28    H35     1.084   .     S
C28    C652    1.390   1_554 S
C29    H45     1.084   .     S
C29    C654    1.390   .     S
C30    H41     1.083   .     S
C30    C452    1.385   1_545 S
C31    H42     1.083   .     S
C31    C212    1.385   .     S
C32    H48     1.084   .     S
C32    C73     1.401   .     S
C32    C240    1.385   .     S
Cu33   O55     1.949   .     S
Cu33   O63     1.960   .     S
Cu33   O64     1.956   .     S
Cu33   N53     2.034   .     S
Cu33   O67     1.946   .     S
Cu33   Cu174   2.707   1_455 S
Cu34   O66     1.946   .     S
Cu34   O65     1.956   .     S
Cu34   N54     2.034   .     S
Cu34   O62     1.960   .     S
Cu34   O61     1.949   .     S
Cu34   Cu103   2.707   .     S
H37    C87     1.083   .     S
H38    C156    1.083   1_455 S
H43    O57     0.991   .     S
H44    O60     0.991   .     S
O55    C141    1.294   1_455 S
O56    S69     1.496   .     D
O57    S69     1.684   .     S
O58    S70     1.496   .     D
O59    S70     1.501   .     D
O60    S70     1.684   .     S
O61    C82     1.294   .     S
O64    C149    1.303   1_455 S
O65    C80     1.303   .     S
O68    S69     1.501   .     D
C71    C74     1.443   .     S
C71    O132    1.303   .     A
C71    O195    1.294   .     S
C72    H119    1.084   .     S
C72    C521    1.385   1_545 S
C73    C101    1.397   .     A
C73    C82     1.443   .     S
C74    C100    1.397   .     A
C74    C142    1.401   .     S
C75    C77     1.416   .     A
C75    N124    1.407   .     A
C75    S139    1.787   .     S
C76    S140    1.787   .     S
C76    C78     1.416   .     A
C76    N123    1.407   .     A
C77    N123    1.345   .     A
C77    H120    1.080   .     S
C78    H121    1.080   .     S
C78    N124    1.345   .     A
C79    C81     1.467   .     S
C79    O136    1.305   .     A
C79    O204    1.303   .     S
C80    O137    1.304   .     A
C80    C83     1.465   .     S
C81    C86     1.400   .     A
C81    C88     1.398   .     A
C82    O133    1.303   .     A
C83    C87     1.399   .     A
C83    C89     1.396   .     A
C84    C92     1.403   .     A
C84    H109    1.083   .     S
C84    C86     1.391   .     A
C85    C94     1.403   .     A
C85    H110    1.083   .     S
C85    C87     1.392   .     A
C86    H178    1.083   .     S
C88    C90     1.404   .     A
C88    H106    1.075   .     S
C89    H122    1.076   .     S
C89    C91     1.404   .     A
C90    C92     1.418   .     A
C90    C95     1.425   .     A
C91    C96     1.424   .     A
C91    C94     1.418   .     A
C92    C728    1.390   .     S
C93    H116    1.077   .     S
C93    C98     1.386   .     A
C93    C96     1.416   .     A
C94    C729    1.390   1_554 S
C95    C97     1.417   .     A
C95    C726    1.423   .     S
C96    C725    1.423   1_554 S
C97    C99     1.387   .     A
C97    H117    1.077   .     S
C98    H105    1.084   .     S
C98    C722    1.390   1_554 S
C99    H115    1.084   .     S
C99    C724    1.390   .     S
C100   H111    1.083   .     S
C100   C522    1.385   1_545 S
C101   H112    1.083   .     S
C101   C282    1.385   .     S
C102   H118    1.084   .     S
C102   C143    1.401   .     S
C102   C310    1.385   .     S
Cu103  O125    1.949   .     S
Cu103  O133    1.960   .     S
Cu103  O134    1.956   .     S
Cu103  N123    2.034   .     S
Cu103  O137    1.946   .     S
Cu104  O136    1.946   .     S
Cu104  O135    1.956   .     S
Cu104  N124    2.034   .     S
Cu104  O132    1.960   .     S
Cu104  O131    1.949   .     S
Cu104  Cu173   2.707   .     S
H107   C157    1.083   .     S
H113   O127    0.991   .     S
H114   O130    0.991   .     S
O126   S139    1.496   .     D
O127   S139    1.684   .     S
O128   S140    1.496   .     D
O129   S140    1.501   .     D
O130   S140    1.684   .     S
O131   C152    1.294   .     S
O135   C150    1.303   .     S
O138   S139    1.501   .     D
C141   C144    1.443   .     S
C141   O202    1.303   .     A
C141   O55     1.294   1_655 S
C142   H189    1.084   .     S
C142   C591    1.385   1_545 S
C143   C171    1.397   .     A
C143   C152    1.443   .     S
C144   C170    1.397   .     A
C144   C2      1.401   1_655 S
C145   C147    1.416   .     A
C145   N194    1.407   .     A
C145   S209    1.787   .     S
C146   S210    1.787   .     S
C146   C148    1.416   .     A
C146   N193    1.407   .     A
C147   N193    1.345   .     A
C147   H190    1.080   .     S
C148   H191    1.080   .     S
C148   N194    1.345   .     A
C149   C151    1.467   .     S
C149   O206    1.305   .     A
C149   O64     1.303   1_655 S
C150   O207    1.304   .     A
C150   C153    1.465   .     S
C151   C156    1.400   .     A
C151   C158    1.398   .     A
C152   O203    1.303   .     A
C153   C157    1.399   .     A
C153   C159    1.396   .     A
C154   C162    1.403   .     A
C154   H179    1.083   .     S
C154   C156    1.391   .     A
C155   C164    1.403   .     A
C155   H180    1.083   .     S
C155   C157    1.392   .     A
C156   H38     1.083   1_655 S
C158   C160    1.404   .     A
C158   H176    1.075   .     S
C159   H192    1.076   .     S
C159   C161    1.404   .     A
C160   C162    1.418   .     A
C160   C165    1.425   .     A
C161   C166    1.424   .     A
C161   C164    1.418   .     A
C162   C798    1.390   .     S
C163   H186    1.077   .     S
C163   C168    1.386   .     A
C163   C166    1.416   .     A
C164   C799    1.390   1_554 S
C165   C167    1.417   .     A
C165   C796    1.423   .     S
C166   C795    1.423   1_554 S
C167   C169    1.387   .     A
C167   H187    1.077   .     S
C168   H175    1.084   .     S
C168   C792    1.390   1_554 S
C169   H185    1.084   .     S
C169   C794    1.390   .     S
C170   H181    1.083   .     S
C170   C592    1.385   1_545 S
C171   H182    1.083   .     S
C171   C352    1.385   .     S
C172   H188    1.084   .     S
C172   C3      1.401   1_655 S
C172   C380    1.385   .     S
Cu173  O195    1.949   .     S
Cu173  O203    1.960   .     S
Cu173  O204    1.956   .     S
Cu173  N193    2.034   .     S
Cu173  O207    1.946   .     S
Cu174  O206    1.946   .     S
Cu174  O205    1.956   .     S
Cu174  N194    2.034   .     S
Cu174  O202    1.960   .     S
Cu174  O201    1.949   .     S
Cu174  Cu33    2.707   1_655 S
H177   C17     1.083   1_655 S
H183   O197    0.991   .     S
H184   O200    0.991   .     S
O196   S209    1.496   .     D
O197   S209    1.684   .     S
O198   S210    1.496   .     D
O199   S210    1.501   .     D
O200   S210    1.684   .     S
O201   C12     1.294   1_655 S
O205   C10     1.303   1_655 S
O208   S209    1.501   .     D
C211   C214    1.443   .     S
C211   O272    1.303   .     A
C211   O335    1.294   .     S
C212   H259    1.084   .     S
C212   C354    1.401   1_455 S
C213   C241    1.397   .     A
C213   C222    1.443   .     S
C213   C382    1.401   1_455 S
C214   C240    1.397   .     A
C214   C282    1.401   .     S
C215   C217    1.416   .     A
C215   N264    1.407   .     A
C215   S279    1.787   .     S
C216   S280    1.787   .     S
C216   C218    1.416   .     A
C216   N263    1.407   .     A
C217   N263    1.345   .     A
C217   H260    1.080   .     S
C218   H261    1.080   .     S
C218   N264    1.345   .     A
C219   C221    1.467   .     S
C219   O276    1.305   .     A
C219   O344    1.303   .     S
C220   O277    1.304   .     A
C220   C223    1.465   .     S
C220   O415    1.303   1_455 S
C221   C226    1.400   .     A
C221   C228    1.398   .     A
C222   O273    1.303   .     A
C222   O411    1.294   1_455 S
C223   C227    1.399   .     A
C223   C229    1.396   .     A
C224   C232    1.403   .     A
C224   H249    1.083   .     S
C224   C226    1.391   .     A
C225   C234    1.403   .     A
C225   H250    1.083   .     S
C225   C227    1.392   .     A
C226   H318    1.083   .     S
C227   H387    1.083   1_455 S
C228   C230    1.404   .     A
C228   H246    1.075   .     S
C229   H262    1.076   .     S
C229   C231    1.404   .     A
C230   C232    1.418   .     A
C230   C235    1.425   .     A
C231   C236    1.424   .     A
C231   C234    1.418   .     A
C232   C868    1.390   .     S
C233   H256    1.077   .     S
C233   C238    1.386   .     A
C233   C236    1.416   .     A
C234   C869    1.390   1_554 S
C235   C237    1.417   .     A
C235   C866    1.423   .     S
C236   C865    1.423   1_554 S
C237   C239    1.387   .     A
C237   H257    1.077   .     S
C238   H245    1.084   .     S
C238   C862    1.390   1_554 S
C239   H255    1.084   .     S
C239   C864    1.390   .     S
C240   H251    1.083   .     S
C241   H252    1.083   .     S
C241   C422    1.385   .     S
C242   H258    1.084   .     S
C242   C283    1.401   .     S
C242   C450    1.385   .     S
Cu243  O265    1.949   .     S
Cu243  O273    1.960   .     S
Cu243  O274    1.956   .     S
Cu243  N263    2.034   .     S
Cu243  O277    1.946   .     S
Cu243  Cu384   2.707   1_455 S
Cu244  O276    1.946   .     S
Cu244  O275    1.956   .     S
Cu244  N264    2.034   .     S
Cu244  O272    1.960   .     S
Cu244  O271    1.949   .     S
Cu244  Cu313   2.707   .     S
H247   C297    1.083   .     S
H248   C366    1.083   1_455 S
H253   O267    0.991   .     S
H254   O270    0.991   .     S
O265   C351    1.294   1_455 S
O266   S279    1.496   .     D
O267   S279    1.684   .     S
O268   S280    1.496   .     D
O269   S280    1.501   .     D
O270   S280    1.684   .     S
O271   C292    1.294   .     S
O274   C359    1.303   1_455 S
O275   C290    1.303   .     S
O278   S279    1.501   .     D
C281   C284    1.443   .     S
C281   O342    1.303   .     A
C281   O405    1.294   .     S
C282   H329    1.084   .     S
C283   C311    1.397   .     A
C283   C292    1.443   .     S
C284   C310    1.397   .     A
C284   C352    1.401   .     S
C285   C287    1.416   .     A
C285   N334    1.407   .     A
C285   S349    1.787   .     S
C286   S350    1.787   .     S
C286   C288    1.416   .     A
C286   N333    1.407   .     A
C287   N333    1.345   .     A
C287   H330    1.080   .     S
C288   H331    1.080   .     S
C288   N334    1.345   .     A
C289   C291    1.467   .     S
C289   O346    1.305   .     A
C289   O414    1.303   .     S
C290   O347    1.304   .     A
C290   C293    1.465   .     S
C291   C296    1.400   .     A
C291   C298    1.398   .     A
C292   O343    1.303   .     A
C293   C297    1.399   .     A
C293   C299    1.396   .     A
C294   C302    1.403   .     A
C294   H319    1.083   .     S
C294   C296    1.391   .     A
C295   C304    1.403   .     A
C295   H320    1.083   .     S
C295   C297    1.392   .     A
C296   H388    1.083   .     S
C298   C300    1.404   .     A
C298   H316    1.075   .     S
C299   H332    1.076   .     S
C299   C301    1.404   .     A
C300   C302    1.418   .     A
C300   C305    1.425   .     A
C301   C306    1.424   .     A
C301   C304    1.418   .     A
C302   C938    1.390   .     S
C303   H326    1.077   .     S
C303   C308    1.386   .     A
C303   C306    1.416   .     A
C304   C939    1.390   1_554 S
C305   C307    1.417   .     A
C305   C936    1.423   .     S
C306   C935    1.423   1_554 S
C307   C309    1.387   .     A
C307   H327    1.077   .     S
C308   H315    1.084   .     S
C308   C932    1.390   1_554 S
C309   H325    1.084   .     S
C309   C934    1.390   .     S
C310   H321    1.083   .     S
C311   H322    1.083   .     S
C311   C492    1.385   .     S
C312   H328    1.084   .     S
C312   C353    1.401   .     S
C312   C520    1.385   .     S
Cu313  O335    1.949   .     S
Cu313  O343    1.960   .     S
Cu313  O344    1.956   .     S
Cu313  N333    2.034   .     S
Cu313  O347    1.946   .     S
Cu314  O346    1.946   .     S
Cu314  O345    1.956   .     S
Cu314  N334    2.034   .     S
Cu314  O342    1.960   .     S
Cu314  O341    1.949   .     S
Cu314  Cu383   2.707   .     S
H317   C367    1.083   .     S
H323   O337    0.991   .     S
H324   O340    0.991   .     S
O336   S349    1.496   .     D
O337   S349    1.684   .     S
O338   S350    1.496   .     D
O339   S350    1.501   .     D
O340   S350    1.684   .     S
O341   C362    1.294   .     S
O345   C360    1.303   .     S
O348   S349    1.501   .     D
C351   C354    1.443   .     S
C351   O412    1.303   .     A
C351   O265    1.294   1_655 S
C352   H399    1.084   .     S
C353   C381    1.397   .     A
C353   C362    1.443   .     S
C354   C380    1.397   .     A
C354   C212    1.401   1_655 S
C355   C357    1.416   .     A
C355   N404    1.407   .     A
C355   S419    1.787   .     S
C356   S420    1.787   .     S
C356   C358    1.416   .     A
C356   N403    1.407   .     A
C357   N403    1.345   .     A
C357   H400    1.080   .     S
C358   H401    1.080   .     S
C358   N404    1.345   .     A
C359   C361    1.467   .     S
C359   O416    1.305   .     A
C359   O274    1.303   1_655 S
C360   O417    1.304   .     A
C360   C363    1.465   .     S
C361   C366    1.400   .     A
C361   C368    1.398   .     A
C362   O413    1.303   .     A
C363   C367    1.399   .     A
C363   C369    1.396   .     A
C364   C372    1.403   .     A
C364   H389    1.083   .     S
C364   C366    1.391   .     A
C365   C374    1.403   .     A
C365   H390    1.083   .     S
C365   C367    1.392   .     A
C366   H248    1.083   1_655 S
C368   C370    1.404   .     A
C368   H386    1.075   .     S
C369   H402    1.076   .     S
C369   C371    1.404   .     A
C370   C372    1.418   .     A
C370   C375    1.425   .     A
C371   C376    1.424   .     A
C371   C374    1.418   .     A
C372   C1008   1.390   .     S
C373   H396    1.077   .     S
C373   C378    1.386   .     A
C373   C376    1.416   .     A
C374   C1009   1.390   1_554 S
C375   C377    1.417   .     A
C375   C1006   1.423   .     S
C376   C1005   1.423   1_554 S
C377   C379    1.387   .     A
C377   H397    1.077   .     S
C378   H385    1.084   .     S
C378   C1002   1.390   1_554 S
C379   H395    1.084   .     S
C379   C1004   1.390   .     S
C380   H391    1.083   .     S
C381   H392    1.083   .     S
C381   C562    1.385   .     S
C382   H398    1.084   .     S
C382   C213    1.401   1_655 S
C382   C590    1.385   .     S
Cu383  O405    1.949   .     S
Cu383  O413    1.960   .     S
Cu383  O414    1.956   .     S
Cu383  N403    2.034   .     S
Cu383  O417    1.946   .     S
Cu384  O416    1.946   .     S
Cu384  O415    1.956   .     S
Cu384  N404    2.034   .     S
Cu384  O412    1.960   .     S
Cu384  O411    1.949   .     S
Cu384  Cu243   2.707   1_655 S
H387   C227    1.083   1_655 S
H393   O407    0.991   .     S
H394   O410    0.991   .     S
O406   S419    1.496   .     D
O407   S419    1.684   .     S
O408   S420    1.496   .     D
O409   S420    1.501   .     D
O410   S420    1.684   .     S
O411   C222    1.294   1_655 S
O415   C220    1.303   1_655 S
O418   S419    1.501   .     D
C421   C424    1.443   .     S
C421   O482    1.303   .     A
C421   O545    1.294   .     S
C422   H469    1.084   .     S
C422   C564    1.401   1_455 S
C423   C451    1.397   .     A
C423   C432    1.443   .     S
C423   C592    1.401   1_455 S
C424   C450    1.397   .     A
C424   C492    1.401   .     S
C425   C427    1.416   .     A
C425   N474    1.407   .     A
C425   S489    1.787   .     S
C426   S490    1.787   .     S
C426   C428    1.416   .     A
C426   N473    1.407   .     A
C427   N473    1.345   .     A
C427   H470    1.080   .     S
C428   H471    1.080   .     S
C428   N474    1.345   .     A
C429   C431    1.467   .     S
C429   O486    1.305   .     A
C429   O554    1.303   .     S
C430   O487    1.304   .     A
C430   C433    1.465   .     S
C430   O625    1.303   1_455 S
C431   C436    1.400   .     A
C431   C438    1.398   .     A
C432   O483    1.303   .     A
C432   O621    1.294   1_455 S
C433   C437    1.399   .     A
C433   C439    1.396   .     A
C434   C442    1.403   .     A
C434   H459    1.083   .     S
C434   C436    1.391   .     A
C435   C444    1.403   .     A
C435   H460    1.083   .     S
C435   C437    1.392   .     A
C436   H528    1.083   .     S
C437   H597    1.083   1_455 S
C438   C440    1.404   .     A
C438   H456    1.075   .     S
C439   H472    1.076   .     S
C439   C441    1.404   .     A
C440   C442    1.418   .     A
C440   C445    1.425   .     A
C441   C446    1.424   .     A
C441   C444    1.418   .     A
C442   C1078   1.390   .     S
C443   H466    1.077   .     S
C443   C448    1.386   .     A
C443   C446    1.416   .     A
C444   C1079   1.390   1_554 S
C445   C447    1.417   .     A
C445   C1076   1.423   .     S
C446   C1075   1.423   1_554 S
C447   C449    1.387   .     A
C447   H467    1.077   .     S
C448   H455    1.084   .     S
C448   C1072   1.390   1_554 S
C449   H465    1.084   .     S
C449   C1074   1.390   .     S
C450   H461    1.083   .     S
C451   H462    1.083   .     S
C451   C2      1.385   1_565 S
C452   H468    1.084   .     S
C452   C493    1.401   .     S
C452   C30     1.385   1_565 S
Cu453  O475    1.949   .     S
Cu453  O483    1.960   .     S
Cu453  O484    1.956   .     S
Cu453  N473    2.034   .     S
Cu453  O487    1.946   .     S
Cu453  Cu594   2.707   1_455 S
Cu454  O486    1.946   .     S
Cu454  O485    1.956   .     S
Cu454  N474    2.034   .     S
Cu454  O482    1.960   .     S
Cu454  O481    1.949   .     S
Cu454  Cu523   2.707   .     S
H457   C507    1.083   .     S
H458   C576    1.083   1_455 S
H463   O477    0.991   .     S
H464   O480    0.991   .     S
O475   C561    1.294   1_455 S
O476   S489    1.496   .     D
O477   S489    1.684   .     S
O478   S490    1.496   .     D
O479   S490    1.501   .     D
O480   S490    1.684   .     S
O481   C502    1.294   .     S
O484   C569    1.303   1_455 S
O485   C500    1.303   .     S
O488   S489    1.501   .     D
C491   C494    1.443   .     S
C491   O552    1.303   .     A
C491   O615    1.294   .     S
C492   H539    1.084   .     S
C493   C521    1.397   .     A
C493   C502    1.443   .     S
C494   C520    1.397   .     A
C494   C562    1.401   .     S
C495   C497    1.416   .     A
C495   N544    1.407   .     A
C495   S559    1.787   .     S
C496   S560    1.787   .     S
C496   C498    1.416   .     A
C496   N543    1.407   .     A
C497   N543    1.345   .     A
C497   H540    1.080   .     S
C498   H541    1.080   .     S
C498   N544    1.345   .     A
C499   C501    1.467   .     S
C499   O556    1.305   .     A
C499   O624    1.303   .     S
C500   O557    1.304   .     A
C500   C503    1.465   .     S
C501   C506    1.400   .     A
C501   C508    1.398   .     A
C502   O553    1.303   .     A
C503   C507    1.399   .     A
C503   C509    1.396   .     A
C504   C512    1.403   .     A
C504   H529    1.083   .     S
C504   C506    1.391   .     A
C505   C514    1.403   .     A
C505   H530    1.083   .     S
C505   C507    1.392   .     A
C506   H598    1.083   .     S
C508   C510    1.404   .     A
C508   H526    1.075   .     S
C509   H542    1.076   .     S
C509   C511    1.404   .     A
C510   C512    1.418   .     A
C510   C515    1.425   .     A
C511   C516    1.424   .     A
C511   C514    1.418   .     A
C512   C1148   1.390   .     S
C513   H536    1.077   .     S
C513   C518    1.386   .     A
C513   C516    1.416   .     A
C514   C1149   1.390   1_554 S
C515   C517    1.417   .     A
C515   C1146   1.423   .     S
C516   C1145   1.423   1_554 S
C517   C519    1.387   .     A
C517   H537    1.077   .     S
C518   H525    1.084   .     S
C518   C1142   1.390   1_554 S
C519   H535    1.084   .     S
C519   C1144   1.390   .     S
C520   H531    1.083   .     S
C521   H532    1.083   .     S
C521   C72     1.385   1_565 S
C522   H538    1.084   .     S
C522   C563    1.401   .     S
C522   C100    1.385   1_565 S
Cu523  O545    1.949   .     S
Cu523  O553    1.960   .     S
Cu523  O554    1.956   .     S
Cu523  N543    2.034   .     S
Cu523  O557    1.946   .     S
Cu524  O556    1.946   .     S
Cu524  O555    1.956   .     S
Cu524  N544    2.034   .     S
Cu524  O552    1.960   .     S
Cu524  O551    1.949   .     S
Cu524  Cu593   2.707   .     S
H527   C577    1.083   .     S
H533   O547    0.991   .     S
H534   O550    0.991   .     S
O546   S559    1.496   .     D
O547   S559    1.684   .     S
O548   S560    1.496   .     D
O549   S560    1.501   .     D
O550   S560    1.684   .     S
O551   C572    1.294   .     S
O555   C570    1.303   .     S
O558   S559    1.501   .     D
C561   C564    1.443   .     S
C561   O622    1.303   .     A
C561   O475    1.294   1_655 S
C562   H609    1.084   .     S
C563   C591    1.397   .     A
C563   C572    1.443   .     S
C564   C590    1.397   .     A
C564   C422    1.401   1_655 S
C565   C567    1.416   .     A
C565   N614    1.407   .     A
C565   S629    1.787   .     S
C566   S630    1.787   .     S
C566   C568    1.416   .     A
C566   N613    1.407   .     A
C567   N613    1.345   .     A
C567   H610    1.080   .     S
C568   H611    1.080   .     S
C568   N614    1.345   .     A
C569   C571    1.467   .     S
C569   O626    1.305   .     A
C569   O484    1.303   1_655 S
C570   O627    1.304   .     A
C570   C573    1.465   .     S
C571   C576    1.400   .     A
C571   C578    1.398   .     A
C572   O623    1.303   .     A
C573   C577    1.399   .     A
C573   C579    1.396   .     A
C574   C582    1.403   .     A
C574   H599    1.083   .     S
C574   C576    1.391   .     A
C575   C584    1.403   .     A
C575   H600    1.083   .     S
C575   C577    1.392   .     A
C576   H458    1.083   1_655 S
C578   C580    1.404   .     A
C578   H596    1.075   .     S
C579   H612    1.076   .     S
C579   C581    1.404   .     A
C580   C582    1.418   .     A
C580   C585    1.425   .     A
C581   C586    1.424   .     A
C581   C584    1.418   .     A
C582   C1218   1.390   .     S
C583   H606    1.077   .     S
C583   C588    1.386   .     A
C583   C586    1.416   .     A
C584   C1219   1.390   1_554 S
C585   C587    1.417   .     A
C585   C1216   1.423   .     S
C586   C1215   1.423   1_554 S
C587   C589    1.387   .     A
C587   H607    1.077   .     S
C588   H595    1.084   .     S
C588   C1212   1.390   1_554 S
C589   H605    1.084   .     S
C589   C1214   1.390   .     S
C590   H601    1.083   .     S
C591   H602    1.083   .     S
C591   C142    1.385   1_565 S
C592   H608    1.084   .     S
C592   C423    1.401   1_655 S
C592   C170    1.385   1_565 S
Cu593  O615    1.949   .     S
Cu593  O623    1.960   .     S
Cu593  O624    1.956   .     S
Cu593  N613    2.034   .     S
Cu593  O627    1.946   .     S
Cu594  O626    1.946   .     S
Cu594  O625    1.956   .     S
Cu594  N614    2.034   .     S
Cu594  O622    1.960   .     S
Cu594  O621    1.949   .     S
Cu594  Cu453   2.707   1_655 S
H597   C437    1.083   1_655 S
H603   O617    0.991   .     S
H604   O620    0.991   .     S
O616   S629    1.496   .     D
O617   S629    1.684   .     S
O618   S630    1.496   .     D
O619   S630    1.501   .     D
O620   S630    1.684   .     S
O621   C432    1.294   1_655 S
O625   C430    1.303   1_655 S
O628   S629    1.501   .     D
C631   C634    1.443   .     S
C631   O692    1.303   .     A
C631   O755    1.294   .     S
C632   H679    1.084   .     S
C632   C774    1.401   1_455 S
C632   C1081   1.385   1_545 S
C633   C661    1.397   .     A
C633   C642    1.443   .     S
C633   C802    1.401   1_455 S
C634   C660    1.397   .     A
C634   C702    1.401   .     S
C635   C637    1.416   .     A
C635   N684    1.407   .     A
C635   S699    1.787   .     S
C636   S700    1.787   .     S
C636   C638    1.416   .     A
C636   N683    1.407   .     A
C637   N683    1.345   .     A
C637   H680    1.080   .     S
C638   H681    1.080   .     S
C638   N684    1.345   .     A
C639   C641    1.467   .     S
C639   O696    1.305   .     A
C639   O764    1.303   .     S
C640   O697    1.304   .     A
C640   C643    1.465   .     S
C640   O835    1.303   1_455 S
C641   C646    1.400   .     A
C641   C648    1.398   .     A
C642   O693    1.303   .     A
C642   O831    1.294   1_455 S
C643   C647    1.399   .     A
C643   C649    1.396   .     A
C644   C652    1.403   .     A
C644   H669    1.083   .     S
C644   C646    1.391   .     A
C645   C654    1.403   .     A
C645   H670    1.083   .     S
C645   C647    1.392   .     A
C646   H738    1.083   .     S
C647   H807    1.083   1_455 S
C648   C650    1.404   .     A
C648   H666    1.075   .     S
C649   H682    1.076   .     S
C649   C651    1.404   .     A
C650   C652    1.418   .     A
C650   C655    1.425   .     A
C651   C656    1.424   .     A
C651   C654    1.418   .     A
C652   C28     1.390   1_556 S
C653   H676    1.077   .     S
C653   C658    1.386   .     A
C653   C656    1.416   .     A
C655   C657    1.417   .     A
C655   C26     1.423   1_556 S
C657   C659    1.387   .     A
C657   H677    1.077   .     S
C658   H665    1.084   .     S
C659   H675    1.084   .     S
C659   C24     1.390   1_556 S
C660   H671    1.083   .     S
C660   C1082   1.385   1_545 S
C661   H672    1.083   .     S
C661   C842    1.385   .     S
C662   H678    1.084   .     S
C662   C703    1.401   .     S
C662   C870    1.385   .     S
Cu663  O685    1.949   .     S
Cu663  O693    1.960   .     S
Cu663  O694    1.956   .     S
Cu663  N683    2.034   .     S
Cu663  O697    1.946   .     S
Cu663  Cu804   2.707   1_455 S
Cu664  O696    1.946   .     S
Cu664  O695    1.956   .     S
Cu664  N684    2.034   .     S
Cu664  O692    1.960   .     S
Cu664  O691    1.949   .     S
Cu664  Cu733   2.707   .     S
H667   C717    1.083   .     S
H668   C786    1.083   1_455 S
H673   O687    0.991   .     S
H674   O690    0.991   .     S
O685   C771    1.294   1_455 S
O686   S699    1.496   .     D
O687   S699    1.684   .     S
O688   S700    1.496   .     D
O689   S700    1.501   .     D
O690   S700    1.684   .     S
O691   C712    1.294   .     S
O694   C779    1.303   1_455 S
O695   C710    1.303   .     S
O698   S699    1.501   .     D
C701   C704    1.443   .     S
C701   O762    1.303   .     A
C701   O825    1.294   .     S
C702   H749    1.084   .     S
C702   C1151   1.385   1_545 S
C703   C731    1.397   .     A
C703   C712    1.443   .     S
C704   C730    1.397   .     A
C704   C772    1.401   .     S
C705   C707    1.416   .     A
C705   N754    1.407   .     A
C705   S769    1.787   .     S
C706   S770    1.787   .     S
C706   C708    1.416   .     A
C706   N753    1.407   .     A
C707   N753    1.345   .     A
C707   H750    1.080   .     S
C708   H751    1.080   .     S
C708   N754    1.345   .     A
C709   C711    1.467   .     S
C709   O766    1.305   .     A
C709   O834    1.303   .     S
C710   O767    1.304   .     A
C710   C713    1.465   .     S
C711   C716    1.400   .     A
C711   C718    1.398   .     A
C712   O763    1.303   .     A
C713   C717    1.399   .     A
C713   C719    1.396   .     A
C714   C722    1.403   .     A
C714   H739    1.083   .     S
C714   C716    1.391   .     A
C715   C724    1.403   .     A
C715   H740    1.083   .     S
C715   C717    1.392   .     A
C716   H808    1.083   .     S
C718   C720    1.404   .     A
C718   H736    1.075   .     S
C719   H752    1.076   .     S
C719   C721    1.404   .     A
C720   C722    1.418   .     A
C720   C725    1.425   .     A
C721   C726    1.424   .     A
C721   C724    1.418   .     A
C722   C98     1.390   1_556 S
C723   H746    1.077   .     S
C723   C728    1.386   .     A
C723   C726    1.416   .     A
C725   C727    1.417   .     A
C725   C96     1.423   1_556 S
C727   C729    1.387   .     A
C727   H747    1.077   .     S
C728   H735    1.084   .     S
C729   H745    1.084   .     S
C729   C94     1.390   1_556 S
C730   H741    1.083   .     S
C730   C1152   1.385   1_545 S
C731   H742    1.083   .     S
C731   C912    1.385   .     S
C732   H748    1.084   .     S
C732   C773    1.401   .     S
C732   C940    1.385   .     S
Cu733  O755    1.949   .     S
Cu733  O763    1.960   .     S
Cu733  O764    1.956   .     S
Cu733  N753    2.034   .     S
Cu733  O767    1.946   .     S
Cu734  O766    1.946   .     S
Cu734  O765    1.956   .     S
Cu734  N754    2.034   .     S
Cu734  O762    1.960   .     S
Cu734  O761    1.949   .     S
Cu734  Cu803   2.707   .     S
H737   C787    1.083   .     S
H743   O757    0.991   .     S
H744   O760    0.991   .     S
O756   S769    1.496   .     D
O757   S769    1.684   .     S
O758   S770    1.496   .     D
O759   S770    1.501   .     D
O760   S770    1.684   .     S
O761   C782    1.294   .     S
O765   C780    1.303   .     S
O768   S769    1.501   .     D
C771   C774    1.443   .     S
C771   O832    1.303   .     A
C771   O685    1.294   1_655 S
C772   H819    1.084   .     S
C772   C1221   1.385   1_545 S
C773   C801    1.397   .     A
C773   C782    1.443   .     S
C774   C800    1.397   .     A
C774   C632    1.401   1_655 S
C775   C777    1.416   .     A
C775   N824    1.407   .     A
C775   S839    1.787   .     S
C776   S840    1.787   .     S
C776   C778    1.416   .     A
C776   N823    1.407   .     A
C777   N823    1.345   .     A
C777   H820    1.080   .     S
C778   H821    1.080   .     S
C778   N824    1.345   .     A
C779   C781    1.467   .     S
C779   O836    1.305   .     A
C779   O694    1.303   1_655 S
C780   O837    1.304   .     A
C780   C783    1.465   .     S
C781   C786    1.400   .     A
C781   C788    1.398   .     A
C782   O833    1.303   .     A
C783   C787    1.399   .     A
C783   C789    1.396   .     A
C784   C792    1.403   .     A
C784   H809    1.083   .     S
C784   C786    1.391   .     A
C785   C794    1.403   .     A
C785   H810    1.083   .     S
C785   C787    1.392   .     A
C786   H668    1.083   1_655 S
C788   C790    1.404   .     A
C788   H806    1.075   .     S
C789   H822    1.076   .     S
C789   C791    1.404   .     A
C790   C792    1.418   .     A
C790   C795    1.425   .     A
C791   C796    1.424   .     A
C791   C794    1.418   .     A
C792   C168    1.390   1_556 S
C793   H816    1.077   .     S
C793   C798    1.386   .     A
C793   C796    1.416   .     A
C795   C797    1.417   .     A
C795   C166    1.423   1_556 S
C797   C799    1.387   .     A
C797   H817    1.077   .     S
C798   H805    1.084   .     S
C799   H815    1.084   .     S
C799   C164    1.390   1_556 S
C800   H811    1.083   .     S
C800   C1222   1.385   1_545 S
C801   H812    1.083   .     S
C801   C982    1.385   .     S
C802   H818    1.084   .     S
C802   C633    1.401   1_655 S
C802   C1010   1.385   .     S
Cu803  O825    1.949   .     S
Cu803  O833    1.960   .     S
Cu803  O834    1.956   .     S
Cu803  N823    2.034   .     S
Cu803  O837    1.946   .     S
Cu804  O836    1.946   .     S
Cu804  O835    1.956   .     S
Cu804  N824    2.034   .     S
Cu804  O832    1.960   .     S
Cu804  O831    1.949   .     S
Cu804  Cu663   2.707   1_655 S
H807   C647    1.083   1_655 S
H813   O827    0.991   .     S
H814   O830    0.991   .     S
O826   S839    1.496   .     D
O827   S839    1.684   .     S
O828   S840    1.496   .     D
O829   S840    1.501   .     D
O830   S840    1.684   .     S
O831   C642    1.294   1_655 S
O835   C640    1.303   1_655 S
O838   S839    1.501   .     D
C841   C844    1.443   .     S
C841   O902    1.303   .     A
C841   O965    1.294   .     S
C842   H889    1.084   .     S
C842   C984    1.401   1_455 S
C843   C871    1.397   .     A
C843   C852    1.443   .     S
C843   C1012   1.401   1_455 S
C844   C870    1.397   .     A
C844   C912    1.401   .     S
C845   C847    1.416   .     A
C845   N894    1.407   .     A
C845   S909    1.787   .     S
C846   S910    1.787   .     S
C846   C848    1.416   .     A
C846   N893    1.407   .     A
C847   N893    1.345   .     A
C847   H890    1.080   .     S
C848   H891    1.080   .     S
C848   N894    1.345   .     A
C849   C851    1.467   .     S
C849   O906    1.305   .     A
C849   O974    1.303   .     S
C850   O907    1.304   .     A
C850   C853    1.465   .     S
C850   O1045   1.303   1_455 S
C851   C856    1.400   .     A
C851   C858    1.398   .     A
C852   O903    1.303   .     A
C852   O1041   1.294   1_455 S
C853   C857    1.399   .     A
C853   C859    1.396   .     A
C854   C862    1.403   .     A
C854   H879    1.083   .     S
C854   C856    1.391   .     A
C855   C864    1.403   .     A
C855   H880    1.083   .     S
C855   C857    1.392   .     A
C856   H948    1.083   .     S
C857   H1017   1.083   1_455 S
C858   C860    1.404   .     A
C858   H876    1.075   .     S
C859   H892    1.076   .     S
C859   C861    1.404   .     A
C860   C862    1.418   .     A
C860   C865    1.425   .     A
C861   C866    1.424   .     A
C861   C864    1.418   .     A
C862   C238    1.390   1_556 S
C863   H886    1.077   .     S
C863   C868    1.386   .     A
C863   C866    1.416   .     A
C865   C867    1.417   .     A
C865   C236    1.423   1_556 S
C867   C869    1.387   .     A
C867   H887    1.077   .     S
C868   H875    1.084   .     S
C869   H885    1.084   .     S
C869   C234    1.390   1_556 S
C870   H881    1.083   .     S
C871   H882    1.083   .     S
C871   C1052   1.385   .     S
C872   H888    1.084   .     S
C872   C913    1.401   .     S
C872   C1080   1.385   .     S
Cu873  O895    1.949   .     S
Cu873  O903    1.960   .     S
Cu873  O904    1.956   .     S
Cu873  N893    2.034   .     S
Cu873  O907    1.946   .     S
Cu873  Cu1014  2.707   1_455 S
Cu874  O906    1.946   .     S
Cu874  O905    1.956   .     S
Cu874  N894    2.034   .     S
Cu874  O902    1.960   .     S
Cu874  O901    1.949   .     S
Cu874  Cu943   2.707   .     S
H877   C927    1.083   .     S
H878   C996    1.083   1_455 S
H883   O897    0.991   .     S
H884   O900    0.991   .     S
O895   C981    1.294   1_455 S
O896   S909    1.496   .     D
O897   S909    1.684   .     S
O898   S910    1.496   .     D
O899   S910    1.501   .     D
O900   S910    1.684   .     S
O901   C922    1.294   .     S
O904   C989    1.303   1_455 S
O905   C920    1.303   .     S
O908   S909    1.501   .     D
C911   C914    1.443   .     S
C911   O972    1.303   .     A
C911   O1035   1.294   .     S
C912   H959    1.084   .     S
C913   C941    1.397   .     A
C913   C922    1.443   .     S
C914   C940    1.397   .     A
C914   C982    1.401   .     S
C915   C917    1.416   .     A
C915   N964    1.407   .     A
C915   S979    1.787   .     S
C916   S980    1.787   .     S
C916   C918    1.416   .     A
C916   N963    1.407   .     A
C917   N963    1.345   .     A
C917   H960    1.080   .     S
C918   H961    1.080   .     S
C918   N964    1.345   .     A
C919   C921    1.467   .     S
C919   O976    1.305   .     A
C919   O1044   1.303   .     S
C920   O977    1.304   .     A
C920   C923    1.465   .     S
C921   C926    1.400   .     A
C921   C928    1.398   .     A
C922   O973    1.303   .     A
C923   C927    1.399   .     A
C923   C929    1.396   .     A
C924   C932    1.403   .     A
C924   H949    1.083   .     S
C924   C926    1.391   .     A
C925   C934    1.403   .     A
C925   H950    1.083   .     S
C925   C927    1.392   .     A
C926   H1018   1.083   .     S
C928   C930    1.404   .     A
C928   H946    1.075   .     S
C929   H962    1.076   .     S
C929   C931    1.404   .     A
C930   C932    1.418   .     A
C930   C935    1.425   .     A
C931   C936    1.424   .     A
C931   C934    1.418   .     A
C932   C308    1.390   1_556 S
C933   H956    1.077   .     S
C933   C938    1.386   .     A
C933   C936    1.416   .     A
C935   C937    1.417   .     A
C935   C306    1.423   1_556 S
C937   C939    1.387   .     A
C937   H957    1.077   .     S
C938   H945    1.084   .     S
C939   H955    1.084   .     S
C939   C304    1.390   1_556 S
C940   H951    1.083   .     S
C941   H952    1.083   .     S
C941   C1122   1.385   .     S
C942   H958    1.084   .     S
C942   C983    1.401   .     S
C942   C1150   1.385   .     S
Cu943  O965    1.949   .     S
Cu943  O973    1.960   .     S
Cu943  O974    1.956   .     S
Cu943  N963    2.034   .     S
Cu943  O977    1.946   .     S
Cu944  O976    1.946   .     S
Cu944  O975    1.956   .     S
Cu944  N964    2.034   .     S
Cu944  O972    1.960   .     S
Cu944  O971    1.949   .     S
Cu944  Cu1013  2.707   .     S
H947   C997    1.083   .     S
H953   O967    0.991   .     S
H954   O970    0.991   .     S
O966   S979    1.496   .     D
O967   S979    1.684   .     S
O968   S980    1.496   .     D
O969   S980    1.501   .     D
O970   S980    1.684   .     S
O971   C992    1.294   .     S
O975   C990    1.303   .     S
O978   S979    1.501   .     D
C981   C984    1.443   .     S
C981   O1042   1.303   .     A
C981   O895    1.294   1_655 S
C982   H1029   1.084   .     S
C983   C1011   1.397   .     A
C983   C992    1.443   .     S
C984   C1010   1.397   .     A
C984   C842    1.401   1_655 S
C985   C987    1.416   .     A
C985   N1034   1.407   .     A
C985   S1049   1.787   .     S
C986   S1050   1.787   .     S
C986   C988    1.416   .     A
C986   N1033   1.407   .     A
C987   N1033   1.345   .     A
C987   H1030   1.080   .     S
C988   H1031   1.080   .     S
C988   N1034   1.345   .     A
C989   C991    1.467   .     S
C989   O1046   1.305   .     A
C989   O904    1.303   1_655 S
C990   O1047   1.304   .     A
C990   C993    1.465   .     S
C991   C996    1.400   .     A
C991   C998    1.398   .     A
C992   O1043   1.303   .     A
C993   C997    1.399   .     A
C993   C999    1.396   .     A
C994   C1002   1.403   .     A
C994   H1019   1.083   .     S
C994   C996    1.391   .     A
C995   C1004   1.403   .     A
C995   H1020   1.083   .     S
C995   C997    1.392   .     A
C996   H878    1.083   1_655 S
C998   C1000   1.404   .     A
C998   H1016   1.075   .     S
C999   H1032   1.076   .     S
C999   C1001   1.404   .     A
C1000  C1002   1.418   .     A
C1000  C1005   1.425   .     A
C1001  C1006   1.424   .     A
C1001  C1004   1.418   .     A
C1002  C378    1.390   1_556 S
C1003  H1026   1.077   .     S
C1003  C1008   1.386   .     A
C1003  C1006   1.416   .     A
C1005  C1007   1.417   .     A
C1005  C376    1.423   1_556 S
C1007  C1009   1.387   .     A
C1007  H1027   1.077   .     S
C1008  H1015   1.084   .     S
C1009  H1025   1.084   .     S
C1009  C374    1.390   1_556 S
C1010  H1021   1.083   .     S
C1011  H1022   1.083   .     S
C1011  C1192   1.385   .     S
C1012  H1028   1.084   .     S
C1012  C843    1.401   1_655 S
C1012  C1220   1.385   .     S
Cu1013 O1035   1.949   .     S
Cu1013 O1043   1.960   .     S
Cu1013 O1044   1.956   .     S
Cu1013 N1033   2.034   .     S
Cu1013 O1047   1.946   .     S
Cu1014 O1046   1.946   .     S
Cu1014 O1045   1.956   .     S
Cu1014 N1034   2.034   .     S
Cu1014 O1042   1.960   .     S
Cu1014 O1041   1.949   .     S
Cu1014 Cu873   2.707   1_655 S
H1017  C857    1.083   1_655 S
H1023  O1037   0.991   .     S
H1024  O1040   0.991   .     S
O1036  S1049   1.496   .     D
O1037  S1049   1.684   .     S
O1038  S1050   1.496   .     D
O1039  S1050   1.501   .     D
O1040  S1050   1.684   .     S
O1041  C852    1.294   1_655 S
O1045  C850    1.303   1_655 S
O1048  S1049   1.501   .     D
C1051  C1054   1.443   .     S
C1051  O1112   1.303   .     A
C1051  O1175   1.294   .     S
C1052  H1099   1.084   .     S
C1052  C1194   1.401   1_455 S
C1053  C1081   1.397   .     A
C1053  C1062   1.443   .     S
C1053  C1222   1.401   1_455 S
C1054  C1080   1.397   .     A
C1054  C1122   1.401   .     S
C1055  C1057   1.416   .     A
C1055  N1104   1.407   .     A
C1055  S1119   1.787   .     S
C1056  S1120   1.787   .     S
C1056  C1058   1.416   .     A
C1056  N1103   1.407   .     A
C1057  N1103   1.345   .     A
C1057  H1100   1.080   .     S
C1058  H1101   1.080   .     S
C1058  N1104   1.345   .     A
C1059  C1061   1.467   .     S
C1059  O1116   1.305   .     A
C1059  O1184   1.303   .     S
C1060  O1117   1.304   .     A
C1060  C1063   1.465   .     S
C1060  O1255   1.303   1_455 S
C1061  C1066   1.400   .     A
C1061  C1068   1.398   .     A
C1062  O1113   1.303   .     A
C1062  O1251   1.294   1_455 S
C1063  C1067   1.399   .     A
C1063  C1069   1.396   .     A
C1064  C1072   1.403   .     A
C1064  H1089   1.083   .     S
C1064  C1066   1.391   .     A
C1065  C1074   1.403   .     A
C1065  H1090   1.083   .     S
C1065  C1067   1.392   .     A
C1066  H1158   1.083   .     S
C1067  H1227   1.083   1_455 S
C1068  C1070   1.404   .     A
C1068  H1086   1.075   .     S
C1069  H1102   1.076   .     S
C1069  C1071   1.404   .     A
C1070  C1072   1.418   .     A
C1070  C1075   1.425   .     A
C1071  C1076   1.424   .     A
C1071  C1074   1.418   .     A
C1072  C448    1.390   1_556 S
C1073  H1096   1.077   .     S
C1073  C1078   1.386   .     A
C1073  C1076   1.416   .     A
C1075  C1077   1.417   .     A
C1075  C446    1.423   1_556 S
C1077  C1079   1.387   .     A
C1077  H1097   1.077   .     S
C1078  H1085   1.084   .     S
C1079  H1095   1.084   .     S
C1079  C444    1.390   1_556 S
C1080  H1091   1.083   .     S
C1081  H1092   1.083   .     S
C1081  C632    1.385   1_565 S
C1082  H1098   1.084   .     S
C1082  C1123   1.401   .     S
C1082  C660    1.385   1_565 S
Cu1083 O1105   1.949   .     S
Cu1083 O1113   1.960   .     S
Cu1083 O1114   1.956   .     S
Cu1083 N1103   2.034   .     S
Cu1083 O1117   1.946   .     S
Cu1083 Cu1224  2.707   1_455 S
Cu1084 O1116   1.946   .     S
Cu1084 O1115   1.956   .     S
Cu1084 N1104   2.034   .     S
Cu1084 O1112   1.960   .     S
Cu1084 O1111   1.949   .     S
Cu1084 Cu1153  2.707   .     S
H1087  C1137   1.083   .     S
H1088  C1206   1.083   1_455 S
H1093  O1107   0.991   .     S
H1094  O1110   0.991   .     S
O1105  C1191   1.294   1_455 S
O1106  S1119   1.496   .     D
O1107  S1119   1.684   .     S
O1108  S1120   1.496   .     D
O1109  S1120   1.501   .     D
O1110  S1120   1.684   .     S
O1111  C1132   1.294   .     S
O1114  C1199   1.303   1_455 S
O1115  C1130   1.303   .     S
O1118  S1119   1.501   .     D
C1121  C1124   1.443   .     S
C1121  O1182   1.303   .     A
C1121  O1245   1.294   .     S
C1122  H1169   1.084   .     S
C1123  C1151   1.397   .     A
C1123  C1132   1.443   .     S
C1124  C1150   1.397   .     A
C1124  C1192   1.401   .     S
C1125  C1127   1.416   .     A
C1125  N1174   1.407   .     A
C1125  S1189   1.787   .     S
C1126  S1190   1.787   .     S
C1126  C1128   1.416   .     A
C1126  N1173   1.407   .     A
C1127  N1173   1.345   .     A
C1127  H1170   1.080   .     S
C1128  H1171   1.080   .     S
C1128  N1174   1.345   .     A
C1129  C1131   1.467   .     S
C1129  O1186   1.305   .     A
C1129  O1254   1.303   .     S
C1130  O1187   1.304   .     A
C1130  C1133   1.465   .     S
C1131  C1136   1.400   .     A
C1131  C1138   1.398   .     A
C1132  O1183   1.303   .     A
C1133  C1137   1.399   .     A
C1133  C1139   1.396   .     A
C1134  C1142   1.403   .     A
C1134  H1159   1.083   .     S
C1134  C1136   1.391   .     A
C1135  C1144   1.403   .     A
C1135  H1160   1.083   .     S
C1135  C1137   1.392   .     A
C1136  H1228   1.083   .     S
C1138  C1140   1.404   .     A
C1138  H1156   1.075   .     S
C1139  H1172   1.076   .     S
C1139  C1141   1.404   .     A
C1140  C1142   1.418   .     A
C1140  C1145   1.425   .     A
C1141  C1146   1.424   .     A
C1141  C1144   1.418   .     A
C1142  C518    1.390   1_556 S
C1143  H1166   1.077   .     S
C1143  C1148   1.386   .     A
C1143  C1146   1.416   .     A
C1145  C1147   1.417   .     A
C1145  C516    1.423   1_556 S
C1147  C1149   1.387   .     A
C1147  H1167   1.077   .     S
C1148  H1155   1.084   .     S
C1149  H1165   1.084   .     S
C1149  C514    1.390   1_556 S
C1150  H1161   1.083   .     S
C1151  H1162   1.083   .     S
C1151  C702    1.385   1_565 S
C1152  H1168   1.084   .     S
C1152  C1193   1.401   .     S
C1152  C730    1.385   1_565 S
Cu1153 O1175   1.949   .     S
Cu1153 O1183   1.960   .     S
Cu1153 O1184   1.956   .     S
Cu1153 N1173   2.034   .     S
Cu1153 O1187   1.946   .     S
Cu1154 O1186   1.946   .     S
Cu1154 O1185   1.956   .     S
Cu1154 N1174   2.034   .     S
Cu1154 O1182   1.960   .     S
Cu1154 O1181   1.949   .     S
Cu1154 Cu1223  2.707   .     S
H1157  C1207   1.083   .     S
H1163  O1177   0.991   .     S
H1164  O1180   0.991   .     S
O1176  S1189   1.496   .     D
O1177  S1189   1.684   .     S
O1178  S1190   1.496   .     D
O1179  S1190   1.501   .     D
O1180  S1190   1.684   .     S
O1181  C1202   1.294   .     S
O1185  C1200   1.303   .     S
O1188  S1189   1.501   .     D
C1191  C1194   1.443   .     S
C1191  O1252   1.303   .     A
C1191  O1105   1.294   1_655 S
C1192  H1239   1.084   .     S
C1193  C1221   1.397   .     A
C1193  C1202   1.443   .     S
C1194  C1220   1.397   .     A
C1194  C1052   1.401   1_655 S
C1195  C1197   1.416   .     A
C1195  N1244   1.407   .     A
C1195  S1259   1.787   .     S
C1196  S1260   1.787   .     S
C1196  C1198   1.416   .     A
C1196  N1243   1.407   .     A
C1197  N1243   1.345   .     A
C1197  H1240   1.080   .     S
C1198  H1241   1.080   .     S
C1198  N1244   1.345   .     A
C1199  C1201   1.467   .     S
C1199  O1256   1.305   .     A
C1199  O1114   1.303   1_655 S
C1200  O1257   1.304   .     A
C1200  C1203   1.465   .     S
C1201  C1206   1.400   .     A
C1201  C1208   1.398   .     A
C1202  O1253   1.303   .     A
C1203  C1207   1.399   .     A
C1203  C1209   1.396   .     A
C1204  C1212   1.403   .     A
C1204  H1229   1.083   .     S
C1204  C1206   1.391   .     A
C1205  C1214   1.403   .     A
C1205  H1230   1.083   .     S
C1205  C1207   1.392   .     A
C1206  H1088   1.083   1_655 S
C1208  C1210   1.404   .     A
C1208  H1226   1.075   .     S
C1209  H1242   1.076   .     S
C1209  C1211   1.404   .     A
C1210  C1212   1.418   .     A
C1210  C1215   1.425   .     A
C1211  C1216   1.424   .     A
C1211  C1214   1.418   .     A
C1212  C588    1.390   1_556 S
C1213  H1236   1.077   .     S
C1213  C1218   1.386   .     A
C1213  C1216   1.416   .     A
C1215  C1217   1.417   .     A
C1215  C586    1.423   1_556 S
C1217  C1219   1.387   .     A
C1217  H1237   1.077   .     S
C1218  H1225   1.084   .     S
C1219  H1235   1.084   .     S
C1219  C584    1.390   1_556 S
C1220  H1231   1.083   .     S
C1221  H1232   1.083   .     S
C1221  C772    1.385   1_565 S
C1222  H1238   1.084   .     S
C1222  C1053   1.401   1_655 S
C1222  C800    1.385   1_565 S
Cu1223 O1245   1.949   .     S
Cu1223 O1253   1.960   .     S
Cu1223 O1254   1.956   .     S
Cu1223 N1243   2.034   .     S
Cu1223 O1257   1.946   .     S
Cu1224 O1256   1.946   .     S
Cu1224 O1255   1.956   .     S
Cu1224 N1244   2.034   .     S
Cu1224 O1252   1.960   .     S
Cu1224 O1251   1.949   .     S
Cu1224 Cu1083  2.707   1_655 S
H1227  C1067   1.083   1_655 S
H1233  O1247   0.991   .     S
H1234  O1250   0.991   .     S
O1246  S1259   1.496   .     D
O1247  S1259   1.684   .     S
O1248  S1260   1.496   .     D
O1249  S1260   1.501   .     D
O1250  S1260   1.684   .     S
O1251  C1062   1.294   1_655 S
O1255  C1060   1.303   1_655 S
O1258  S1259   1.501   .     D
