data_str_m2_o2_o10_pcu_sym.172
_audit_creation_date              2020-01-03
_audit_creation_method            'Materials Studio'
_symmetry_space_group_name_H-M    'P1'
_symmetry_Int_Tables_number       1
_symmetry_cell_setting            triclinic
loop_
_symmetry_equiv_pos_as_xyz
  x,y,z
_cell_length_a                    26.6517
_cell_length_b                    30.4666
_cell_length_c                    28.3023
_cell_angle_alpha                 89.0884
_cell_angle_beta                  96.7852
_cell_angle_gamma                 91.8827
loop_
_atom_site_label
_atom_site_type_symbol
_atom_site_fract_x
_atom_site_fract_y
_atom_site_fract_z
_atom_site_U_iso_or_equiv
_atom_site_adp_type
_atom_site_occupancy
C1     C     0.17142   0.16538   0.25102   0.00000  Uiso   1.00
C2     C     0.16251   0.33471   0.24889   0.00000  Uiso   1.00
C3     C     0.19899   0.27866   0.05946   0.00000  Uiso   1.00
C4     C     0.15069   0.21470   0.44380   0.00000  Uiso   1.00
C5     C     0.19542   0.27982   0.10833   0.00000  Uiso   1.00
C6     C     0.14809   0.21539   0.39404   0.00000  Uiso   1.00
C7     C     0.13925   0.21833   0.10248   0.00000  Uiso   1.00
C8     C     0.19114   0.28419   0.39641   0.00000  Uiso   1.00
C9     C     0.13708   0.21929   0.05176   0.00000  Uiso   1.00
C10    C     0.19687   0.28344   0.44718   0.00000  Uiso   1.00
C11    C     0.16963   0.24895   0.02811   0.00000  Uiso   1.00
C12    C     0.17266   0.24941   0.47301   0.00000  Uiso   1.00
C13    C     0.06840   0.25171   0.23821   0.00000  Uiso   1.00
C14    C     0.26477   0.24819   0.26184   0.00000  Uiso   1.00
C15    C     0.01420   0.25979   0.23422   0.00000  Uiso   1.00
C16    C     0.31885   0.24079   0.26620   0.00000  Uiso   1.00
C17    C     0.17327   0.04643   0.29311   0.00000  Uiso   1.00
C18    C     0.16076   0.45329   0.20512   0.00000  Uiso   1.00
C19    C     0.17802   0.09213   0.29565   0.00000  Uiso   1.00
C20    C     0.15620   0.40750   0.20297   0.00000  Uiso   1.00
C21    C     0.18055   0.11721   0.25304   0.00000  Uiso   1.00
C22    C     0.15349   0.38288   0.24596   0.00000  Uiso   1.00
C23    C     0.19160   0.09470   0.21192   0.00000  Uiso   1.00
C24    C     0.14141   0.40572   0.28631   0.00000  Uiso   1.00
C25    C     0.18622   0.04877   0.21097   0.00000  Uiso   1.00
C26    C     0.14679   0.45155   0.28707   0.00000  Uiso   1.00
C27    C     0.17201   0.02437   0.25012   0.00000  Uiso   1.00
C28    C     0.16154   0.47568   0.24794   0.00000  Uiso   1.00
Cu29   Cu    0.16667   0.24999   0.29822   0.00000  Uiso   1.00
Cu30   Cu    0.16667   0.25000   0.20179   0.00000  Uiso   1.00
H31    H     0.17392   0.02815   0.32604   0.00000  Uiso   1.00
H32    H     0.16060   0.47132   0.17210   0.00000  Uiso   1.00
H33    H     0.19644   0.03238   0.18025   0.00000  Uiso   1.00
H34    H     0.13583   0.46804   0.31746   0.00000  Uiso   1.00
H35    H     0.22521   0.30262   0.04892   0.00000  Uiso   1.00
H36    H     0.13836   0.18438   0.45791   0.00000  Uiso   1.00
H37    H     0.21680   0.30426   0.13011   0.00000  Uiso   1.00
H38    H     0.13209   0.18744   0.37402   0.00000  Uiso   1.00
N39    N     0.16667   0.25001   0.12935   0.00000  Uiso   1.00
N40    N     0.16667   0.24999   0.37066   0.00000  Uiso   1.00
O41    O     0.16667   0.18572   0.29072   0.00000  Uiso   1.00
O42    O     0.16666   0.31427   0.20929   0.00000  Uiso   1.00
O43    O     0.16667   0.18573   0.20928   0.00000  Uiso   1.00
O44    O     0.16666   0.31427   0.29072   0.00000  Uiso   1.00
O45    O     0.09161   0.24999   0.28132   0.00000  Uiso   1.00
O46    O     0.24172   0.25000   0.21868   0.00000  Uiso   1.00
O47    O     0.09161   0.25000   0.19989   0.00000  Uiso   1.00
O48    O     0.24172   0.25000   0.30012   0.00000  Uiso   1.00
C49    C     0.32875   0.29694   0.20265   0.00000  Uiso   1.00
C50    C     0.30993   0.33453   0.22207   0.00000  Uiso   1.00
C51    C     0.29452   0.37018   0.19289   0.00000  Uiso   1.00
C52    C     0.29685   0.36835   0.14399   0.00000  Uiso   1.00
C53    C     0.31315   0.33047   0.12429   0.00000  Uiso   1.00
C54    C     0.32951   0.29506   0.15331   0.00000  Uiso   1.00
H55    H     0.30773   0.33650   0.25989   0.00000  Uiso   1.00
H56    H     0.28082   0.39918   0.20818   0.00000  Uiso   1.00
H57    H     0.28561   0.39596   0.12116   0.00000  Uiso   1.00
H58    H     0.31308   0.32841   0.08647   0.00000  Uiso   1.00
H59    H     0.00938   0.26649   0.13709   0.00000  Uiso   1.00
C60    C     0.00443   0.20511   0.29941   0.00000  Uiso   1.00
C61    C     0.01018   0.21140   0.34871   0.00000  Uiso   1.00
C62    C     0.02990   0.17829   0.37930   0.00000  Uiso   1.00
C63    C     0.04122   0.13783   0.36152   0.00000  Uiso   1.00
C64    C     0.03539   0.13114   0.31251   0.00000  Uiso   1.00
C65    C     0.01753   0.16482   0.28157   0.00000  Uiso   1.00
H66    H     0.33313   0.24172   0.36366   0.00000  Uiso   1.00
H67    H     0.03659   0.18415   0.41684   0.00000  Uiso   1.00
H68    H     0.05489   0.11198   0.38582   0.00000  Uiso   1.00
H69    H     0.04495   0.10004   0.29849   0.00000  Uiso   1.00
H70    H     0.01347   0.15947   0.24378   0.00000  Uiso   1.00
C71    C     0.18766   0.11034   0.34444   0.00000  Uiso   1.00
C72    C     0.23027   0.13791   0.35705   0.00000  Uiso   1.00
C73    C     0.24345   0.14995   0.40437   0.00000  Uiso   1.00
C74    C     0.21622   0.13272   0.43992   0.00000  Uiso   1.00
C75    C     0.17419   0.10490   0.42802   0.00000  Uiso   1.00
C76    C     0.15957   0.09418   0.38054   0.00000  Uiso   1.00
H77    H     0.25344   0.14973   0.33032   0.00000  Uiso   1.00
H78    H     0.27468   0.17272   0.41352   0.00000  Uiso   1.00
H79    H     0.22668   0.14213   0.47648   0.00000  Uiso   1.00
H80    H     0.15279   0.09181   0.45551   0.00000  Uiso   1.00
H81    H     0.12728   0.07204   0.37207   0.00000  Uiso   1.00
C82    C     0.14818   0.38851   0.15429   0.00000  Uiso   1.00
C83    C     0.17671   0.40479   0.11867   0.00000  Uiso   1.00
C84    C     0.16467   0.39197   0.07154   0.00000  Uiso   1.00
C85    C     0.12553   0.36126   0.05943   0.00000  Uiso   1.00
C86    C     0.09751   0.34420   0.09444   0.00000  Uiso   1.00
C87    C     0.10736   0.35904   0.14123   0.00000  Uiso   1.00
H88    H     0.20729   0.42868   0.12706   0.00000  Uiso   1.00
H89    H     0.18546   0.40636   0.04449   0.00000  Uiso   1.00
H90    H     0.11725   0.35039   0.02308   0.00000  Uiso   1.00
H91    H     0.06819   0.31951   0.08520   0.00000  Uiso   1.00
H92    H     0.08362   0.34733   0.16751   0.00000  Uiso   1.00
C93    C     0.21484   0.11716   0.17204   0.00000  Uiso   1.00
C94    C     0.20309   0.10342   0.12460   0.00000  Uiso   1.00
C95    C     0.22729   0.12348   0.08830   0.00000  Uiso   1.00
C96    C     0.26099   0.15901   0.09830   0.00000  Uiso   1.00
C97    C     0.27297   0.17284   0.14502   0.00000  Uiso   1.00
C98    C     0.25172   0.15089   0.18177   0.00000  Uiso   1.00
H99    H     0.17527   0.07731   0.11548   0.00000  Uiso   1.00
H100   H     0.21958   0.11163   0.05233   0.00000  Uiso   1.00
H101   H     0.27813   0.17561   0.07005   0.00000  Uiso   1.00
H102   H     0.29967   0.19984   0.15307   0.00000  Uiso   1.00
H103   H     0.26271   0.16115   0.21790   0.00000  Uiso   1.00
C104   C     0.11528   0.38365   0.32435   0.00000  Uiso   1.00
C105   C     0.07661   0.35218   0.31170   0.00000  Uiso   1.00
C106   C     0.05085   0.33146   0.34621   0.00000  Uiso   1.00
C107   C     0.06191   0.34300   0.39378   0.00000  Uiso   1.00
C108   C     0.09812   0.37608   0.40674   0.00000  Uiso   1.00
C109   C     0.12536   0.39600   0.37239   0.00000  Uiso   1.00
H110   H     0.06683   0.34341   0.27491   0.00000  Uiso   1.00
H111   H     0.02135   0.30740   0.33567   0.00000  Uiso   1.00
H112   H     0.04166   0.32685   0.42025   0.00000  Uiso   1.00
H113   H     0.10484   0.38634   0.44337   0.00000  Uiso   1.00
H114   H     0.15430   0.42074   0.38336   0.00000  Uiso   1.00
O115   O     0.12593   0.17945   0.12485   0.00000  Uiso   1.00
C116   C     0.07355   0.17436   0.12832   0.00000  Uiso   1.00
H117   H     0.05250   0.16233   0.09507   0.00000  Uiso   1.00
H118   H     0.05629   0.20506   0.13738   0.00000  Uiso   1.00
C119   C     0.06568   0.13861   0.16512   0.00000  Uiso   1.00
H120   H     0.07908   0.15043   0.20123   0.00000  Uiso   1.00
H121   H     0.02517   0.12878   0.16362   0.00000  Uiso   1.00
H122   H     0.08687   0.10909   0.15799   0.00000  Uiso   1.00
O123   O     0.20055   0.32395   0.37388   0.00000  Uiso   1.00
C124   C     0.25146   0.33029   0.36476   0.00000  Uiso   1.00
H125   H     0.25594   0.31920   0.32883   0.00000  Uiso   1.00
H126   H     0.27926   0.31301   0.39001   0.00000  Uiso   1.00
C127   C     0.26454   0.37936   0.36377   0.00000  Uiso   1.00
H128   H     0.25957   0.39472   0.39790   0.00000  Uiso   1.00
H129   H     0.30423   0.38510   0.35664   0.00000  Uiso   1.00
H130   H     0.23966   0.39574   0.33506   0.00000  Uiso   1.00
C131   C     0.09634   0.19143   0.02663   0.00000  Uiso   1.00
C132   C     0.04845   0.20894   0.01442   0.00000  Uiso   1.00
C133   C     0.00680   0.18107   0.00036   0.00000  Uiso   1.00
C134   C     0.01297   0.13588   0.49667   0.00000  Uiso   1.00
C135   C     0.06068   0.11835   0.00757   0.00000  Uiso   1.00
C136   C     0.10198   0.14579   0.02347   0.00000  Uiso   1.00
H137   H     0.04301   0.24360   0.01864   0.00000  Uiso   1.00
H138   H     0.30296   0.19439   0.49271   0.00000  Uiso   1.00
H139   H     0.31419   0.11431   0.48572   0.00000  Uiso   1.00
H140   H     0.06541   0.08336   0.00502   0.00000  Uiso   1.00
H141   H     0.13807   0.13156   0.03385   0.00000  Uiso   1.00
C142   C     0.23550   0.31489   0.46960   0.00000  Uiso   1.00
C143   C     0.22456   0.35896   0.47599   0.00000  Uiso   1.00
C144   C     0.26308   0.38907   0.49291   0.00000  Uiso   1.00
C145   C     0.31281   0.37555   0.00264   0.00000  Uiso   1.00
C146   C     0.32394   0.33173   0.49633   0.00000  Uiso   1.00
C147   C     0.28548   0.30141   0.48044   0.00000  Uiso   1.00
H148   H     0.18665   0.37006   0.46723   0.00000  Uiso   1.00
H149   H     0.25459   0.42315   0.49735   0.00000  Uiso   1.00
H150   H     0.00938   0.39895   0.01507   0.00000  Uiso   1.00
H151   H     0.02912   0.32128   0.00350   0.00000  Uiso   1.00
H152   H     0.29481   0.26793   0.47431   0.00000  Uiso   1.00
C153   C     0.50475   0.16538   0.25102   0.00000  Uiso   1.00
C154   C     0.49584   0.33471   0.24889   0.00000  Uiso   1.00
C155   C     0.53233   0.27866   0.05946   0.00000  Uiso   1.00
C156   C     0.48402   0.21470   0.44380   0.00000  Uiso   1.00
C157   C     0.52876   0.27982   0.10833   0.00000  Uiso   1.00
C158   C     0.48142   0.21539   0.39404   0.00000  Uiso   1.00
C159   C     0.47259   0.21833   0.10248   0.00000  Uiso   1.00
C160   C     0.52448   0.28419   0.39641   0.00000  Uiso   1.00
C161   C     0.47041   0.21929   0.05176   0.00000  Uiso   1.00
C162   C     0.53020   0.28344   0.44718   0.00000  Uiso   1.00
C163   C     0.50296   0.24895   0.02811   0.00000  Uiso   1.00
C164   C     0.50599   0.24941   0.47301   0.00000  Uiso   1.00
C165   C     0.40173   0.25171   0.23821   0.00000  Uiso   1.00
C166   C     0.59810   0.24819   0.26184   0.00000  Uiso   1.00
C167   C     0.34753   0.25979   0.23422   0.00000  Uiso   1.00
C168   C     0.65218   0.24079   0.26620   0.00000  Uiso   1.00
C169   C     0.50661   0.04643   0.29311   0.00000  Uiso   1.00
C170   C     0.49409   0.45329   0.20512   0.00000  Uiso   1.00
C171   C     0.51135   0.09213   0.29565   0.00000  Uiso   1.00
C172   C     0.48954   0.40750   0.20297   0.00000  Uiso   1.00
C173   C     0.51388   0.11721   0.25304   0.00000  Uiso   1.00
C174   C     0.48683   0.38288   0.24596   0.00000  Uiso   1.00
C175   C     0.52493   0.09470   0.21192   0.00000  Uiso   1.00
C176   C     0.47475   0.40572   0.28631   0.00000  Uiso   1.00
C177   C     0.51955   0.04877   0.21097   0.00000  Uiso   1.00
C178   C     0.48012   0.45155   0.28707   0.00000  Uiso   1.00
C179   C     0.50534   0.02437   0.25012   0.00000  Uiso   1.00
C180   C     0.49487   0.47568   0.24794   0.00000  Uiso   1.00
Cu181  Cu    0.50000   0.24999   0.29822   0.00000  Uiso   1.00
Cu182  Cu    0.50000   0.25000   0.20179   0.00000  Uiso   1.00
H183   H     0.50725   0.02815   0.32604   0.00000  Uiso   1.00
H184   H     0.49394   0.47132   0.17210   0.00000  Uiso   1.00
H185   H     0.52977   0.03238   0.18025   0.00000  Uiso   1.00
H186   H     0.46916   0.46804   0.31746   0.00000  Uiso   1.00
H187   H     0.55854   0.30262   0.04892   0.00000  Uiso   1.00
H188   H     0.47169   0.18438   0.45791   0.00000  Uiso   1.00
H189   H     0.55013   0.30426   0.13011   0.00000  Uiso   1.00
H190   H     0.46542   0.18744   0.37402   0.00000  Uiso   1.00
N191   N     0.50000   0.25001   0.12935   0.00000  Uiso   1.00
N192   N     0.50000   0.24999   0.37066   0.00000  Uiso   1.00
O193   O     0.50000   0.18572   0.29072   0.00000  Uiso   1.00
O194   O     0.50000   0.31427   0.20929   0.00000  Uiso   1.00
O195   O     0.50000   0.18573   0.20928   0.00000  Uiso   1.00
O196   O     0.50000   0.31427   0.29072   0.00000  Uiso   1.00
O197   O     0.42495   0.24999   0.28132   0.00000  Uiso   1.00
O198   O     0.57505   0.25000   0.21868   0.00000  Uiso   1.00
O199   O     0.42495   0.25000   0.19989   0.00000  Uiso   1.00
O200   O     0.57505   0.25000   0.30012   0.00000  Uiso   1.00
C201   C     0.66209   0.29694   0.20265   0.00000  Uiso   1.00
C202   C     0.64327   0.33453   0.22207   0.00000  Uiso   1.00
C203   C     0.62785   0.37018   0.19289   0.00000  Uiso   1.00
C204   C     0.63018   0.36835   0.14399   0.00000  Uiso   1.00
C205   C     0.64648   0.33047   0.12429   0.00000  Uiso   1.00
C206   C     0.66284   0.29506   0.15331   0.00000  Uiso   1.00
H207   H     0.64106   0.33650   0.25989   0.00000  Uiso   1.00
H208   H     0.61415   0.39918   0.20818   0.00000  Uiso   1.00
H209   H     0.61894   0.39596   0.12116   0.00000  Uiso   1.00
H210   H     0.64642   0.32841   0.08647   0.00000  Uiso   1.00
H211   H     0.34271   0.26649   0.13709   0.00000  Uiso   1.00
C212   C     0.33776   0.20511   0.29941   0.00000  Uiso   1.00
C213   C     0.34352   0.21140   0.34871   0.00000  Uiso   1.00
C214   C     0.36323   0.17829   0.37930   0.00000  Uiso   1.00
C215   C     0.37456   0.13783   0.36152   0.00000  Uiso   1.00
C216   C     0.36873   0.13114   0.31251   0.00000  Uiso   1.00
C217   C     0.35086   0.16482   0.28157   0.00000  Uiso   1.00
H218   H     0.66647   0.24172   0.36366   0.00000  Uiso   1.00
H219   H     0.36993   0.18415   0.41684   0.00000  Uiso   1.00
H220   H     0.38823   0.11198   0.38582   0.00000  Uiso   1.00
H221   H     0.37829   0.10004   0.29849   0.00000  Uiso   1.00
H222   H     0.34680   0.15947   0.24378   0.00000  Uiso   1.00
C223   C     0.52099   0.11034   0.34444   0.00000  Uiso   1.00
C224   C     0.56360   0.13791   0.35705   0.00000  Uiso   1.00
C225   C     0.57679   0.14995   0.40437   0.00000  Uiso   1.00
C226   C     0.54955   0.13272   0.43992   0.00000  Uiso   1.00
C227   C     0.50753   0.10490   0.42802   0.00000  Uiso   1.00
C228   C     0.49291   0.09418   0.38054   0.00000  Uiso   1.00
H229   H     0.58677   0.14973   0.33032   0.00000  Uiso   1.00
H230   H     0.60801   0.17272   0.41352   0.00000  Uiso   1.00
H231   H     0.56002   0.14213   0.47648   0.00000  Uiso   1.00
H232   H     0.48612   0.09181   0.45551   0.00000  Uiso   1.00
H233   H     0.46061   0.07204   0.37207   0.00000  Uiso   1.00
C234   C     0.48152   0.38851   0.15429   0.00000  Uiso   1.00
C235   C     0.51004   0.40479   0.11867   0.00000  Uiso   1.00
C236   C     0.49800   0.39197   0.07154   0.00000  Uiso   1.00
C237   C     0.45886   0.36126   0.05943   0.00000  Uiso   1.00
C238   C     0.43084   0.34420   0.09444   0.00000  Uiso   1.00
C239   C     0.44069   0.35904   0.14123   0.00000  Uiso   1.00
H240   H     0.54062   0.42868   0.12706   0.00000  Uiso   1.00
H241   H     0.51879   0.40636   0.04449   0.00000  Uiso   1.00
H242   H     0.45058   0.35039   0.02308   0.00000  Uiso   1.00
H243   H     0.40153   0.31951   0.08520   0.00000  Uiso   1.00
H244   H     0.41696   0.34733   0.16751   0.00000  Uiso   1.00
C245   C     0.54817   0.11716   0.17204   0.00000  Uiso   1.00
C246   C     0.53642   0.10342   0.12460   0.00000  Uiso   1.00
C247   C     0.56062   0.12348   0.08830   0.00000  Uiso   1.00
C248   C     0.59432   0.15901   0.09830   0.00000  Uiso   1.00
C249   C     0.60630   0.17284   0.14502   0.00000  Uiso   1.00
C250   C     0.58505   0.15089   0.18177   0.00000  Uiso   1.00
H251   H     0.50861   0.07731   0.11548   0.00000  Uiso   1.00
H252   H     0.55292   0.11163   0.05233   0.00000  Uiso   1.00
H253   H     0.61146   0.17561   0.07005   0.00000  Uiso   1.00
H254   H     0.63301   0.19984   0.15307   0.00000  Uiso   1.00
H255   H     0.59604   0.16115   0.21790   0.00000  Uiso   1.00
C256   C     0.44861   0.38365   0.32435   0.00000  Uiso   1.00
C257   C     0.40994   0.35218   0.31170   0.00000  Uiso   1.00
C258   C     0.38418   0.33146   0.34621   0.00000  Uiso   1.00
C259   C     0.39525   0.34300   0.39378   0.00000  Uiso   1.00
C260   C     0.43146   0.37608   0.40674   0.00000  Uiso   1.00
C261   C     0.45869   0.39600   0.37239   0.00000  Uiso   1.00
H262   H     0.40016   0.34341   0.27491   0.00000  Uiso   1.00
H263   H     0.35469   0.30740   0.33567   0.00000  Uiso   1.00
H264   H     0.37500   0.32685   0.42025   0.00000  Uiso   1.00
H265   H     0.43817   0.38634   0.44337   0.00000  Uiso   1.00
H266   H     0.48763   0.42074   0.38336   0.00000  Uiso   1.00
O267   O     0.45926   0.17945   0.12485   0.00000  Uiso   1.00
C268   C     0.40688   0.17436   0.12832   0.00000  Uiso   1.00
H269   H     0.38584   0.16233   0.09507   0.00000  Uiso   1.00
H270   H     0.38962   0.20506   0.13738   0.00000  Uiso   1.00
C271   C     0.39902   0.13861   0.16512   0.00000  Uiso   1.00
H272   H     0.41242   0.15043   0.20123   0.00000  Uiso   1.00
H273   H     0.35851   0.12878   0.16362   0.00000  Uiso   1.00
H274   H     0.42020   0.10909   0.15799   0.00000  Uiso   1.00
O275   O     0.53389   0.32395   0.37388   0.00000  Uiso   1.00
C276   C     0.58480   0.33029   0.36476   0.00000  Uiso   1.00
H277   H     0.58928   0.31920   0.32883   0.00000  Uiso   1.00
H278   H     0.61259   0.31301   0.39001   0.00000  Uiso   1.00
C279   C     0.59788   0.37936   0.36377   0.00000  Uiso   1.00
H280   H     0.59291   0.39472   0.39790   0.00000  Uiso   1.00
H281   H     0.63756   0.38510   0.35664   0.00000  Uiso   1.00
H282   H     0.57299   0.39574   0.33506   0.00000  Uiso   1.00
C283   C     0.42967   0.19143   0.02663   0.00000  Uiso   1.00
C284   C     0.38179   0.20894   0.01442   0.00000  Uiso   1.00
C285   C     0.34013   0.18107   0.00036   0.00000  Uiso   1.00
C286   C     0.34630   0.13588   0.49667   0.00000  Uiso   1.00
C287   C     0.39401   0.11835   0.00757   0.00000  Uiso   1.00
C288   C     0.43531   0.14579   0.02347   0.00000  Uiso   1.00
H289   H     0.37634   0.24360   0.01864   0.00000  Uiso   1.00
H290   H     0.63630   0.19439   0.49271   0.00000  Uiso   1.00
H291   H     0.64752   0.11431   0.48572   0.00000  Uiso   1.00
H292   H     0.39874   0.08336   0.00502   0.00000  Uiso   1.00
H293   H     0.47140   0.13156   0.03385   0.00000  Uiso   1.00
C294   C     0.56883   0.31489   0.46960   0.00000  Uiso   1.00
C295   C     0.55789   0.35896   0.47599   0.00000  Uiso   1.00
C296   C     0.59641   0.38907   0.49291   0.00000  Uiso   1.00
C297   C     0.64615   0.37555   0.00264   0.00000  Uiso   1.00
C298   C     0.65728   0.33173   0.49633   0.00000  Uiso   1.00
C299   C     0.61881   0.30141   0.48044   0.00000  Uiso   1.00
H300   H     0.51998   0.37006   0.46723   0.00000  Uiso   1.00
H301   H     0.58792   0.42315   0.49735   0.00000  Uiso   1.00
H302   H     0.34271   0.39895   0.01507   0.00000  Uiso   1.00
H303   H     0.36245   0.32128   0.00350   0.00000  Uiso   1.00
H304   H     0.62814   0.26793   0.47431   0.00000  Uiso   1.00
C305   C     0.83809   0.16538   0.25102   0.00000  Uiso   1.00
C306   C     0.82917   0.33471   0.24889   0.00000  Uiso   1.00
C307   C     0.86566   0.27866   0.05946   0.00000  Uiso   1.00
C308   C     0.81735   0.21470   0.44380   0.00000  Uiso   1.00
C309   C     0.86209   0.27982   0.10833   0.00000  Uiso   1.00
C310   C     0.81476   0.21539   0.39404   0.00000  Uiso   1.00
C311   C     0.80592   0.21833   0.10248   0.00000  Uiso   1.00
C312   C     0.85781   0.28419   0.39641   0.00000  Uiso   1.00
C313   C     0.80375   0.21929   0.05176   0.00000  Uiso   1.00
C314   C     0.86354   0.28344   0.44718   0.00000  Uiso   1.00
C315   C     0.83630   0.24895   0.02811   0.00000  Uiso   1.00
C316   C     0.83933   0.24941   0.47301   0.00000  Uiso   1.00
C317   C     0.73507   0.25171   0.23821   0.00000  Uiso   1.00
C318   C     0.93144   0.24819   0.26184   0.00000  Uiso   1.00
C319   C     0.68086   0.25979   0.23422   0.00000  Uiso   1.00
C320   C     0.98551   0.24079   0.26620   0.00000  Uiso   1.00
C321   C     0.83994   0.04643   0.29311   0.00000  Uiso   1.00
C322   C     0.82743   0.45329   0.20512   0.00000  Uiso   1.00
C323   C     0.84468   0.09213   0.29565   0.00000  Uiso   1.00
C324   C     0.82287   0.40750   0.20297   0.00000  Uiso   1.00
C325   C     0.84722   0.11721   0.25304   0.00000  Uiso   1.00
C326   C     0.82016   0.38288   0.24596   0.00000  Uiso   1.00
C327   C     0.85827   0.09470   0.21192   0.00000  Uiso   1.00
C328   C     0.80808   0.40572   0.28631   0.00000  Uiso   1.00
C329   C     0.85289   0.04877   0.21097   0.00000  Uiso   1.00
C330   C     0.81346   0.45155   0.28707   0.00000  Uiso   1.00
C331   C     0.83868   0.02437   0.25012   0.00000  Uiso   1.00
C332   C     0.82821   0.47568   0.24794   0.00000  Uiso   1.00
Cu333  Cu    0.83333   0.24999   0.29822   0.00000  Uiso   1.00
Cu334  Cu    0.83333   0.25000   0.20179   0.00000  Uiso   1.00
H335   H     0.84059   0.02815   0.32604   0.00000  Uiso   1.00
H336   H     0.82727   0.47132   0.17210   0.00000  Uiso   1.00
H337   H     0.86311   0.03238   0.18025   0.00000  Uiso   1.00
H338   H     0.80249   0.46804   0.31746   0.00000  Uiso   1.00
H339   H     0.89188   0.30262   0.04892   0.00000  Uiso   1.00
H340   H     0.80503   0.18438   0.45791   0.00000  Uiso   1.00
H341   H     0.88347   0.30426   0.13011   0.00000  Uiso   1.00
H342   H     0.79875   0.18744   0.37402   0.00000  Uiso   1.00
N343   N     0.83333   0.25001   0.12935   0.00000  Uiso   1.00
N344   N     0.83333   0.24999   0.37066   0.00000  Uiso   1.00
O345   O     0.83334   0.18572   0.29072   0.00000  Uiso   1.00
O346   O     0.83333   0.31427   0.20929   0.00000  Uiso   1.00
O347   O     0.83334   0.18573   0.20928   0.00000  Uiso   1.00
O348   O     0.83333   0.31427   0.29072   0.00000  Uiso   1.00
O349   O     0.75828   0.24999   0.28132   0.00000  Uiso   1.00
O350   O     0.90839   0.25000   0.21868   0.00000  Uiso   1.00
O351   O     0.75828   0.25000   0.19989   0.00000  Uiso   1.00
O352   O     0.90839   0.25000   0.30012   0.00000  Uiso   1.00
C353   C     0.99542   0.29694   0.20265   0.00000  Uiso   1.00
C354   C     0.97660   0.33453   0.22207   0.00000  Uiso   1.00
C355   C     0.96118   0.37018   0.19289   0.00000  Uiso   1.00
C356   C     0.96352   0.36835   0.14399   0.00000  Uiso   1.00
C357   C     0.97982   0.33047   0.12429   0.00000  Uiso   1.00
C358   C     0.99617   0.29506   0.15331   0.00000  Uiso   1.00
H359   H     0.97439   0.33650   0.25989   0.00000  Uiso   1.00
H360   H     0.94748   0.39918   0.20818   0.00000  Uiso   1.00
H361   H     0.95228   0.39596   0.12116   0.00000  Uiso   1.00
H362   H     0.97975   0.32841   0.08647   0.00000  Uiso   1.00
H363   H     0.67604   0.26649   0.13709   0.00000  Uiso   1.00
C364   C     0.67109   0.20511   0.29941   0.00000  Uiso   1.00
C365   C     0.67685   0.21140   0.34871   0.00000  Uiso   1.00
C366   C     0.69657   0.17829   0.37930   0.00000  Uiso   1.00
C367   C     0.70789   0.13783   0.36152   0.00000  Uiso   1.00
C368   C     0.70206   0.13114   0.31251   0.00000  Uiso   1.00
C369   C     0.68420   0.16482   0.28157   0.00000  Uiso   1.00
H370   H     0.99980   0.24172   0.36366   0.00000  Uiso   1.00
H371   H     0.70326   0.18415   0.41684   0.00000  Uiso   1.00
H372   H     0.72156   0.11198   0.38582   0.00000  Uiso   1.00
H373   H     0.71162   0.10004   0.29849   0.00000  Uiso   1.00
H374   H     0.68014   0.15947   0.24378   0.00000  Uiso   1.00
C375   C     0.85433   0.11034   0.34444   0.00000  Uiso   1.00
C376   C     0.89694   0.13791   0.35705   0.00000  Uiso   1.00
C377   C     0.91012   0.14995   0.40437   0.00000  Uiso   1.00
C378   C     0.88289   0.13272   0.43992   0.00000  Uiso   1.00
C379   C     0.84086   0.10490   0.42802   0.00000  Uiso   1.00
C380   C     0.82624   0.09418   0.38054   0.00000  Uiso   1.00
H381   H     0.92010   0.14973   0.33032   0.00000  Uiso   1.00
H382   H     0.94135   0.17272   0.41352   0.00000  Uiso   1.00
H383   H     0.89335   0.14213   0.47648   0.00000  Uiso   1.00
H384   H     0.81946   0.09181   0.45551   0.00000  Uiso   1.00
H385   H     0.79394   0.07204   0.37207   0.00000  Uiso   1.00
C386   C     0.81485   0.38851   0.15429   0.00000  Uiso   1.00
C387   C     0.84338   0.40479   0.11867   0.00000  Uiso   1.00
C388   C     0.83133   0.39197   0.07154   0.00000  Uiso   1.00
C389   C     0.79220   0.36126   0.05943   0.00000  Uiso   1.00
C390   C     0.76417   0.34420   0.09444   0.00000  Uiso   1.00
C391   C     0.77402   0.35904   0.14123   0.00000  Uiso   1.00
H392   H     0.87396   0.42868   0.12706   0.00000  Uiso   1.00
H393   H     0.85212   0.40636   0.04449   0.00000  Uiso   1.00
H394   H     0.78391   0.35039   0.02308   0.00000  Uiso   1.00
H395   H     0.73486   0.31951   0.08520   0.00000  Uiso   1.00
H396   H     0.75029   0.34733   0.16751   0.00000  Uiso   1.00
C397   C     0.88151   0.11716   0.17204   0.00000  Uiso   1.00
C398   C     0.86975   0.10342   0.12460   0.00000  Uiso   1.00
C399   C     0.89395   0.12348   0.08830   0.00000  Uiso   1.00
C400   C     0.92765   0.15901   0.09830   0.00000  Uiso   1.00
C401   C     0.93964   0.17284   0.14502   0.00000  Uiso   1.00
C402   C     0.91839   0.15089   0.18177   0.00000  Uiso   1.00
H403   H     0.84194   0.07731   0.11548   0.00000  Uiso   1.00
H404   H     0.88625   0.11163   0.05233   0.00000  Uiso   1.00
H405   H     0.94479   0.17561   0.07005   0.00000  Uiso   1.00
H406   H     0.96634   0.19984   0.15307   0.00000  Uiso   1.00
H407   H     0.92938   0.16115   0.21790   0.00000  Uiso   1.00
C408   C     0.78194   0.38365   0.32435   0.00000  Uiso   1.00
C409   C     0.74327   0.35218   0.31170   0.00000  Uiso   1.00
C410   C     0.71751   0.33146   0.34621   0.00000  Uiso   1.00
C411   C     0.72858   0.34300   0.39378   0.00000  Uiso   1.00
C412   C     0.76479   0.37608   0.40674   0.00000  Uiso   1.00
C413   C     0.79202   0.39600   0.37239   0.00000  Uiso   1.00
H414   H     0.73350   0.34341   0.27491   0.00000  Uiso   1.00
H415   H     0.68802   0.30740   0.33567   0.00000  Uiso   1.00
H416   H     0.70833   0.32685   0.42025   0.00000  Uiso   1.00
H417   H     0.77150   0.38634   0.44337   0.00000  Uiso   1.00
H418   H     0.82096   0.42074   0.38336   0.00000  Uiso   1.00
O419   O     0.79260   0.17945   0.12485   0.00000  Uiso   1.00
C420   C     0.74021   0.17436   0.12832   0.00000  Uiso   1.00
H421   H     0.71917   0.16233   0.09507   0.00000  Uiso   1.00
H422   H     0.72296   0.20506   0.13738   0.00000  Uiso   1.00
C423   C     0.73235   0.13861   0.16512   0.00000  Uiso   1.00
H424   H     0.74575   0.15043   0.20123   0.00000  Uiso   1.00
H425   H     0.69184   0.12878   0.16362   0.00000  Uiso   1.00
H426   H     0.75353   0.10909   0.15799   0.00000  Uiso   1.00
O427   O     0.86722   0.32395   0.37388   0.00000  Uiso   1.00
C428   C     0.91813   0.33029   0.36476   0.00000  Uiso   1.00
H429   H     0.92261   0.31920   0.32883   0.00000  Uiso   1.00
H430   H     0.94593   0.31301   0.39001   0.00000  Uiso   1.00
C431   C     0.93121   0.37936   0.36377   0.00000  Uiso   1.00
H432   H     0.92624   0.39472   0.39790   0.00000  Uiso   1.00
H433   H     0.97089   0.38510   0.35664   0.00000  Uiso   1.00
H434   H     0.90633   0.39574   0.33506   0.00000  Uiso   1.00
C435   C     0.76301   0.19143   0.02663   0.00000  Uiso   1.00
C436   C     0.71512   0.20894   0.01442   0.00000  Uiso   1.00
C437   C     0.67346   0.18107   0.00036   0.00000  Uiso   1.00
C438   C     0.67964   0.13588   0.49667   0.00000  Uiso   1.00
C439   C     0.72735   0.11835   0.00757   0.00000  Uiso   1.00
C440   C     0.76865   0.14579   0.02347   0.00000  Uiso   1.00
H441   H     0.70967   0.24360   0.01864   0.00000  Uiso   1.00
H442   H     0.96963   0.19439   0.49271   0.00000  Uiso   1.00
H443   H     0.98085   0.11431   0.48572   0.00000  Uiso   1.00
H444   H     0.73207   0.08336   0.00502   0.00000  Uiso   1.00
H445   H     0.80473   0.13156   0.03385   0.00000  Uiso   1.00
C446   C     0.90217   0.31489   0.46960   0.00000  Uiso   1.00
C447   C     0.89122   0.35896   0.47599   0.00000  Uiso   1.00
C448   C     0.92975   0.38907   0.49291   0.00000  Uiso   1.00
C449   C     0.97948   0.37555   0.00264   0.00000  Uiso   1.00
C450   C     0.99061   0.33173   0.49633   0.00000  Uiso   1.00
C451   C     0.95214   0.30141   0.48044   0.00000  Uiso   1.00
H452   H     0.85332   0.37006   0.46723   0.00000  Uiso   1.00
H453   H     0.92126   0.42315   0.49735   0.00000  Uiso   1.00
H454   H     0.67605   0.39895   0.01507   0.00000  Uiso   1.00
H455   H     0.69578   0.32128   0.00350   0.00000  Uiso   1.00
H456   H     0.96148   0.26793   0.47431   0.00000  Uiso   1.00
C457   C     0.17142   0.66538   0.25102   0.00000  Uiso   1.00
C458   C     0.16251   0.83471   0.24889   0.00000  Uiso   1.00
C459   C     0.19899   0.77866   0.05946   0.00000  Uiso   1.00
C460   C     0.15069   0.71470   0.44380   0.00000  Uiso   1.00
C461   C     0.19542   0.77982   0.10833   0.00000  Uiso   1.00
C462   C     0.14809   0.71539   0.39404   0.00000  Uiso   1.00
C463   C     0.13925   0.71833   0.10248   0.00000  Uiso   1.00
C464   C     0.19114   0.78419   0.39641   0.00000  Uiso   1.00
C465   C     0.13708   0.71929   0.05176   0.00000  Uiso   1.00
C466   C     0.19687   0.78344   0.44718   0.00000  Uiso   1.00
C467   C     0.16963   0.74895   0.02811   0.00000  Uiso   1.00
C468   C     0.17266   0.74941   0.47301   0.00000  Uiso   1.00
C469   C     0.06840   0.75171   0.23821   0.00000  Uiso   1.00
C470   C     0.26477   0.74819   0.26184   0.00000  Uiso   1.00
C471   C     0.01420   0.75979   0.23422   0.00000  Uiso   1.00
C472   C     0.31885   0.74079   0.26620   0.00000  Uiso   1.00
C473   C     0.17327   0.54643   0.29311   0.00000  Uiso   1.00
C474   C     0.16076   0.95329   0.20512   0.00000  Uiso   1.00
C475   C     0.17802   0.59213   0.29565   0.00000  Uiso   1.00
C476   C     0.15620   0.90750   0.20297   0.00000  Uiso   1.00
C477   C     0.18055   0.61721   0.25304   0.00000  Uiso   1.00
C478   C     0.15349   0.88288   0.24596   0.00000  Uiso   1.00
C479   C     0.19160   0.59470   0.21192   0.00000  Uiso   1.00
C480   C     0.14141   0.90572   0.28631   0.00000  Uiso   1.00
C481   C     0.18622   0.54877   0.21097   0.00000  Uiso   1.00
C482   C     0.14679   0.95155   0.28707   0.00000  Uiso   1.00
C483   C     0.17201   0.52437   0.25012   0.00000  Uiso   1.00
C484   C     0.16154   0.97568   0.24794   0.00000  Uiso   1.00
Cu485  Cu    0.16667   0.74999   0.29822   0.00000  Uiso   1.00
Cu486  Cu    0.16667   0.75000   0.20179   0.00000  Uiso   1.00
H487   H     0.17392   0.52815   0.32604   0.00000  Uiso   1.00
H488   H     0.16060   0.97132   0.17210   0.00000  Uiso   1.00
H489   H     0.19644   0.53238   0.18025   0.00000  Uiso   1.00
H490   H     0.13583   0.96804   0.31746   0.00000  Uiso   1.00
H491   H     0.22521   0.80262   0.04892   0.00000  Uiso   1.00
H492   H     0.13836   0.68438   0.45791   0.00000  Uiso   1.00
H493   H     0.21680   0.80426   0.13011   0.00000  Uiso   1.00
H494   H     0.13209   0.68744   0.37402   0.00000  Uiso   1.00
N495   N     0.16667   0.75001   0.12935   0.00000  Uiso   1.00
N496   N     0.16667   0.74999   0.37066   0.00000  Uiso   1.00
O497   O     0.16667   0.68572   0.29072   0.00000  Uiso   1.00
O498   O     0.16666   0.81427   0.20929   0.00000  Uiso   1.00
O499   O     0.16667   0.68573   0.20928   0.00000  Uiso   1.00
O500   O     0.16666   0.81427   0.29072   0.00000  Uiso   1.00
O501   O     0.09161   0.74999   0.28132   0.00000  Uiso   1.00
O502   O     0.24172   0.75000   0.21868   0.00000  Uiso   1.00
O503   O     0.09161   0.75000   0.19989   0.00000  Uiso   1.00
O504   O     0.24172   0.75000   0.30012   0.00000  Uiso   1.00
C505   C     0.32875   0.79694   0.20265   0.00000  Uiso   1.00
C506   C     0.30993   0.83453   0.22207   0.00000  Uiso   1.00
C507   C     0.29452   0.87018   0.19289   0.00000  Uiso   1.00
C508   C     0.29685   0.86835   0.14399   0.00000  Uiso   1.00
C509   C     0.31315   0.83047   0.12429   0.00000  Uiso   1.00
C510   C     0.32951   0.79506   0.15331   0.00000  Uiso   1.00
H511   H     0.30773   0.83650   0.25989   0.00000  Uiso   1.00
H512   H     0.28082   0.89918   0.20818   0.00000  Uiso   1.00
H513   H     0.28561   0.89596   0.12116   0.00000  Uiso   1.00
H514   H     0.31308   0.82841   0.08647   0.00000  Uiso   1.00
H515   H     0.00938   0.76649   0.13709   0.00000  Uiso   1.00
C516   C     0.00443   0.70511   0.29941   0.00000  Uiso   1.00
C517   C     0.01018   0.71140   0.34871   0.00000  Uiso   1.00
C518   C     0.02990   0.67829   0.37930   0.00000  Uiso   1.00
C519   C     0.04122   0.63783   0.36152   0.00000  Uiso   1.00
C520   C     0.03539   0.63114   0.31251   0.00000  Uiso   1.00
C521   C     0.01753   0.66482   0.28157   0.00000  Uiso   1.00
H522   H     0.33313   0.74172   0.36366   0.00000  Uiso   1.00
H523   H     0.03659   0.68415   0.41684   0.00000  Uiso   1.00
H524   H     0.05489   0.61198   0.38582   0.00000  Uiso   1.00
H525   H     0.04495   0.60004   0.29849   0.00000  Uiso   1.00
H526   H     0.01347   0.65947   0.24378   0.00000  Uiso   1.00
C527   C     0.18766   0.61034   0.34444   0.00000  Uiso   1.00
C528   C     0.23027   0.63791   0.35705   0.00000  Uiso   1.00
C529   C     0.24345   0.64995   0.40437   0.00000  Uiso   1.00
C530   C     0.21622   0.63272   0.43992   0.00000  Uiso   1.00
C531   C     0.17419   0.60490   0.42802   0.00000  Uiso   1.00
C532   C     0.15957   0.59418   0.38054   0.00000  Uiso   1.00
H533   H     0.25344   0.64973   0.33032   0.00000  Uiso   1.00
H534   H     0.27468   0.67272   0.41352   0.00000  Uiso   1.00
H535   H     0.22668   0.64213   0.47648   0.00000  Uiso   1.00
H536   H     0.15279   0.59181   0.45551   0.00000  Uiso   1.00
H537   H     0.12728   0.57204   0.37207   0.00000  Uiso   1.00
C538   C     0.14818   0.88851   0.15429   0.00000  Uiso   1.00
C539   C     0.17671   0.90479   0.11867   0.00000  Uiso   1.00
C540   C     0.16467   0.89197   0.07154   0.00000  Uiso   1.00
C541   C     0.12553   0.86126   0.05943   0.00000  Uiso   1.00
C542   C     0.09751   0.84420   0.09444   0.00000  Uiso   1.00
C543   C     0.10736   0.85904   0.14123   0.00000  Uiso   1.00
H544   H     0.20729   0.92868   0.12706   0.00000  Uiso   1.00
H545   H     0.18546   0.90636   0.04449   0.00000  Uiso   1.00
H546   H     0.11725   0.85039   0.02308   0.00000  Uiso   1.00
H547   H     0.06819   0.81951   0.08520   0.00000  Uiso   1.00
H548   H     0.08362   0.84733   0.16751   0.00000  Uiso   1.00
C549   C     0.21484   0.61716   0.17204   0.00000  Uiso   1.00
C550   C     0.20309   0.60342   0.12460   0.00000  Uiso   1.00
C551   C     0.22729   0.62348   0.08830   0.00000  Uiso   1.00
C552   C     0.26099   0.65901   0.09830   0.00000  Uiso   1.00
C553   C     0.27297   0.67284   0.14502   0.00000  Uiso   1.00
C554   C     0.25172   0.65089   0.18177   0.00000  Uiso   1.00
H555   H     0.17527   0.57731   0.11548   0.00000  Uiso   1.00
H556   H     0.21958   0.61163   0.05233   0.00000  Uiso   1.00
H557   H     0.27813   0.67561   0.07005   0.00000  Uiso   1.00
H558   H     0.29967   0.69984   0.15307   0.00000  Uiso   1.00
H559   H     0.26271   0.66115   0.21790   0.00000  Uiso   1.00
C560   C     0.11528   0.88365   0.32435   0.00000  Uiso   1.00
C561   C     0.07661   0.85218   0.31170   0.00000  Uiso   1.00
C562   C     0.05085   0.83146   0.34621   0.00000  Uiso   1.00
C563   C     0.06191   0.84300   0.39378   0.00000  Uiso   1.00
C564   C     0.09812   0.87608   0.40674   0.00000  Uiso   1.00
C565   C     0.12536   0.89600   0.37239   0.00000  Uiso   1.00
H566   H     0.06683   0.84341   0.27491   0.00000  Uiso   1.00
H567   H     0.02135   0.80740   0.33567   0.00000  Uiso   1.00
H568   H     0.04166   0.82685   0.42025   0.00000  Uiso   1.00
H569   H     0.10484   0.88634   0.44337   0.00000  Uiso   1.00
H570   H     0.15430   0.92074   0.38336   0.00000  Uiso   1.00
O571   O     0.12593   0.67945   0.12485   0.00000  Uiso   1.00
C572   C     0.07355   0.67436   0.12832   0.00000  Uiso   1.00
H573   H     0.05250   0.66233   0.09507   0.00000  Uiso   1.00
H574   H     0.05629   0.70506   0.13738   0.00000  Uiso   1.00
C575   C     0.06568   0.63861   0.16512   0.00000  Uiso   1.00
H576   H     0.07908   0.65043   0.20123   0.00000  Uiso   1.00
H577   H     0.02517   0.62878   0.16362   0.00000  Uiso   1.00
H578   H     0.08687   0.60909   0.15799   0.00000  Uiso   1.00
O579   O     0.20055   0.82395   0.37388   0.00000  Uiso   1.00
C580   C     0.25146   0.83029   0.36476   0.00000  Uiso   1.00
H581   H     0.25594   0.81920   0.32883   0.00000  Uiso   1.00
H582   H     0.27926   0.81301   0.39001   0.00000  Uiso   1.00
C583   C     0.26454   0.87936   0.36377   0.00000  Uiso   1.00
H584   H     0.25957   0.89472   0.39790   0.00000  Uiso   1.00
H585   H     0.30423   0.88510   0.35664   0.00000  Uiso   1.00
H586   H     0.23966   0.89574   0.33506   0.00000  Uiso   1.00
C587   C     0.09634   0.69143   0.02663   0.00000  Uiso   1.00
C588   C     0.04845   0.70894   0.01442   0.00000  Uiso   1.00
C589   C     0.00680   0.68107   0.00036   0.00000  Uiso   1.00
C590   C     0.01297   0.63588   0.49667   0.00000  Uiso   1.00
C591   C     0.06068   0.61835   0.00757   0.00000  Uiso   1.00
C592   C     0.10198   0.64579   0.02347   0.00000  Uiso   1.00
H593   H     0.04301   0.74360   0.01864   0.00000  Uiso   1.00
H594   H     0.30296   0.69439   0.49271   0.00000  Uiso   1.00
H595   H     0.31419   0.61431   0.48572   0.00000  Uiso   1.00
H596   H     0.06541   0.58336   0.00502   0.00000  Uiso   1.00
H597   H     0.13807   0.63156   0.03385   0.00000  Uiso   1.00
C598   C     0.23550   0.81489   0.46960   0.00000  Uiso   1.00
C599   C     0.22456   0.85896   0.47599   0.00000  Uiso   1.00
C600   C     0.26308   0.88907   0.49291   0.00000  Uiso   1.00
C601   C     0.31281   0.87555   0.00264   0.00000  Uiso   1.00
C602   C     0.32394   0.83173   0.49633   0.00000  Uiso   1.00
C603   C     0.28548   0.80141   0.48044   0.00000  Uiso   1.00
H604   H     0.18665   0.87006   0.46723   0.00000  Uiso   1.00
H605   H     0.25459   0.92315   0.49735   0.00000  Uiso   1.00
H606   H     0.00938   0.89895   0.01507   0.00000  Uiso   1.00
H607   H     0.02912   0.82128   0.00350   0.00000  Uiso   1.00
H608   H     0.29481   0.76793   0.47431   0.00000  Uiso   1.00
C609   C     0.50475   0.66538   0.25102   0.00000  Uiso   1.00
C610   C     0.49584   0.83471   0.24889   0.00000  Uiso   1.00
C611   C     0.53233   0.77866   0.05946   0.00000  Uiso   1.00
C612   C     0.48402   0.71470   0.44380   0.00000  Uiso   1.00
C613   C     0.52876   0.77982   0.10833   0.00000  Uiso   1.00
C614   C     0.48142   0.71539   0.39404   0.00000  Uiso   1.00
C615   C     0.47259   0.71833   0.10248   0.00000  Uiso   1.00
C616   C     0.52448   0.78419   0.39641   0.00000  Uiso   1.00
C617   C     0.47041   0.71929   0.05176   0.00000  Uiso   1.00
C618   C     0.53020   0.78344   0.44718   0.00000  Uiso   1.00
C619   C     0.50296   0.74895   0.02811   0.00000  Uiso   1.00
C620   C     0.50599   0.74941   0.47301   0.00000  Uiso   1.00
C621   C     0.40173   0.75171   0.23821   0.00000  Uiso   1.00
C622   C     0.59810   0.74819   0.26184   0.00000  Uiso   1.00
C623   C     0.34753   0.75979   0.23422   0.00000  Uiso   1.00
C624   C     0.65218   0.74079   0.26620   0.00000  Uiso   1.00
C625   C     0.50661   0.54643   0.29311   0.00000  Uiso   1.00
C626   C     0.49409   0.95329   0.20512   0.00000  Uiso   1.00
C627   C     0.51135   0.59213   0.29565   0.00000  Uiso   1.00
C628   C     0.48954   0.90750   0.20297   0.00000  Uiso   1.00
C629   C     0.51388   0.61721   0.25304   0.00000  Uiso   1.00
C630   C     0.48683   0.88288   0.24596   0.00000  Uiso   1.00
C631   C     0.52493   0.59470   0.21192   0.00000  Uiso   1.00
C632   C     0.47475   0.90572   0.28631   0.00000  Uiso   1.00
C633   C     0.51955   0.54877   0.21097   0.00000  Uiso   1.00
C634   C     0.48012   0.95155   0.28707   0.00000  Uiso   1.00
C635   C     0.50534   0.52437   0.25012   0.00000  Uiso   1.00
C636   C     0.49487   0.97568   0.24794   0.00000  Uiso   1.00
Cu637  Cu    0.50000   0.74999   0.29822   0.00000  Uiso   1.00
Cu638  Cu    0.50000   0.75000   0.20179   0.00000  Uiso   1.00
H639   H     0.50725   0.52815   0.32604   0.00000  Uiso   1.00
H640   H     0.49394   0.97132   0.17210   0.00000  Uiso   1.00
H641   H     0.52977   0.53238   0.18025   0.00000  Uiso   1.00
H642   H     0.46916   0.96804   0.31746   0.00000  Uiso   1.00
H643   H     0.55854   0.80262   0.04892   0.00000  Uiso   1.00
H644   H     0.47169   0.68438   0.45791   0.00000  Uiso   1.00
H645   H     0.55013   0.80426   0.13011   0.00000  Uiso   1.00
H646   H     0.46542   0.68744   0.37402   0.00000  Uiso   1.00
N647   N     0.50000   0.75001   0.12935   0.00000  Uiso   1.00
N648   N     0.50000   0.74999   0.37066   0.00000  Uiso   1.00
O649   O     0.50000   0.68572   0.29072   0.00000  Uiso   1.00
O650   O     0.50000   0.81427   0.20929   0.00000  Uiso   1.00
O651   O     0.50000   0.68573   0.20928   0.00000  Uiso   1.00
O652   O     0.50000   0.81427   0.29072   0.00000  Uiso   1.00
O653   O     0.42495   0.74999   0.28132   0.00000  Uiso   1.00
O654   O     0.57505   0.75000   0.21868   0.00000  Uiso   1.00
O655   O     0.42495   0.75000   0.19989   0.00000  Uiso   1.00
O656   O     0.57505   0.75000   0.30012   0.00000  Uiso   1.00
C657   C     0.66209   0.79694   0.20265   0.00000  Uiso   1.00
C658   C     0.64327   0.83453   0.22207   0.00000  Uiso   1.00
C659   C     0.62785   0.87018   0.19289   0.00000  Uiso   1.00
C660   C     0.63018   0.86835   0.14399   0.00000  Uiso   1.00
C661   C     0.64648   0.83047   0.12429   0.00000  Uiso   1.00
C662   C     0.66284   0.79506   0.15331   0.00000  Uiso   1.00
H663   H     0.64106   0.83650   0.25989   0.00000  Uiso   1.00
H664   H     0.61415   0.89918   0.20818   0.00000  Uiso   1.00
H665   H     0.61894   0.89596   0.12116   0.00000  Uiso   1.00
H666   H     0.64642   0.82841   0.08647   0.00000  Uiso   1.00
H667   H     0.34271   0.76649   0.13709   0.00000  Uiso   1.00
C668   C     0.33776   0.70511   0.29941   0.00000  Uiso   1.00
C669   C     0.34352   0.71140   0.34871   0.00000  Uiso   1.00
C670   C     0.36323   0.67829   0.37930   0.00000  Uiso   1.00
C671   C     0.37456   0.63783   0.36152   0.00000  Uiso   1.00
C672   C     0.36873   0.63114   0.31251   0.00000  Uiso   1.00
C673   C     0.35086   0.66482   0.28157   0.00000  Uiso   1.00
H674   H     0.66647   0.74172   0.36366   0.00000  Uiso   1.00
H675   H     0.36993   0.68415   0.41684   0.00000  Uiso   1.00
H676   H     0.38823   0.61198   0.38582   0.00000  Uiso   1.00
H677   H     0.37829   0.60004   0.29849   0.00000  Uiso   1.00
H678   H     0.34680   0.65947   0.24378   0.00000  Uiso   1.00
C679   C     0.52099   0.61034   0.34444   0.00000  Uiso   1.00
C680   C     0.56360   0.63791   0.35705   0.00000  Uiso   1.00
C681   C     0.57679   0.64995   0.40437   0.00000  Uiso   1.00
C682   C     0.54955   0.63272   0.43992   0.00000  Uiso   1.00
C683   C     0.50753   0.60490   0.42802   0.00000  Uiso   1.00
C684   C     0.49291   0.59418   0.38054   0.00000  Uiso   1.00
H685   H     0.58677   0.64973   0.33032   0.00000  Uiso   1.00
H686   H     0.60801   0.67272   0.41352   0.00000  Uiso   1.00
H687   H     0.56002   0.64213   0.47648   0.00000  Uiso   1.00
H688   H     0.48612   0.59181   0.45551   0.00000  Uiso   1.00
H689   H     0.46061   0.57204   0.37207   0.00000  Uiso   1.00
C690   C     0.48152   0.88851   0.15429   0.00000  Uiso   1.00
C691   C     0.51004   0.90479   0.11867   0.00000  Uiso   1.00
C692   C     0.49800   0.89197   0.07154   0.00000  Uiso   1.00
C693   C     0.45886   0.86126   0.05943   0.00000  Uiso   1.00
C694   C     0.43084   0.84420   0.09444   0.00000  Uiso   1.00
C695   C     0.44069   0.85904   0.14123   0.00000  Uiso   1.00
H696   H     0.54062   0.92868   0.12706   0.00000  Uiso   1.00
H697   H     0.51879   0.90636   0.04449   0.00000  Uiso   1.00
H698   H     0.45058   0.85039   0.02308   0.00000  Uiso   1.00
H699   H     0.40153   0.81951   0.08520   0.00000  Uiso   1.00
H700   H     0.41696   0.84733   0.16751   0.00000  Uiso   1.00
C701   C     0.54817   0.61716   0.17204   0.00000  Uiso   1.00
C702   C     0.53642   0.60342   0.12460   0.00000  Uiso   1.00
C703   C     0.56062   0.62348   0.08830   0.00000  Uiso   1.00
C704   C     0.59432   0.65901   0.09830   0.00000  Uiso   1.00
C705   C     0.60630   0.67284   0.14502   0.00000  Uiso   1.00
C706   C     0.58505   0.65089   0.18177   0.00000  Uiso   1.00
H707   H     0.50861   0.57731   0.11548   0.00000  Uiso   1.00
H708   H     0.55292   0.61163   0.05233   0.00000  Uiso   1.00
H709   H     0.61146   0.67561   0.07005   0.00000  Uiso   1.00
H710   H     0.63301   0.69984   0.15307   0.00000  Uiso   1.00
H711   H     0.59604   0.66115   0.21790   0.00000  Uiso   1.00
C712   C     0.44861   0.88365   0.32435   0.00000  Uiso   1.00
C713   C     0.40994   0.85218   0.31170   0.00000  Uiso   1.00
C714   C     0.38418   0.83146   0.34621   0.00000  Uiso   1.00
C715   C     0.39525   0.84300   0.39378   0.00000  Uiso   1.00
C716   C     0.43146   0.87608   0.40674   0.00000  Uiso   1.00
C717   C     0.45869   0.89600   0.37239   0.00000  Uiso   1.00
H718   H     0.40016   0.84341   0.27491   0.00000  Uiso   1.00
H719   H     0.35469   0.80740   0.33567   0.00000  Uiso   1.00
H720   H     0.37500   0.82685   0.42025   0.00000  Uiso   1.00
H721   H     0.43817   0.88634   0.44337   0.00000  Uiso   1.00
H722   H     0.48763   0.92074   0.38336   0.00000  Uiso   1.00
O723   O     0.45926   0.67945   0.12485   0.00000  Uiso   1.00
C724   C     0.40688   0.67436   0.12832   0.00000  Uiso   1.00
H725   H     0.38584   0.66233   0.09507   0.00000  Uiso   1.00
H726   H     0.38962   0.70506   0.13738   0.00000  Uiso   1.00
C727   C     0.39902   0.63861   0.16512   0.00000  Uiso   1.00
H728   H     0.41242   0.65043   0.20123   0.00000  Uiso   1.00
H729   H     0.35851   0.62878   0.16362   0.00000  Uiso   1.00
H730   H     0.42020   0.60909   0.15799   0.00000  Uiso   1.00
O731   O     0.53389   0.82395   0.37388   0.00000  Uiso   1.00
C732   C     0.58480   0.83029   0.36476   0.00000  Uiso   1.00
H733   H     0.58928   0.81920   0.32883   0.00000  Uiso   1.00
H734   H     0.61259   0.81301   0.39001   0.00000  Uiso   1.00
C735   C     0.59788   0.87936   0.36377   0.00000  Uiso   1.00
H736   H     0.59291   0.89472   0.39790   0.00000  Uiso   1.00
H737   H     0.63756   0.88510   0.35664   0.00000  Uiso   1.00
H738   H     0.57299   0.89574   0.33506   0.00000  Uiso   1.00
C739   C     0.42967   0.69143   0.02663   0.00000  Uiso   1.00
C740   C     0.38179   0.70894   0.01442   0.00000  Uiso   1.00
C741   C     0.34013   0.68107   0.00036   0.00000  Uiso   1.00
C742   C     0.34630   0.63588   0.49667   0.00000  Uiso   1.00
C743   C     0.39401   0.61835   0.00757   0.00000  Uiso   1.00
C744   C     0.43531   0.64579   0.02347   0.00000  Uiso   1.00
H745   H     0.37634   0.74360   0.01864   0.00000  Uiso   1.00
H746   H     0.63630   0.69439   0.49271   0.00000  Uiso   1.00
H747   H     0.64752   0.61431   0.48572   0.00000  Uiso   1.00
H748   H     0.39874   0.58336   0.00502   0.00000  Uiso   1.00
H749   H     0.47140   0.63156   0.03385   0.00000  Uiso   1.00
C750   C     0.56883   0.81489   0.46960   0.00000  Uiso   1.00
C751   C     0.55789   0.85896   0.47599   0.00000  Uiso   1.00
C752   C     0.59641   0.88907   0.49291   0.00000  Uiso   1.00
C753   C     0.64615   0.87555   0.00264   0.00000  Uiso   1.00
C754   C     0.65728   0.83173   0.49633   0.00000  Uiso   1.00
C755   C     0.61881   0.80141   0.48044   0.00000  Uiso   1.00
H756   H     0.51998   0.87006   0.46723   0.00000  Uiso   1.00
H757   H     0.58792   0.92315   0.49735   0.00000  Uiso   1.00
H758   H     0.34271   0.89895   0.01507   0.00000  Uiso   1.00
H759   H     0.36245   0.82128   0.00350   0.00000  Uiso   1.00
H760   H     0.62814   0.76793   0.47431   0.00000  Uiso   1.00
C761   C     0.83809   0.66538   0.25102   0.00000  Uiso   1.00
C762   C     0.82917   0.83471   0.24889   0.00000  Uiso   1.00
C763   C     0.86566   0.77866   0.05946   0.00000  Uiso   1.00
C764   C     0.81735   0.71470   0.44380   0.00000  Uiso   1.00
C765   C     0.86209   0.77982   0.10833   0.00000  Uiso   1.00
C766   C     0.81476   0.71539   0.39404   0.00000  Uiso   1.00
C767   C     0.80592   0.71833   0.10248   0.00000  Uiso   1.00
C768   C     0.85781   0.78419   0.39641   0.00000  Uiso   1.00
C769   C     0.80375   0.71929   0.05176   0.00000  Uiso   1.00
C770   C     0.86354   0.78344   0.44718   0.00000  Uiso   1.00
C771   C     0.83630   0.74895   0.02811   0.00000  Uiso   1.00
C772   C     0.83933   0.74941   0.47301   0.00000  Uiso   1.00
C773   C     0.73507   0.75171   0.23821   0.00000  Uiso   1.00
C774   C     0.93144   0.74819   0.26184   0.00000  Uiso   1.00
C775   C     0.68086   0.75979   0.23422   0.00000  Uiso   1.00
C776   C     0.98551   0.74079   0.26620   0.00000  Uiso   1.00
C777   C     0.83994   0.54643   0.29311   0.00000  Uiso   1.00
C778   C     0.82743   0.95329   0.20512   0.00000  Uiso   1.00
C779   C     0.84468   0.59213   0.29565   0.00000  Uiso   1.00
C780   C     0.82287   0.90750   0.20297   0.00000  Uiso   1.00
C781   C     0.84722   0.61721   0.25304   0.00000  Uiso   1.00
C782   C     0.82016   0.88288   0.24596   0.00000  Uiso   1.00
C783   C     0.85827   0.59470   0.21192   0.00000  Uiso   1.00
C784   C     0.80808   0.90572   0.28631   0.00000  Uiso   1.00
C785   C     0.85289   0.54877   0.21097   0.00000  Uiso   1.00
C786   C     0.81346   0.95155   0.28707   0.00000  Uiso   1.00
C787   C     0.83868   0.52437   0.25012   0.00000  Uiso   1.00
C788   C     0.82821   0.97568   0.24794   0.00000  Uiso   1.00
Cu789  Cu    0.83333   0.74999   0.29822   0.00000  Uiso   1.00
Cu790  Cu    0.83333   0.75000   0.20179   0.00000  Uiso   1.00
H791   H     0.84059   0.52815   0.32604   0.00000  Uiso   1.00
H792   H     0.82727   0.97132   0.17210   0.00000  Uiso   1.00
H793   H     0.86311   0.53238   0.18025   0.00000  Uiso   1.00
H794   H     0.80249   0.96804   0.31746   0.00000  Uiso   1.00
H795   H     0.89188   0.80262   0.04892   0.00000  Uiso   1.00
H796   H     0.80503   0.68438   0.45791   0.00000  Uiso   1.00
H797   H     0.88347   0.80426   0.13011   0.00000  Uiso   1.00
H798   H     0.79875   0.68744   0.37402   0.00000  Uiso   1.00
N799   N     0.83333   0.75001   0.12935   0.00000  Uiso   1.00
N800   N     0.83333   0.74999   0.37066   0.00000  Uiso   1.00
O801   O     0.83334   0.68572   0.29072   0.00000  Uiso   1.00
O802   O     0.83333   0.81427   0.20929   0.00000  Uiso   1.00
O803   O     0.83334   0.68573   0.20928   0.00000  Uiso   1.00
O804   O     0.83333   0.81427   0.29072   0.00000  Uiso   1.00
O805   O     0.75828   0.74999   0.28132   0.00000  Uiso   1.00
O806   O     0.90839   0.75000   0.21868   0.00000  Uiso   1.00
O807   O     0.75828   0.75000   0.19989   0.00000  Uiso   1.00
O808   O     0.90839   0.75000   0.30012   0.00000  Uiso   1.00
C809   C     0.99542   0.79694   0.20265   0.00000  Uiso   1.00
C810   C     0.97660   0.83453   0.22207   0.00000  Uiso   1.00
C811   C     0.96118   0.87018   0.19289   0.00000  Uiso   1.00
C812   C     0.96352   0.86835   0.14399   0.00000  Uiso   1.00
C813   C     0.97982   0.83047   0.12429   0.00000  Uiso   1.00
C814   C     0.99617   0.79506   0.15331   0.00000  Uiso   1.00
H815   H     0.97439   0.83650   0.25989   0.00000  Uiso   1.00
H816   H     0.94748   0.89918   0.20818   0.00000  Uiso   1.00
H817   H     0.95228   0.89596   0.12116   0.00000  Uiso   1.00
H818   H     0.97975   0.82841   0.08647   0.00000  Uiso   1.00
H819   H     0.67604   0.76649   0.13709   0.00000  Uiso   1.00
C820   C     0.67109   0.70511   0.29941   0.00000  Uiso   1.00
C821   C     0.67685   0.71140   0.34871   0.00000  Uiso   1.00
C822   C     0.69657   0.67829   0.37930   0.00000  Uiso   1.00
C823   C     0.70789   0.63783   0.36152   0.00000  Uiso   1.00
C824   C     0.70206   0.63114   0.31251   0.00000  Uiso   1.00
C825   C     0.68420   0.66482   0.28157   0.00000  Uiso   1.00
H826   H     0.99980   0.74172   0.36366   0.00000  Uiso   1.00
H827   H     0.70326   0.68415   0.41684   0.00000  Uiso   1.00
H828   H     0.72156   0.61198   0.38582   0.00000  Uiso   1.00
H829   H     0.71162   0.60004   0.29849   0.00000  Uiso   1.00
H830   H     0.68014   0.65947   0.24378   0.00000  Uiso   1.00
C831   C     0.85433   0.61034   0.34444   0.00000  Uiso   1.00
C832   C     0.89694   0.63791   0.35705   0.00000  Uiso   1.00
C833   C     0.91012   0.64995   0.40437   0.00000  Uiso   1.00
C834   C     0.88289   0.63272   0.43992   0.00000  Uiso   1.00
C835   C     0.84086   0.60490   0.42802   0.00000  Uiso   1.00
C836   C     0.82624   0.59418   0.38054   0.00000  Uiso   1.00
H837   H     0.92010   0.64973   0.33032   0.00000  Uiso   1.00
H838   H     0.94135   0.67272   0.41352   0.00000  Uiso   1.00
H839   H     0.89335   0.64213   0.47648   0.00000  Uiso   1.00
H840   H     0.81946   0.59181   0.45551   0.00000  Uiso   1.00
H841   H     0.79394   0.57204   0.37207   0.00000  Uiso   1.00
C842   C     0.81485   0.88851   0.15429   0.00000  Uiso   1.00
C843   C     0.84338   0.90479   0.11867   0.00000  Uiso   1.00
C844   C     0.83133   0.89197   0.07154   0.00000  Uiso   1.00
C845   C     0.79220   0.86126   0.05943   0.00000  Uiso   1.00
C846   C     0.76417   0.84420   0.09444   0.00000  Uiso   1.00
C847   C     0.77402   0.85904   0.14123   0.00000  Uiso   1.00
H848   H     0.87396   0.92868   0.12706   0.00000  Uiso   1.00
H849   H     0.85212   0.90636   0.04449   0.00000  Uiso   1.00
H850   H     0.78391   0.85039   0.02308   0.00000  Uiso   1.00
H851   H     0.73486   0.81951   0.08520   0.00000  Uiso   1.00
H852   H     0.75029   0.84733   0.16751   0.00000  Uiso   1.00
C853   C     0.88151   0.61716   0.17204   0.00000  Uiso   1.00
C854   C     0.86975   0.60342   0.12460   0.00000  Uiso   1.00
C855   C     0.89395   0.62348   0.08830   0.00000  Uiso   1.00
C856   C     0.92765   0.65901   0.09830   0.00000  Uiso   1.00
C857   C     0.93964   0.67284   0.14502   0.00000  Uiso   1.00
C858   C     0.91839   0.65089   0.18177   0.00000  Uiso   1.00
H859   H     0.84194   0.57731   0.11548   0.00000  Uiso   1.00
H860   H     0.88625   0.61163   0.05233   0.00000  Uiso   1.00
H861   H     0.94479   0.67561   0.07005   0.00000  Uiso   1.00
H862   H     0.96634   0.69984   0.15307   0.00000  Uiso   1.00
H863   H     0.92938   0.66115   0.21790   0.00000  Uiso   1.00
C864   C     0.78194   0.88365   0.32435   0.00000  Uiso   1.00
C865   C     0.74327   0.85218   0.31170   0.00000  Uiso   1.00
C866   C     0.71751   0.83146   0.34621   0.00000  Uiso   1.00
C867   C     0.72858   0.84300   0.39378   0.00000  Uiso   1.00
C868   C     0.76479   0.87608   0.40674   0.00000  Uiso   1.00
C869   C     0.79202   0.89600   0.37239   0.00000  Uiso   1.00
H870   H     0.73350   0.84341   0.27491   0.00000  Uiso   1.00
H871   H     0.68802   0.80740   0.33567   0.00000  Uiso   1.00
H872   H     0.70833   0.82685   0.42025   0.00000  Uiso   1.00
H873   H     0.77150   0.88634   0.44337   0.00000  Uiso   1.00
H874   H     0.82096   0.92074   0.38336   0.00000  Uiso   1.00
O875   O     0.79260   0.67945   0.12485   0.00000  Uiso   1.00
C876   C     0.74021   0.67436   0.12832   0.00000  Uiso   1.00
H877   H     0.71917   0.66233   0.09507   0.00000  Uiso   1.00
H878   H     0.72296   0.70506   0.13738   0.00000  Uiso   1.00
C879   C     0.73235   0.63861   0.16512   0.00000  Uiso   1.00
H880   H     0.74575   0.65043   0.20123   0.00000  Uiso   1.00
H881   H     0.69184   0.62878   0.16362   0.00000  Uiso   1.00
H882   H     0.75353   0.60909   0.15799   0.00000  Uiso   1.00
O883   O     0.86722   0.82395   0.37388   0.00000  Uiso   1.00
C884   C     0.91813   0.83029   0.36476   0.00000  Uiso   1.00
H885   H     0.92261   0.81920   0.32883   0.00000  Uiso   1.00
H886   H     0.94593   0.81301   0.39001   0.00000  Uiso   1.00
C887   C     0.93121   0.87936   0.36377   0.00000  Uiso   1.00
H888   H     0.92624   0.89472   0.39790   0.00000  Uiso   1.00
H889   H     0.97089   0.88510   0.35664   0.00000  Uiso   1.00
H890   H     0.90633   0.89574   0.33506   0.00000  Uiso   1.00
C891   C     0.76301   0.69143   0.02663   0.00000  Uiso   1.00
C892   C     0.71512   0.70894   0.01442   0.00000  Uiso   1.00
C893   C     0.67346   0.68107   0.00036   0.00000  Uiso   1.00
C894   C     0.67964   0.63588   0.49667   0.00000  Uiso   1.00
C895   C     0.72735   0.61835   0.00757   0.00000  Uiso   1.00
C896   C     0.76865   0.64579   0.02347   0.00000  Uiso   1.00
H897   H     0.70967   0.74360   0.01864   0.00000  Uiso   1.00
H898   H     0.96963   0.69439   0.49271   0.00000  Uiso   1.00
H899   H     0.98085   0.61431   0.48572   0.00000  Uiso   1.00
H900   H     0.73207   0.58336   0.00502   0.00000  Uiso   1.00
H901   H     0.80473   0.63156   0.03385   0.00000  Uiso   1.00
C902   C     0.90217   0.81489   0.46960   0.00000  Uiso   1.00
C903   C     0.89122   0.85896   0.47599   0.00000  Uiso   1.00
C904   C     0.92975   0.88907   0.49291   0.00000  Uiso   1.00
C905   C     0.97948   0.87555   0.00264   0.00000  Uiso   1.00
C906   C     0.99061   0.83173   0.49633   0.00000  Uiso   1.00
C907   C     0.95214   0.80141   0.48044   0.00000  Uiso   1.00
H908   H     0.85332   0.87006   0.46723   0.00000  Uiso   1.00
H909   H     0.92126   0.92315   0.49735   0.00000  Uiso   1.00
H910   H     0.67605   0.89895   0.01507   0.00000  Uiso   1.00
H911   H     0.69578   0.82128   0.00350   0.00000  Uiso   1.00
H912   H     0.96148   0.76793   0.47431   0.00000  Uiso   1.00
C913   C     0.17142   0.16538   0.75102   0.00000  Uiso   1.00
C914   C     0.16251   0.33471   0.74889   0.00000  Uiso   1.00
C915   C     0.19899   0.27866   0.55946   0.00000  Uiso   1.00
C916   C     0.15069   0.21470   0.94380   0.00000  Uiso   1.00
C917   C     0.19542   0.27982   0.60833   0.00000  Uiso   1.00
C918   C     0.14809   0.21539   0.89404   0.00000  Uiso   1.00
C919   C     0.13925   0.21833   0.60248   0.00000  Uiso   1.00
C920   C     0.19114   0.28419   0.89641   0.00000  Uiso   1.00
C921   C     0.13708   0.21929   0.55176   0.00000  Uiso   1.00
C922   C     0.19687   0.28344   0.94718   0.00000  Uiso   1.00
C923   C     0.16963   0.24895   0.52811   0.00000  Uiso   1.00
C924   C     0.17266   0.24941   0.97301   0.00000  Uiso   1.00
C925   C     0.06840   0.25171   0.73821   0.00000  Uiso   1.00
C926   C     0.26477   0.24819   0.76184   0.00000  Uiso   1.00
C927   C     0.01420   0.25979   0.73422   0.00000  Uiso   1.00
C928   C     0.31885   0.24079   0.76620   0.00000  Uiso   1.00
C929   C     0.17327   0.04643   0.79311   0.00000  Uiso   1.00
C930   C     0.16076   0.45329   0.70512   0.00000  Uiso   1.00
C931   C     0.17802   0.09213   0.79565   0.00000  Uiso   1.00
C932   C     0.15620   0.40750   0.70297   0.00000  Uiso   1.00
C933   C     0.18055   0.11721   0.75304   0.00000  Uiso   1.00
C934   C     0.15349   0.38288   0.74596   0.00000  Uiso   1.00
C935   C     0.19160   0.09470   0.71192   0.00000  Uiso   1.00
C936   C     0.14141   0.40572   0.78631   0.00000  Uiso   1.00
C937   C     0.18622   0.04877   0.71097   0.00000  Uiso   1.00
C938   C     0.14679   0.45155   0.78707   0.00000  Uiso   1.00
C939   C     0.17201   0.02437   0.75012   0.00000  Uiso   1.00
C940   C     0.16154   0.47568   0.74794   0.00000  Uiso   1.00
Cu941  Cu    0.16667   0.24999   0.79822   0.00000  Uiso   1.00
Cu942  Cu    0.16667   0.25000   0.70179   0.00000  Uiso   1.00
H943   H     0.17392   0.02815   0.82604   0.00000  Uiso   1.00
H944   H     0.16060   0.47132   0.67210   0.00000  Uiso   1.00
H945   H     0.19644   0.03238   0.68025   0.00000  Uiso   1.00
H946   H     0.13583   0.46804   0.81746   0.00000  Uiso   1.00
H947   H     0.22521   0.30262   0.54892   0.00000  Uiso   1.00
H948   H     0.13836   0.18438   0.95791   0.00000  Uiso   1.00
H949   H     0.21680   0.30426   0.63011   0.00000  Uiso   1.00
H950   H     0.13209   0.18744   0.87402   0.00000  Uiso   1.00
N951   N     0.16667   0.25001   0.62935   0.00000  Uiso   1.00
N952   N     0.16667   0.24999   0.87066   0.00000  Uiso   1.00
O953   O     0.16667   0.18572   0.79072   0.00000  Uiso   1.00
O954   O     0.16666   0.31427   0.70929   0.00000  Uiso   1.00
O955   O     0.16667   0.18573   0.70928   0.00000  Uiso   1.00
O956   O     0.16666   0.31427   0.79072   0.00000  Uiso   1.00
O957   O     0.09161   0.24999   0.78132   0.00000  Uiso   1.00
O958   O     0.24172   0.25000   0.71868   0.00000  Uiso   1.00
O959   O     0.09161   0.25000   0.69989   0.00000  Uiso   1.00
O960   O     0.24172   0.25000   0.80012   0.00000  Uiso   1.00
C961   C     0.32875   0.29694   0.70265   0.00000  Uiso   1.00
C962   C     0.30993   0.33453   0.72207   0.00000  Uiso   1.00
C963   C     0.29452   0.37018   0.69289   0.00000  Uiso   1.00
C964   C     0.29685   0.36835   0.64399   0.00000  Uiso   1.00
C965   C     0.31315   0.33047   0.62429   0.00000  Uiso   1.00
C966   C     0.32951   0.29506   0.65331   0.00000  Uiso   1.00
H967   H     0.30773   0.33650   0.75989   0.00000  Uiso   1.00
H968   H     0.28082   0.39918   0.70818   0.00000  Uiso   1.00
H969   H     0.28561   0.39596   0.62116   0.00000  Uiso   1.00
H970   H     0.31308   0.32841   0.58647   0.00000  Uiso   1.00
H971   H     0.00938   0.26649   0.63709   0.00000  Uiso   1.00
C972   C     0.00443   0.20511   0.79941   0.00000  Uiso   1.00
C973   C     0.01018   0.21140   0.84871   0.00000  Uiso   1.00
C974   C     0.02990   0.17829   0.87930   0.00000  Uiso   1.00
C975   C     0.04122   0.13783   0.86152   0.00000  Uiso   1.00
C976   C     0.03539   0.13114   0.81251   0.00000  Uiso   1.00
C977   C     0.01753   0.16482   0.78157   0.00000  Uiso   1.00
H978   H     0.33313   0.24172   0.86366   0.00000  Uiso   1.00
H979   H     0.03659   0.18415   0.91684   0.00000  Uiso   1.00
H980   H     0.05489   0.11198   0.88582   0.00000  Uiso   1.00
H981   H     0.04495   0.10004   0.79849   0.00000  Uiso   1.00
H982   H     0.01347   0.15947   0.74378   0.00000  Uiso   1.00
C983   C     0.18766   0.11034   0.84444   0.00000  Uiso   1.00
C984   C     0.23027   0.13791   0.85705   0.00000  Uiso   1.00
C985   C     0.24345   0.14995   0.90437   0.00000  Uiso   1.00
C986   C     0.21622   0.13272   0.93992   0.00000  Uiso   1.00
C987   C     0.17419   0.10490   0.92802   0.00000  Uiso   1.00
C988   C     0.15957   0.09418   0.88054   0.00000  Uiso   1.00
H989   H     0.25344   0.14973   0.83032   0.00000  Uiso   1.00
H990   H     0.27468   0.17272   0.91352   0.00000  Uiso   1.00
H991   H     0.22668   0.14213   0.97648   0.00000  Uiso   1.00
H992   H     0.15279   0.09181   0.95551   0.00000  Uiso   1.00
H993   H     0.12728   0.07204   0.87207   0.00000  Uiso   1.00
C994   C     0.14818   0.38851   0.65429   0.00000  Uiso   1.00
C995   C     0.17671   0.40479   0.61867   0.00000  Uiso   1.00
C996   C     0.16467   0.39197   0.57154   0.00000  Uiso   1.00
C997   C     0.12553   0.36126   0.55943   0.00000  Uiso   1.00
C998   C     0.09751   0.34420   0.59444   0.00000  Uiso   1.00
C999   C     0.10736   0.35904   0.64123   0.00000  Uiso   1.00
H1000  H     0.20729   0.42868   0.62706   0.00000  Uiso   1.00
H1001  H     0.18546   0.40636   0.54449   0.00000  Uiso   1.00
H1002  H     0.11725   0.35039   0.52308   0.00000  Uiso   1.00
H1003  H     0.06819   0.31951   0.58520   0.00000  Uiso   1.00
H1004  H     0.08362   0.34733   0.66751   0.00000  Uiso   1.00
C1005  C     0.21484   0.11716   0.67204   0.00000  Uiso   1.00
C1006  C     0.20309   0.10342   0.62460   0.00000  Uiso   1.00
C1007  C     0.22729   0.12348   0.58830   0.00000  Uiso   1.00
C1008  C     0.26099   0.15901   0.59830   0.00000  Uiso   1.00
C1009  C     0.27297   0.17284   0.64502   0.00000  Uiso   1.00
C1010  C     0.25172   0.15089   0.68177   0.00000  Uiso   1.00
H1011  H     0.17527   0.07731   0.61548   0.00000  Uiso   1.00
H1012  H     0.21958   0.11163   0.55233   0.00000  Uiso   1.00
H1013  H     0.27813   0.17561   0.57005   0.00000  Uiso   1.00
H1014  H     0.29967   0.19984   0.65307   0.00000  Uiso   1.00
H1015  H     0.26271   0.16115   0.71790   0.00000  Uiso   1.00
C1016  C     0.11528   0.38365   0.82435   0.00000  Uiso   1.00
C1017  C     0.07661   0.35218   0.81170   0.00000  Uiso   1.00
C1018  C     0.05085   0.33146   0.84621   0.00000  Uiso   1.00
C1019  C     0.06191   0.34300   0.89378   0.00000  Uiso   1.00
C1020  C     0.09812   0.37608   0.90674   0.00000  Uiso   1.00
C1021  C     0.12536   0.39600   0.87239   0.00000  Uiso   1.00
H1022  H     0.06683   0.34341   0.77491   0.00000  Uiso   1.00
H1023  H     0.02135   0.30740   0.83567   0.00000  Uiso   1.00
H1024  H     0.04166   0.32685   0.92025   0.00000  Uiso   1.00
H1025  H     0.10484   0.38634   0.94337   0.00000  Uiso   1.00
H1026  H     0.15430   0.42074   0.88336   0.00000  Uiso   1.00
O1027  O     0.12593   0.17945   0.62485   0.00000  Uiso   1.00
C1028  C     0.07355   0.17436   0.62832   0.00000  Uiso   1.00
H1029  H     0.05250   0.16233   0.59507   0.00000  Uiso   1.00
H1030  H     0.05629   0.20506   0.63738   0.00000  Uiso   1.00
C1031  C     0.06568   0.13861   0.66512   0.00000  Uiso   1.00
H1032  H     0.07908   0.15043   0.70123   0.00000  Uiso   1.00
H1033  H     0.02517   0.12878   0.66362   0.00000  Uiso   1.00
H1034  H     0.08687   0.10909   0.65799   0.00000  Uiso   1.00
O1035  O     0.20055   0.32395   0.87388   0.00000  Uiso   1.00
C1036  C     0.25146   0.33029   0.86476   0.00000  Uiso   1.00
H1037  H     0.25594   0.31920   0.82883   0.00000  Uiso   1.00
H1038  H     0.27926   0.31301   0.89001   0.00000  Uiso   1.00
C1039  C     0.26454   0.37936   0.86377   0.00000  Uiso   1.00
H1040  H     0.25957   0.39472   0.89790   0.00000  Uiso   1.00
H1041  H     0.30423   0.38510   0.85664   0.00000  Uiso   1.00
H1042  H     0.23966   0.39574   0.83506   0.00000  Uiso   1.00
C1043  C     0.09634   0.19143   0.52663   0.00000  Uiso   1.00
C1044  C     0.04845   0.20894   0.51442   0.00000  Uiso   1.00
C1045  C     0.00680   0.18107   0.50036   0.00000  Uiso   1.00
C1046  C     0.01297   0.13588   0.99667   0.00000  Uiso   1.00
C1047  C     0.06068   0.11835   0.50757   0.00000  Uiso   1.00
C1048  C     0.10198   0.14579   0.52347   0.00000  Uiso   1.00
H1049  H     0.04301   0.24360   0.51864   0.00000  Uiso   1.00
H1050  H     0.30296   0.19439   0.99271   0.00000  Uiso   1.00
H1051  H     0.31419   0.11431   0.98572   0.00000  Uiso   1.00
H1052  H     0.06541   0.08336   0.50502   0.00000  Uiso   1.00
H1053  H     0.13807   0.13156   0.53385   0.00000  Uiso   1.00
C1054  C     0.23550   0.31489   0.96960   0.00000  Uiso   1.00
C1055  C     0.22456   0.35896   0.97599   0.00000  Uiso   1.00
C1056  C     0.26308   0.38907   0.99291   0.00000  Uiso   1.00
C1057  C     0.31281   0.37555   0.50264   0.00000  Uiso   1.00
C1058  C     0.32394   0.33173   0.99633   0.00000  Uiso   1.00
C1059  C     0.28548   0.30141   0.98044   0.00000  Uiso   1.00
H1060  H     0.18665   0.37006   0.96723   0.00000  Uiso   1.00
H1061  H     0.25459   0.42315   0.99735   0.00000  Uiso   1.00
H1062  H     0.00938   0.39895   0.51507   0.00000  Uiso   1.00
H1063  H     0.02912   0.32128   0.50350   0.00000  Uiso   1.00
H1064  H     0.29481   0.26793   0.97431   0.00000  Uiso   1.00
C1065  C     0.50475   0.16538   0.75102   0.00000  Uiso   1.00
C1066  C     0.49584   0.33471   0.74889   0.00000  Uiso   1.00
C1067  C     0.53233   0.27866   0.55946   0.00000  Uiso   1.00
C1068  C     0.48402   0.21470   0.94380   0.00000  Uiso   1.00
C1069  C     0.52876   0.27982   0.60833   0.00000  Uiso   1.00
C1070  C     0.48142   0.21539   0.89404   0.00000  Uiso   1.00
C1071  C     0.47259   0.21833   0.60248   0.00000  Uiso   1.00
C1072  C     0.52448   0.28419   0.89641   0.00000  Uiso   1.00
C1073  C     0.47041   0.21929   0.55176   0.00000  Uiso   1.00
C1074  C     0.53020   0.28344   0.94718   0.00000  Uiso   1.00
C1075  C     0.50296   0.24895   0.52811   0.00000  Uiso   1.00
C1076  C     0.50599   0.24941   0.97301   0.00000  Uiso   1.00
C1077  C     0.40173   0.25171   0.73821   0.00000  Uiso   1.00
C1078  C     0.59810   0.24819   0.76184   0.00000  Uiso   1.00
C1079  C     0.34753   0.25979   0.73422   0.00000  Uiso   1.00
C1080  C     0.65218   0.24079   0.76620   0.00000  Uiso   1.00
C1081  C     0.50661   0.04643   0.79311   0.00000  Uiso   1.00
C1082  C     0.49409   0.45329   0.70512   0.00000  Uiso   1.00
C1083  C     0.51135   0.09213   0.79565   0.00000  Uiso   1.00
C1084  C     0.48954   0.40750   0.70297   0.00000  Uiso   1.00
C1085  C     0.51388   0.11721   0.75304   0.00000  Uiso   1.00
C1086  C     0.48683   0.38288   0.74596   0.00000  Uiso   1.00
C1087  C     0.52493   0.09470   0.71192   0.00000  Uiso   1.00
C1088  C     0.47475   0.40572   0.78631   0.00000  Uiso   1.00
C1089  C     0.51955   0.04877   0.71097   0.00000  Uiso   1.00
C1090  C     0.48012   0.45155   0.78707   0.00000  Uiso   1.00
C1091  C     0.50534   0.02437   0.75012   0.00000  Uiso   1.00
C1092  C     0.49487   0.47568   0.74794   0.00000  Uiso   1.00
Cu1093 Cu    0.50000   0.24999   0.79822   0.00000  Uiso   1.00
Cu1094 Cu    0.50000   0.25000   0.70179   0.00000  Uiso   1.00
H1095  H     0.50725   0.02815   0.82604   0.00000  Uiso   1.00
H1096  H     0.49394   0.47132   0.67210   0.00000  Uiso   1.00
H1097  H     0.52977   0.03238   0.68025   0.00000  Uiso   1.00
H1098  H     0.46916   0.46804   0.81746   0.00000  Uiso   1.00
H1099  H     0.55854   0.30262   0.54892   0.00000  Uiso   1.00
H1100  H     0.47169   0.18438   0.95791   0.00000  Uiso   1.00
H1101  H     0.55013   0.30426   0.63011   0.00000  Uiso   1.00
H1102  H     0.46542   0.18744   0.87402   0.00000  Uiso   1.00
N1103  N     0.50000   0.25001   0.62935   0.00000  Uiso   1.00
N1104  N     0.50000   0.24999   0.87066   0.00000  Uiso   1.00
O1105  O     0.50000   0.18572   0.79072   0.00000  Uiso   1.00
O1106  O     0.50000   0.31427   0.70929   0.00000  Uiso   1.00
O1107  O     0.50000   0.18573   0.70928   0.00000  Uiso   1.00
O1108  O     0.50000   0.31427   0.79072   0.00000  Uiso   1.00
O1109  O     0.42495   0.24999   0.78132   0.00000  Uiso   1.00
O1110  O     0.57505   0.25000   0.71868   0.00000  Uiso   1.00
O1111  O     0.42495   0.25000   0.69989   0.00000  Uiso   1.00
O1112  O     0.57505   0.25000   0.80012   0.00000  Uiso   1.00
C1113  C     0.66209   0.29694   0.70265   0.00000  Uiso   1.00
C1114  C     0.64327   0.33453   0.72207   0.00000  Uiso   1.00
C1115  C     0.62785   0.37018   0.69289   0.00000  Uiso   1.00
C1116  C     0.63018   0.36835   0.64399   0.00000  Uiso   1.00
C1117  C     0.64648   0.33047   0.62429   0.00000  Uiso   1.00
C1118  C     0.66284   0.29506   0.65331   0.00000  Uiso   1.00
H1119  H     0.64106   0.33650   0.75989   0.00000  Uiso   1.00
H1120  H     0.61415   0.39918   0.70818   0.00000  Uiso   1.00
H1121  H     0.61894   0.39596   0.62116   0.00000  Uiso   1.00
H1122  H     0.64642   0.32841   0.58647   0.00000  Uiso   1.00
H1123  H     0.34271   0.26649   0.63709   0.00000  Uiso   1.00
C1124  C     0.33776   0.20511   0.79941   0.00000  Uiso   1.00
C1125  C     0.34352   0.21140   0.84871   0.00000  Uiso   1.00
C1126  C     0.36323   0.17829   0.87930   0.00000  Uiso   1.00
C1127  C     0.37456   0.13783   0.86152   0.00000  Uiso   1.00
C1128  C     0.36873   0.13114   0.81251   0.00000  Uiso   1.00
C1129  C     0.35086   0.16482   0.78157   0.00000  Uiso   1.00
H1130  H     0.66647   0.24172   0.86366   0.00000  Uiso   1.00
H1131  H     0.36993   0.18415   0.91684   0.00000  Uiso   1.00
H1132  H     0.38823   0.11198   0.88582   0.00000  Uiso   1.00
H1133  H     0.37829   0.10004   0.79849   0.00000  Uiso   1.00
H1134  H     0.34680   0.15947   0.74378   0.00000  Uiso   1.00
C1135  C     0.52099   0.11034   0.84444   0.00000  Uiso   1.00
C1136  C     0.56360   0.13791   0.85705   0.00000  Uiso   1.00
C1137  C     0.57679   0.14995   0.90437   0.00000  Uiso   1.00
C1138  C     0.54955   0.13272   0.93992   0.00000  Uiso   1.00
C1139  C     0.50753   0.10490   0.92802   0.00000  Uiso   1.00
C1140  C     0.49291   0.09418   0.88054   0.00000  Uiso   1.00
H1141  H     0.58677   0.14973   0.83032   0.00000  Uiso   1.00
H1142  H     0.60801   0.17272   0.91352   0.00000  Uiso   1.00
H1143  H     0.56002   0.14213   0.97648   0.00000  Uiso   1.00
H1144  H     0.48612   0.09181   0.95551   0.00000  Uiso   1.00
H1145  H     0.46061   0.07204   0.87207   0.00000  Uiso   1.00
C1146  C     0.48152   0.38851   0.65429   0.00000  Uiso   1.00
C1147  C     0.51004   0.40479   0.61867   0.00000  Uiso   1.00
C1148  C     0.49800   0.39197   0.57154   0.00000  Uiso   1.00
C1149  C     0.45886   0.36126   0.55943   0.00000  Uiso   1.00
C1150  C     0.43084   0.34420   0.59444   0.00000  Uiso   1.00
C1151  C     0.44069   0.35904   0.64123   0.00000  Uiso   1.00
H1152  H     0.54062   0.42868   0.62706   0.00000  Uiso   1.00
H1153  H     0.51879   0.40636   0.54449   0.00000  Uiso   1.00
H1154  H     0.45058   0.35039   0.52308   0.00000  Uiso   1.00
H1155  H     0.40153   0.31951   0.58520   0.00000  Uiso   1.00
H1156  H     0.41696   0.34733   0.66751   0.00000  Uiso   1.00
C1157  C     0.54817   0.11716   0.67204   0.00000  Uiso   1.00
C1158  C     0.53642   0.10342   0.62460   0.00000  Uiso   1.00
C1159  C     0.56062   0.12348   0.58830   0.00000  Uiso   1.00
C1160  C     0.59432   0.15901   0.59830   0.00000  Uiso   1.00
C1161  C     0.60630   0.17284   0.64502   0.00000  Uiso   1.00
C1162  C     0.58505   0.15089   0.68177   0.00000  Uiso   1.00
H1163  H     0.50861   0.07731   0.61548   0.00000  Uiso   1.00
H1164  H     0.55292   0.11163   0.55233   0.00000  Uiso   1.00
H1165  H     0.61146   0.17561   0.57005   0.00000  Uiso   1.00
H1166  H     0.63301   0.19984   0.65307   0.00000  Uiso   1.00
H1167  H     0.59604   0.16115   0.71790   0.00000  Uiso   1.00
C1168  C     0.44861   0.38365   0.82435   0.00000  Uiso   1.00
C1169  C     0.40994   0.35218   0.81170   0.00000  Uiso   1.00
C1170  C     0.38418   0.33146   0.84621   0.00000  Uiso   1.00
C1171  C     0.39525   0.34300   0.89378   0.00000  Uiso   1.00
C1172  C     0.43146   0.37608   0.90674   0.00000  Uiso   1.00
C1173  C     0.45869   0.39600   0.87239   0.00000  Uiso   1.00
H1174  H     0.40016   0.34341   0.77491   0.00000  Uiso   1.00
H1175  H     0.35469   0.30740   0.83567   0.00000  Uiso   1.00
H1176  H     0.37500   0.32685   0.92025   0.00000  Uiso   1.00
H1177  H     0.43817   0.38634   0.94337   0.00000  Uiso   1.00
H1178  H     0.48763   0.42074   0.88336   0.00000  Uiso   1.00
O1179  O     0.45926   0.17945   0.62485   0.00000  Uiso   1.00
C1180  C     0.40688   0.17436   0.62832   0.00000  Uiso   1.00
H1181  H     0.38584   0.16233   0.59507   0.00000  Uiso   1.00
H1182  H     0.38962   0.20506   0.63738   0.00000  Uiso   1.00
C1183  C     0.39902   0.13861   0.66512   0.00000  Uiso   1.00
H1184  H     0.41242   0.15043   0.70123   0.00000  Uiso   1.00
H1185  H     0.35851   0.12878   0.66362   0.00000  Uiso   1.00
H1186  H     0.42020   0.10909   0.65799   0.00000  Uiso   1.00
O1187  O     0.53389   0.32395   0.87388   0.00000  Uiso   1.00
C1188  C     0.58480   0.33029   0.86476   0.00000  Uiso   1.00
H1189  H     0.58928   0.31920   0.82883   0.00000  Uiso   1.00
H1190  H     0.61259   0.31301   0.89001   0.00000  Uiso   1.00
C1191  C     0.59788   0.37936   0.86377   0.00000  Uiso   1.00
H1192  H     0.59291   0.39472   0.89790   0.00000  Uiso   1.00
H1193  H     0.63756   0.38510   0.85664   0.00000  Uiso   1.00
H1194  H     0.57299   0.39574   0.83506   0.00000  Uiso   1.00
C1195  C     0.42967   0.19143   0.52663   0.00000  Uiso   1.00
C1196  C     0.38179   0.20894   0.51442   0.00000  Uiso   1.00
C1197  C     0.34013   0.18107   0.50036   0.00000  Uiso   1.00
C1198  C     0.34630   0.13588   0.99667   0.00000  Uiso   1.00
C1199  C     0.39401   0.11835   0.50757   0.00000  Uiso   1.00
C1200  C     0.43531   0.14579   0.52347   0.00000  Uiso   1.00
H1201  H     0.37634   0.24360   0.51864   0.00000  Uiso   1.00
H1202  H     0.63630   0.19439   0.99271   0.00000  Uiso   1.00
H1203  H     0.64752   0.11431   0.98572   0.00000  Uiso   1.00
H1204  H     0.39874   0.08336   0.50502   0.00000  Uiso   1.00
H1205  H     0.47140   0.13156   0.53385   0.00000  Uiso   1.00
C1206  C     0.56883   0.31489   0.96960   0.00000  Uiso   1.00
C1207  C     0.55789   0.35896   0.97599   0.00000  Uiso   1.00
C1208  C     0.59641   0.38907   0.99291   0.00000  Uiso   1.00
C1209  C     0.64615   0.37555   0.50264   0.00000  Uiso   1.00
C1210  C     0.65728   0.33173   0.99633   0.00000  Uiso   1.00
C1211  C     0.61881   0.30141   0.98044   0.00000  Uiso   1.00
H1212  H     0.51998   0.37006   0.96723   0.00000  Uiso   1.00
H1213  H     0.58792   0.42315   0.99735   0.00000  Uiso   1.00
H1214  H     0.34271   0.39895   0.51507   0.00000  Uiso   1.00
H1215  H     0.36245   0.32128   0.50350   0.00000  Uiso   1.00
H1216  H     0.62814   0.26793   0.97431   0.00000  Uiso   1.00
C1217  C     0.83809   0.16538   0.75102   0.00000  Uiso   1.00
C1218  C     0.82917   0.33471   0.74889   0.00000  Uiso   1.00
C1219  C     0.86566   0.27866   0.55946   0.00000  Uiso   1.00
C1220  C     0.81735   0.21470   0.94380   0.00000  Uiso   1.00
C1221  C     0.86209   0.27982   0.60833   0.00000  Uiso   1.00
C1222  C     0.81476   0.21539   0.89404   0.00000  Uiso   1.00
C1223  C     0.80592   0.21833   0.60248   0.00000  Uiso   1.00
C1224  C     0.85781   0.28419   0.89641   0.00000  Uiso   1.00
C1225  C     0.80375   0.21929   0.55176   0.00000  Uiso   1.00
C1226  C     0.86354   0.28344   0.94718   0.00000  Uiso   1.00
C1227  C     0.83630   0.24895   0.52811   0.00000  Uiso   1.00
C1228  C     0.83933   0.24941   0.97301   0.00000  Uiso   1.00
C1229  C     0.73507   0.25171   0.73821   0.00000  Uiso   1.00
C1230  C     0.93144   0.24819   0.76184   0.00000  Uiso   1.00
C1231  C     0.68086   0.25979   0.73422   0.00000  Uiso   1.00
C1232  C     0.98551   0.24079   0.76620   0.00000  Uiso   1.00
C1233  C     0.83994   0.04643   0.79311   0.00000  Uiso   1.00
C1234  C     0.82743   0.45329   0.70512   0.00000  Uiso   1.00
C1235  C     0.84468   0.09213   0.79565   0.00000  Uiso   1.00
C1236  C     0.82287   0.40750   0.70297   0.00000  Uiso   1.00
C1237  C     0.84722   0.11721   0.75304   0.00000  Uiso   1.00
C1238  C     0.82016   0.38288   0.74596   0.00000  Uiso   1.00
C1239  C     0.85827   0.09470   0.71192   0.00000  Uiso   1.00
C1240  C     0.80808   0.40572   0.78631   0.00000  Uiso   1.00
C1241  C     0.85289   0.04877   0.71097   0.00000  Uiso   1.00
C1242  C     0.81346   0.45155   0.78707   0.00000  Uiso   1.00
C1243  C     0.83868   0.02437   0.75012   0.00000  Uiso   1.00
C1244  C     0.82821   0.47568   0.74794   0.00000  Uiso   1.00
Cu1245 Cu    0.83333   0.24999   0.79822   0.00000  Uiso   1.00
Cu1246 Cu    0.83333   0.25000   0.70179   0.00000  Uiso   1.00
H1247  H     0.84059   0.02815   0.82604   0.00000  Uiso   1.00
H1248  H     0.82727   0.47132   0.67210   0.00000  Uiso   1.00
H1249  H     0.86311   0.03238   0.68025   0.00000  Uiso   1.00
H1250  H     0.80249   0.46804   0.81746   0.00000  Uiso   1.00
H1251  H     0.89188   0.30262   0.54892   0.00000  Uiso   1.00
H1252  H     0.80503   0.18438   0.95791   0.00000  Uiso   1.00
H1253  H     0.88347   0.30426   0.63011   0.00000  Uiso   1.00
H1254  H     0.79875   0.18744   0.87402   0.00000  Uiso   1.00
N1255  N     0.83333   0.25001   0.62935   0.00000  Uiso   1.00
N1256  N     0.83333   0.24999   0.87066   0.00000  Uiso   1.00
O1257  O     0.83334   0.18572   0.79072   0.00000  Uiso   1.00
O1258  O     0.83333   0.31427   0.70929   0.00000  Uiso   1.00
O1259  O     0.83334   0.18573   0.70928   0.00000  Uiso   1.00
O1260  O     0.83333   0.31427   0.79072   0.00000  Uiso   1.00
O1261  O     0.75828   0.24999   0.78132   0.00000  Uiso   1.00
O1262  O     0.90839   0.25000   0.71868   0.00000  Uiso   1.00
O1263  O     0.75828   0.25000   0.69989   0.00000  Uiso   1.00
O1264  O     0.90839   0.25000   0.80012   0.00000  Uiso   1.00
C1265  C     0.99542   0.29694   0.70265   0.00000  Uiso   1.00
C1266  C     0.97660   0.33453   0.72207   0.00000  Uiso   1.00
C1267  C     0.96118   0.37018   0.69289   0.00000  Uiso   1.00
C1268  C     0.96352   0.36835   0.64399   0.00000  Uiso   1.00
C1269  C     0.97982   0.33047   0.62429   0.00000  Uiso   1.00
C1270  C     0.99617   0.29506   0.65331   0.00000  Uiso   1.00
H1271  H     0.97439   0.33650   0.75989   0.00000  Uiso   1.00
H1272  H     0.94748   0.39918   0.70818   0.00000  Uiso   1.00
H1273  H     0.95228   0.39596   0.62116   0.00000  Uiso   1.00
H1274  H     0.97975   0.32841   0.58647   0.00000  Uiso   1.00
H1275  H     0.67604   0.26649   0.63709   0.00000  Uiso   1.00
C1276  C     0.67109   0.20511   0.79941   0.00000  Uiso   1.00
C1277  C     0.67685   0.21140   0.84871   0.00000  Uiso   1.00
C1278  C     0.69657   0.17829   0.87930   0.00000  Uiso   1.00
C1279  C     0.70789   0.13783   0.86152   0.00000  Uiso   1.00
C1280  C     0.70206   0.13114   0.81251   0.00000  Uiso   1.00
C1281  C     0.68420   0.16482   0.78157   0.00000  Uiso   1.00
H1282  H     0.99980   0.24172   0.86366   0.00000  Uiso   1.00
H1283  H     0.70326   0.18415   0.91684   0.00000  Uiso   1.00
H1284  H     0.72156   0.11198   0.88582   0.00000  Uiso   1.00
H1285  H     0.71162   0.10004   0.79849   0.00000  Uiso   1.00
H1286  H     0.68014   0.15947   0.74378   0.00000  Uiso   1.00
C1287  C     0.85433   0.11034   0.84444   0.00000  Uiso   1.00
C1288  C     0.89694   0.13791   0.85705   0.00000  Uiso   1.00
C1289  C     0.91012   0.14995   0.90437   0.00000  Uiso   1.00
C1290  C     0.88289   0.13272   0.93992   0.00000  Uiso   1.00
C1291  C     0.84086   0.10490   0.92802   0.00000  Uiso   1.00
C1292  C     0.82624   0.09418   0.88054   0.00000  Uiso   1.00
H1293  H     0.92010   0.14973   0.83032   0.00000  Uiso   1.00
H1294  H     0.94135   0.17272   0.91352   0.00000  Uiso   1.00
H1295  H     0.89335   0.14213   0.97648   0.00000  Uiso   1.00
H1296  H     0.81946   0.09181   0.95551   0.00000  Uiso   1.00
H1297  H     0.79394   0.07204   0.87207   0.00000  Uiso   1.00
C1298  C     0.81485   0.38851   0.65429   0.00000  Uiso   1.00
C1299  C     0.84338   0.40479   0.61867   0.00000  Uiso   1.00
C1300  C     0.83133   0.39197   0.57154   0.00000  Uiso   1.00
C1301  C     0.79220   0.36126   0.55943   0.00000  Uiso   1.00
C1302  C     0.76417   0.34420   0.59444   0.00000  Uiso   1.00
C1303  C     0.77402   0.35904   0.64123   0.00000  Uiso   1.00
H1304  H     0.87396   0.42868   0.62706   0.00000  Uiso   1.00
H1305  H     0.85212   0.40636   0.54449   0.00000  Uiso   1.00
H1306  H     0.78391   0.35039   0.52308   0.00000  Uiso   1.00
H1307  H     0.73486   0.31951   0.58520   0.00000  Uiso   1.00
H1308  H     0.75029   0.34733   0.66751   0.00000  Uiso   1.00
C1309  C     0.88151   0.11716   0.67204   0.00000  Uiso   1.00
C1310  C     0.86975   0.10342   0.62460   0.00000  Uiso   1.00
C1311  C     0.89395   0.12348   0.58830   0.00000  Uiso   1.00
C1312  C     0.92765   0.15901   0.59830   0.00000  Uiso   1.00
C1313  C     0.93964   0.17284   0.64502   0.00000  Uiso   1.00
C1314  C     0.91839   0.15089   0.68177   0.00000  Uiso   1.00
H1315  H     0.84194   0.07731   0.61548   0.00000  Uiso   1.00
H1316  H     0.88625   0.11163   0.55233   0.00000  Uiso   1.00
H1317  H     0.94479   0.17561   0.57005   0.00000  Uiso   1.00
H1318  H     0.96634   0.19984   0.65307   0.00000  Uiso   1.00
H1319  H     0.92938   0.16115   0.71790   0.00000  Uiso   1.00
C1320  C     0.78194   0.38365   0.82435   0.00000  Uiso   1.00
C1321  C     0.74327   0.35218   0.81170   0.00000  Uiso   1.00
C1322  C     0.71751   0.33146   0.84621   0.00000  Uiso   1.00
C1323  C     0.72858   0.34300   0.89378   0.00000  Uiso   1.00
C1324  C     0.76479   0.37608   0.90674   0.00000  Uiso   1.00
C1325  C     0.79202   0.39600   0.87239   0.00000  Uiso   1.00
H1326  H     0.73350   0.34341   0.77491   0.00000  Uiso   1.00
H1327  H     0.68802   0.30740   0.83567   0.00000  Uiso   1.00
H1328  H     0.70833   0.32685   0.92025   0.00000  Uiso   1.00
H1329  H     0.77150   0.38634   0.94337   0.00000  Uiso   1.00
H1330  H     0.82096   0.42074   0.88336   0.00000  Uiso   1.00
O1331  O     0.79260   0.17945   0.62485   0.00000  Uiso   1.00
C1332  C     0.74021   0.17436   0.62832   0.00000  Uiso   1.00
H1333  H     0.71917   0.16233   0.59507   0.00000  Uiso   1.00
H1334  H     0.72296   0.20506   0.63738   0.00000  Uiso   1.00
C1335  C     0.73235   0.13861   0.66512   0.00000  Uiso   1.00
H1336  H     0.74575   0.15043   0.70123   0.00000  Uiso   1.00
H1337  H     0.69184   0.12878   0.66362   0.00000  Uiso   1.00
H1338  H     0.75353   0.10909   0.65799   0.00000  Uiso   1.00
O1339  O     0.86722   0.32395   0.87388   0.00000  Uiso   1.00
C1340  C     0.91813   0.33029   0.86476   0.00000  Uiso   1.00
H1341  H     0.92261   0.31920   0.82883   0.00000  Uiso   1.00
H1342  H     0.94593   0.31301   0.89001   0.00000  Uiso   1.00
C1343  C     0.93121   0.37936   0.86377   0.00000  Uiso   1.00
H1344  H     0.92624   0.39472   0.89790   0.00000  Uiso   1.00
H1345  H     0.97089   0.38510   0.85664   0.00000  Uiso   1.00
H1346  H     0.90633   0.39574   0.83506   0.00000  Uiso   1.00
C1347  C     0.76301   0.19143   0.52663   0.00000  Uiso   1.00
C1348  C     0.71512   0.20894   0.51442   0.00000  Uiso   1.00
C1349  C     0.67346   0.18107   0.50036   0.00000  Uiso   1.00
C1350  C     0.67964   0.13588   0.99667   0.00000  Uiso   1.00
C1351  C     0.72735   0.11835   0.50757   0.00000  Uiso   1.00
C1352  C     0.76865   0.14579   0.52347   0.00000  Uiso   1.00
H1353  H     0.70967   0.24360   0.51864   0.00000  Uiso   1.00
H1354  H     0.96963   0.19439   0.99271   0.00000  Uiso   1.00
H1355  H     0.98085   0.11431   0.98572   0.00000  Uiso   1.00
H1356  H     0.73207   0.08336   0.50502   0.00000  Uiso   1.00
H1357  H     0.80473   0.13156   0.53385   0.00000  Uiso   1.00
C1358  C     0.90217   0.31489   0.96960   0.00000  Uiso   1.00
C1359  C     0.89122   0.35896   0.97599   0.00000  Uiso   1.00
C1360  C     0.92975   0.38907   0.99291   0.00000  Uiso   1.00
C1361  C     0.97948   0.37555   0.50264   0.00000  Uiso   1.00
C1362  C     0.99061   0.33173   0.99633   0.00000  Uiso   1.00
C1363  C     0.95214   0.30141   0.98044   0.00000  Uiso   1.00
H1364  H     0.85332   0.37006   0.96723   0.00000  Uiso   1.00
H1365  H     0.92126   0.42315   0.99735   0.00000  Uiso   1.00
H1366  H     0.67605   0.39895   0.51507   0.00000  Uiso   1.00
H1367  H     0.69578   0.32128   0.50350   0.00000  Uiso   1.00
H1368  H     0.96148   0.26793   0.97431   0.00000  Uiso   1.00
C1369  C     0.17142   0.66538   0.75102   0.00000  Uiso   1.00
C1370  C     0.16251   0.83471   0.74889   0.00000  Uiso   1.00
C1371  C     0.19899   0.77866   0.55946   0.00000  Uiso   1.00
C1372  C     0.15069   0.71470   0.94380   0.00000  Uiso   1.00
C1373  C     0.19542   0.77982   0.60833   0.00000  Uiso   1.00
C1374  C     0.14809   0.71539   0.89404   0.00000  Uiso   1.00
C1375  C     0.13925   0.71833   0.60248   0.00000  Uiso   1.00
C1376  C     0.19114   0.78419   0.89641   0.00000  Uiso   1.00
C1377  C     0.13708   0.71929   0.55176   0.00000  Uiso   1.00
C1378  C     0.19687   0.78344   0.94718   0.00000  Uiso   1.00
C1379  C     0.16963   0.74895   0.52811   0.00000  Uiso   1.00
C1380  C     0.17266   0.74941   0.97301   0.00000  Uiso   1.00
C1381  C     0.06840   0.75171   0.73821   0.00000  Uiso   1.00
C1382  C     0.26477   0.74819   0.76184   0.00000  Uiso   1.00
C1383  C     0.01420   0.75979   0.73422   0.00000  Uiso   1.00
C1384  C     0.31885   0.74079   0.76620   0.00000  Uiso   1.00
C1385  C     0.17327   0.54643   0.79311   0.00000  Uiso   1.00
C1386  C     0.16076   0.95329   0.70512   0.00000  Uiso   1.00
C1387  C     0.17802   0.59213   0.79565   0.00000  Uiso   1.00
C1388  C     0.15620   0.90750   0.70297   0.00000  Uiso   1.00
C1389  C     0.18055   0.61721   0.75304   0.00000  Uiso   1.00
C1390  C     0.15349   0.88288   0.74596   0.00000  Uiso   1.00
C1391  C     0.19160   0.59470   0.71192   0.00000  Uiso   1.00
C1392  C     0.14141   0.90572   0.78631   0.00000  Uiso   1.00
C1393  C     0.18622   0.54877   0.71097   0.00000  Uiso   1.00
C1394  C     0.14679   0.95155   0.78707   0.00000  Uiso   1.00
C1395  C     0.17201   0.52437   0.75012   0.00000  Uiso   1.00
C1396  C     0.16154   0.97568   0.74794   0.00000  Uiso   1.00
Cu1397 Cu    0.16667   0.74999   0.79822   0.00000  Uiso   1.00
Cu1398 Cu    0.16667   0.75000   0.70179   0.00000  Uiso   1.00
H1399  H     0.17392   0.52815   0.82604   0.00000  Uiso   1.00
H1400  H     0.16060   0.97132   0.67210   0.00000  Uiso   1.00
H1401  H     0.19644   0.53238   0.68025   0.00000  Uiso   1.00
H1402  H     0.13583   0.96804   0.81746   0.00000  Uiso   1.00
H1403  H     0.22521   0.80262   0.54892   0.00000  Uiso   1.00
H1404  H     0.13836   0.68438   0.95791   0.00000  Uiso   1.00
H1405  H     0.21680   0.80426   0.63011   0.00000  Uiso   1.00
H1406  H     0.13209   0.68744   0.87402   0.00000  Uiso   1.00
N1407  N     0.16667   0.75001   0.62935   0.00000  Uiso   1.00
N1408  N     0.16667   0.74999   0.87066   0.00000  Uiso   1.00
O1409  O     0.16667   0.68572   0.79072   0.00000  Uiso   1.00
O1410  O     0.16666   0.81427   0.70929   0.00000  Uiso   1.00
O1411  O     0.16667   0.68573   0.70928   0.00000  Uiso   1.00
O1412  O     0.16666   0.81427   0.79072   0.00000  Uiso   1.00
O1413  O     0.09161   0.74999   0.78132   0.00000  Uiso   1.00
O1414  O     0.24172   0.75000   0.71868   0.00000  Uiso   1.00
O1415  O     0.09161   0.75000   0.69989   0.00000  Uiso   1.00
O1416  O     0.24172   0.75000   0.80012   0.00000  Uiso   1.00
C1417  C     0.32875   0.79694   0.70265   0.00000  Uiso   1.00
C1418  C     0.30993   0.83453   0.72207   0.00000  Uiso   1.00
C1419  C     0.29452   0.87018   0.69289   0.00000  Uiso   1.00
C1420  C     0.29685   0.86835   0.64399   0.00000  Uiso   1.00
C1421  C     0.31315   0.83047   0.62429   0.00000  Uiso   1.00
C1422  C     0.32951   0.79506   0.65331   0.00000  Uiso   1.00
H1423  H     0.30773   0.83650   0.75989   0.00000  Uiso   1.00
H1424  H     0.28082   0.89918   0.70818   0.00000  Uiso   1.00
H1425  H     0.28561   0.89596   0.62116   0.00000  Uiso   1.00
H1426  H     0.31308   0.82841   0.58647   0.00000  Uiso   1.00
H1427  H     0.00938   0.76649   0.63709   0.00000  Uiso   1.00
C1428  C     0.00443   0.70511   0.79941   0.00000  Uiso   1.00
C1429  C     0.01018   0.71140   0.84871   0.00000  Uiso   1.00
C1430  C     0.02990   0.67829   0.87930   0.00000  Uiso   1.00
C1431  C     0.04122   0.63783   0.86152   0.00000  Uiso   1.00
C1432  C     0.03539   0.63114   0.81251   0.00000  Uiso   1.00
C1433  C     0.01753   0.66482   0.78157   0.00000  Uiso   1.00
H1434  H     0.33313   0.74172   0.86366   0.00000  Uiso   1.00
H1435  H     0.03659   0.68415   0.91684   0.00000  Uiso   1.00
H1436  H     0.05489   0.61198   0.88582   0.00000  Uiso   1.00
H1437  H     0.04495   0.60004   0.79849   0.00000  Uiso   1.00
H1438  H     0.01347   0.65947   0.74378   0.00000  Uiso   1.00
C1439  C     0.18766   0.61034   0.84444   0.00000  Uiso   1.00
C1440  C     0.23027   0.63791   0.85705   0.00000  Uiso   1.00
C1441  C     0.24345   0.64995   0.90437   0.00000  Uiso   1.00
C1442  C     0.21622   0.63272   0.93992   0.00000  Uiso   1.00
C1443  C     0.17419   0.60490   0.92802   0.00000  Uiso   1.00
C1444  C     0.15957   0.59418   0.88054   0.00000  Uiso   1.00
H1445  H     0.25344   0.64973   0.83032   0.00000  Uiso   1.00
H1446  H     0.27468   0.67272   0.91352   0.00000  Uiso   1.00
H1447  H     0.22668   0.64213   0.97648   0.00000  Uiso   1.00
H1448  H     0.15279   0.59181   0.95551   0.00000  Uiso   1.00
H1449  H     0.12728   0.57204   0.87207   0.00000  Uiso   1.00
C1450  C     0.14818   0.88851   0.65429   0.00000  Uiso   1.00
C1451  C     0.17671   0.90479   0.61867   0.00000  Uiso   1.00
C1452  C     0.16467   0.89197   0.57154   0.00000  Uiso   1.00
C1453  C     0.12553   0.86126   0.55943   0.00000  Uiso   1.00
C1454  C     0.09751   0.84420   0.59444   0.00000  Uiso   1.00
C1455  C     0.10736   0.85904   0.64123   0.00000  Uiso   1.00
H1456  H     0.20729   0.92868   0.62706   0.00000  Uiso   1.00
H1457  H     0.18546   0.90636   0.54449   0.00000  Uiso   1.00
H1458  H     0.11725   0.85039   0.52308   0.00000  Uiso   1.00
H1459  H     0.06819   0.81951   0.58520   0.00000  Uiso   1.00
H1460  H     0.08362   0.84733   0.66751   0.00000  Uiso   1.00
C1461  C     0.21484   0.61716   0.67204   0.00000  Uiso   1.00
C1462  C     0.20309   0.60342   0.62460   0.00000  Uiso   1.00
C1463  C     0.22729   0.62348   0.58830   0.00000  Uiso   1.00
C1464  C     0.26099   0.65901   0.59830   0.00000  Uiso   1.00
C1465  C     0.27297   0.67284   0.64502   0.00000  Uiso   1.00
C1466  C     0.25172   0.65089   0.68177   0.00000  Uiso   1.00
H1467  H     0.17527   0.57731   0.61548   0.00000  Uiso   1.00
H1468  H     0.21958   0.61163   0.55233   0.00000  Uiso   1.00
H1469  H     0.27813   0.67561   0.57005   0.00000  Uiso   1.00
H1470  H     0.29967   0.69984   0.65307   0.00000  Uiso   1.00
H1471  H     0.26271   0.66115   0.71790   0.00000  Uiso   1.00
C1472  C     0.11528   0.88365   0.82435   0.00000  Uiso   1.00
C1473  C     0.07661   0.85218   0.81170   0.00000  Uiso   1.00
C1474  C     0.05085   0.83146   0.84621   0.00000  Uiso   1.00
C1475  C     0.06191   0.84300   0.89378   0.00000  Uiso   1.00
C1476  C     0.09812   0.87608   0.90674   0.00000  Uiso   1.00
C1477  C     0.12536   0.89600   0.87239   0.00000  Uiso   1.00
H1478  H     0.06683   0.84341   0.77491   0.00000  Uiso   1.00
H1479  H     0.02135   0.80740   0.83567   0.00000  Uiso   1.00
H1480  H     0.04166   0.82685   0.92025   0.00000  Uiso   1.00
H1481  H     0.10484   0.88634   0.94337   0.00000  Uiso   1.00
H1482  H     0.15430   0.92074   0.88336   0.00000  Uiso   1.00
O1483  O     0.12593   0.67945   0.62485   0.00000  Uiso   1.00
C1484  C     0.07355   0.67436   0.62832   0.00000  Uiso   1.00
H1485  H     0.05250   0.66233   0.59507   0.00000  Uiso   1.00
H1486  H     0.05629   0.70506   0.63738   0.00000  Uiso   1.00
C1487  C     0.06568   0.63861   0.66512   0.00000  Uiso   1.00
H1488  H     0.07908   0.65043   0.70123   0.00000  Uiso   1.00
H1489  H     0.02517   0.62878   0.66362   0.00000  Uiso   1.00
H1490  H     0.08687   0.60909   0.65799   0.00000  Uiso   1.00
O1491  O     0.20055   0.82395   0.87388   0.00000  Uiso   1.00
C1492  C     0.25146   0.83029   0.86476   0.00000  Uiso   1.00
H1493  H     0.25594   0.81920   0.82883   0.00000  Uiso   1.00
H1494  H     0.27926   0.81301   0.89001   0.00000  Uiso   1.00
C1495  C     0.26454   0.87936   0.86377   0.00000  Uiso   1.00
H1496  H     0.25957   0.89472   0.89790   0.00000  Uiso   1.00
H1497  H     0.30423   0.88510   0.85664   0.00000  Uiso   1.00
H1498  H     0.23966   0.89574   0.83506   0.00000  Uiso   1.00
C1499  C     0.09634   0.69143   0.52663   0.00000  Uiso   1.00
C1500  C     0.04845   0.70894   0.51442   0.00000  Uiso   1.00
C1501  C     0.00680   0.68107   0.50036   0.00000  Uiso   1.00
C1502  C     0.01297   0.63588   0.99667   0.00000  Uiso   1.00
C1503  C     0.06068   0.61835   0.50757   0.00000  Uiso   1.00
C1504  C     0.10198   0.64579   0.52347   0.00000  Uiso   1.00
H1505  H     0.04301   0.74360   0.51864   0.00000  Uiso   1.00
H1506  H     0.30296   0.69439   0.99271   0.00000  Uiso   1.00
H1507  H     0.31419   0.61431   0.98572   0.00000  Uiso   1.00
H1508  H     0.06541   0.58336   0.50502   0.00000  Uiso   1.00
H1509  H     0.13807   0.63156   0.53385   0.00000  Uiso   1.00
C1510  C     0.23550   0.81489   0.96960   0.00000  Uiso   1.00
C1511  C     0.22456   0.85896   0.97599   0.00000  Uiso   1.00
C1512  C     0.26308   0.88907   0.99291   0.00000  Uiso   1.00
C1513  C     0.31281   0.87555   0.50264   0.00000  Uiso   1.00
C1514  C     0.32394   0.83173   0.99633   0.00000  Uiso   1.00
C1515  C     0.28548   0.80141   0.98044   0.00000  Uiso   1.00
H1516  H     0.18665   0.87006   0.96723   0.00000  Uiso   1.00
H1517  H     0.25459   0.92315   0.99735   0.00000  Uiso   1.00
H1518  H     0.00938   0.89895   0.51507   0.00000  Uiso   1.00
H1519  H     0.02912   0.82128   0.50350   0.00000  Uiso   1.00
H1520  H     0.29481   0.76793   0.97431   0.00000  Uiso   1.00
C1521  C     0.50475   0.66538   0.75102   0.00000  Uiso   1.00
C1522  C     0.49584   0.83471   0.74889   0.00000  Uiso   1.00
C1523  C     0.53233   0.77866   0.55946   0.00000  Uiso   1.00
C1524  C     0.48402   0.71470   0.94380   0.00000  Uiso   1.00
C1525  C     0.52876   0.77982   0.60833   0.00000  Uiso   1.00
C1526  C     0.48142   0.71539   0.89404   0.00000  Uiso   1.00
C1527  C     0.47259   0.71833   0.60248   0.00000  Uiso   1.00
C1528  C     0.52448   0.78419   0.89641   0.00000  Uiso   1.00
C1529  C     0.47041   0.71929   0.55176   0.00000  Uiso   1.00
C1530  C     0.53020   0.78344   0.94718   0.00000  Uiso   1.00
C1531  C     0.50296   0.74895   0.52811   0.00000  Uiso   1.00
C1532  C     0.50599   0.74941   0.97301   0.00000  Uiso   1.00
C1533  C     0.40173   0.75171   0.73821   0.00000  Uiso   1.00
C1534  C     0.59810   0.74819   0.76184   0.00000  Uiso   1.00
C1535  C     0.34753   0.75979   0.73422   0.00000  Uiso   1.00
C1536  C     0.65218   0.74079   0.76620   0.00000  Uiso   1.00
C1537  C     0.50661   0.54643   0.79311   0.00000  Uiso   1.00
C1538  C     0.49409   0.95329   0.70512   0.00000  Uiso   1.00
C1539  C     0.51135   0.59213   0.79565   0.00000  Uiso   1.00
C1540  C     0.48954   0.90750   0.70297   0.00000  Uiso   1.00
C1541  C     0.51388   0.61721   0.75304   0.00000  Uiso   1.00
C1542  C     0.48683   0.88288   0.74596   0.00000  Uiso   1.00
C1543  C     0.52493   0.59470   0.71192   0.00000  Uiso   1.00
C1544  C     0.47475   0.90572   0.78631   0.00000  Uiso   1.00
C1545  C     0.51955   0.54877   0.71097   0.00000  Uiso   1.00
C1546  C     0.48012   0.95155   0.78707   0.00000  Uiso   1.00
C1547  C     0.50534   0.52437   0.75012   0.00000  Uiso   1.00
C1548  C     0.49487   0.97568   0.74794   0.00000  Uiso   1.00
Cu1549 Cu    0.50000   0.74999   0.79822   0.00000  Uiso   1.00
Cu1550 Cu    0.50000   0.75000   0.70179   0.00000  Uiso   1.00
H1551  H     0.50725   0.52815   0.82604   0.00000  Uiso   1.00
H1552  H     0.49394   0.97132   0.67210   0.00000  Uiso   1.00
H1553  H     0.52977   0.53238   0.68025   0.00000  Uiso   1.00
H1554  H     0.46916   0.96804   0.81746   0.00000  Uiso   1.00
H1555  H     0.55854   0.80262   0.54892   0.00000  Uiso   1.00
H1556  H     0.47169   0.68438   0.95791   0.00000  Uiso   1.00
H1557  H     0.55013   0.80426   0.63011   0.00000  Uiso   1.00
H1558  H     0.46542   0.68744   0.87402   0.00000  Uiso   1.00
N1559  N     0.50000   0.75001   0.62935   0.00000  Uiso   1.00
N1560  N     0.50000   0.74999   0.87066   0.00000  Uiso   1.00
O1561  O     0.50000   0.68572   0.79072   0.00000  Uiso   1.00
O1562  O     0.50000   0.81427   0.70929   0.00000  Uiso   1.00
O1563  O     0.50000   0.68573   0.70928   0.00000  Uiso   1.00
O1564  O     0.50000   0.81427   0.79072   0.00000  Uiso   1.00
O1565  O     0.42495   0.74999   0.78132   0.00000  Uiso   1.00
O1566  O     0.57505   0.75000   0.71868   0.00000  Uiso   1.00
O1567  O     0.42495   0.75000   0.69989   0.00000  Uiso   1.00
O1568  O     0.57505   0.75000   0.80012   0.00000  Uiso   1.00
C1569  C     0.66209   0.79694   0.70265   0.00000  Uiso   1.00
C1570  C     0.64327   0.83453   0.72207   0.00000  Uiso   1.00
C1571  C     0.62785   0.87018   0.69289   0.00000  Uiso   1.00
C1572  C     0.63018   0.86835   0.64399   0.00000  Uiso   1.00
C1573  C     0.64648   0.83047   0.62429   0.00000  Uiso   1.00
C1574  C     0.66284   0.79506   0.65331   0.00000  Uiso   1.00
H1575  H     0.64106   0.83650   0.75989   0.00000  Uiso   1.00
H1576  H     0.61415   0.89918   0.70818   0.00000  Uiso   1.00
H1577  H     0.61894   0.89596   0.62116   0.00000  Uiso   1.00
H1578  H     0.64642   0.82841   0.58647   0.00000  Uiso   1.00
H1579  H     0.34271   0.76649   0.63709   0.00000  Uiso   1.00
C1580  C     0.33776   0.70511   0.79941   0.00000  Uiso   1.00
C1581  C     0.34352   0.71140   0.84871   0.00000  Uiso   1.00
C1582  C     0.36323   0.67829   0.87930   0.00000  Uiso   1.00
C1583  C     0.37456   0.63783   0.86152   0.00000  Uiso   1.00
C1584  C     0.36873   0.63114   0.81251   0.00000  Uiso   1.00
C1585  C     0.35086   0.66482   0.78157   0.00000  Uiso   1.00
H1586  H     0.66647   0.74172   0.86366   0.00000  Uiso   1.00
H1587  H     0.36993   0.68415   0.91684   0.00000  Uiso   1.00
H1588  H     0.38823   0.61198   0.88582   0.00000  Uiso   1.00
H1589  H     0.37829   0.60004   0.79849   0.00000  Uiso   1.00
H1590  H     0.34680   0.65947   0.74378   0.00000  Uiso   1.00
C1591  C     0.52099   0.61034   0.84444   0.00000  Uiso   1.00
C1592  C     0.56360   0.63791   0.85705   0.00000  Uiso   1.00
C1593  C     0.57679   0.64995   0.90437   0.00000  Uiso   1.00
C1594  C     0.54955   0.63272   0.93992   0.00000  Uiso   1.00
C1595  C     0.50753   0.60490   0.92802   0.00000  Uiso   1.00
C1596  C     0.49291   0.59418   0.88054   0.00000  Uiso   1.00
H1597  H     0.58677   0.64973   0.83032   0.00000  Uiso   1.00
H1598  H     0.60801   0.67272   0.91352   0.00000  Uiso   1.00
H1599  H     0.56002   0.64213   0.97648   0.00000  Uiso   1.00
H1600  H     0.48612   0.59181   0.95551   0.00000  Uiso   1.00
H1601  H     0.46061   0.57204   0.87207   0.00000  Uiso   1.00
C1602  C     0.48152   0.88851   0.65429   0.00000  Uiso   1.00
C1603  C     0.51004   0.90479   0.61867   0.00000  Uiso   1.00
C1604  C     0.49800   0.89197   0.57154   0.00000  Uiso   1.00
C1605  C     0.45886   0.86126   0.55943   0.00000  Uiso   1.00
C1606  C     0.43084   0.84420   0.59444   0.00000  Uiso   1.00
C1607  C     0.44069   0.85904   0.64123   0.00000  Uiso   1.00
H1608  H     0.54062   0.92868   0.62706   0.00000  Uiso   1.00
H1609  H     0.51879   0.90636   0.54449   0.00000  Uiso   1.00
H1610  H     0.45058   0.85039   0.52308   0.00000  Uiso   1.00
H1611  H     0.40153   0.81951   0.58520   0.00000  Uiso   1.00
H1612  H     0.41696   0.84733   0.66751   0.00000  Uiso   1.00
C1613  C     0.54817   0.61716   0.67204   0.00000  Uiso   1.00
C1614  C     0.53642   0.60342   0.62460   0.00000  Uiso   1.00
C1615  C     0.56062   0.62348   0.58830   0.00000  Uiso   1.00
C1616  C     0.59432   0.65901   0.59830   0.00000  Uiso   1.00
C1617  C     0.60630   0.67284   0.64502   0.00000  Uiso   1.00
C1618  C     0.58505   0.65089   0.68177   0.00000  Uiso   1.00
H1619  H     0.50861   0.57731   0.61548   0.00000  Uiso   1.00
H1620  H     0.55292   0.61163   0.55233   0.00000  Uiso   1.00
H1621  H     0.61146   0.67561   0.57005   0.00000  Uiso   1.00
H1622  H     0.63301   0.69984   0.65307   0.00000  Uiso   1.00
H1623  H     0.59604   0.66115   0.71790   0.00000  Uiso   1.00
C1624  C     0.44861   0.88365   0.82435   0.00000  Uiso   1.00
C1625  C     0.40994   0.85218   0.81170   0.00000  Uiso   1.00
C1626  C     0.38418   0.83146   0.84621   0.00000  Uiso   1.00
C1627  C     0.39525   0.84300   0.89378   0.00000  Uiso   1.00
C1628  C     0.43146   0.87608   0.90674   0.00000  Uiso   1.00
C1629  C     0.45869   0.89600   0.87239   0.00000  Uiso   1.00
H1630  H     0.40016   0.84341   0.77491   0.00000  Uiso   1.00
H1631  H     0.35469   0.80740   0.83567   0.00000  Uiso   1.00
H1632  H     0.37500   0.82685   0.92025   0.00000  Uiso   1.00
H1633  H     0.43817   0.88634   0.94337   0.00000  Uiso   1.00
H1634  H     0.48763   0.92074   0.88336   0.00000  Uiso   1.00
O1635  O     0.45926   0.67945   0.62485   0.00000  Uiso   1.00
C1636  C     0.40688   0.67436   0.62832   0.00000  Uiso   1.00
H1637  H     0.38584   0.66233   0.59507   0.00000  Uiso   1.00
H1638  H     0.38962   0.70506   0.63738   0.00000  Uiso   1.00
C1639  C     0.39902   0.63861   0.66512   0.00000  Uiso   1.00
H1640  H     0.41242   0.65043   0.70123   0.00000  Uiso   1.00
H1641  H     0.35851   0.62878   0.66362   0.00000  Uiso   1.00
H1642  H     0.42020   0.60909   0.65799   0.00000  Uiso   1.00
O1643  O     0.53389   0.82395   0.87388   0.00000  Uiso   1.00
C1644  C     0.58480   0.83029   0.86476   0.00000  Uiso   1.00
H1645  H     0.58928   0.81920   0.82883   0.00000  Uiso   1.00
H1646  H     0.61259   0.81301   0.89001   0.00000  Uiso   1.00
C1647  C     0.59788   0.87936   0.86377   0.00000  Uiso   1.00
H1648  H     0.59291   0.89472   0.89790   0.00000  Uiso   1.00
H1649  H     0.63756   0.88510   0.85664   0.00000  Uiso   1.00
H1650  H     0.57299   0.89574   0.83506   0.00000  Uiso   1.00
C1651  C     0.42967   0.69143   0.52663   0.00000  Uiso   1.00
C1652  C     0.38179   0.70894   0.51442   0.00000  Uiso   1.00
C1653  C     0.34013   0.68107   0.50036   0.00000  Uiso   1.00
C1654  C     0.34630   0.63588   0.99667   0.00000  Uiso   1.00
C1655  C     0.39401   0.61835   0.50757   0.00000  Uiso   1.00
C1656  C     0.43531   0.64579   0.52347   0.00000  Uiso   1.00
H1657  H     0.37634   0.74360   0.51864   0.00000  Uiso   1.00
H1658  H     0.63630   0.69439   0.99271   0.00000  Uiso   1.00
H1659  H     0.64752   0.61431   0.98572   0.00000  Uiso   1.00
H1660  H     0.39874   0.58336   0.50502   0.00000  Uiso   1.00
H1661  H     0.47140   0.63156   0.53385   0.00000  Uiso   1.00
C1662  C     0.56883   0.81489   0.96960   0.00000  Uiso   1.00
C1663  C     0.55789   0.85896   0.97599   0.00000  Uiso   1.00
C1664  C     0.59641   0.88907   0.99291   0.00000  Uiso   1.00
C1665  C     0.64615   0.87555   0.50264   0.00000  Uiso   1.00
C1666  C     0.65728   0.83173   0.99633   0.00000  Uiso   1.00
C1667  C     0.61881   0.80141   0.98044   0.00000  Uiso   1.00
H1668  H     0.51998   0.87006   0.96723   0.00000  Uiso   1.00
H1669  H     0.58792   0.92315   0.99735   0.00000  Uiso   1.00
H1670  H     0.34271   0.89895   0.51507   0.00000  Uiso   1.00
H1671  H     0.36245   0.82128   0.50350   0.00000  Uiso   1.00
H1672  H     0.62814   0.76793   0.97431   0.00000  Uiso   1.00
C1673  C     0.83809   0.66538   0.75102   0.00000  Uiso   1.00
C1674  C     0.82917   0.83471   0.74889   0.00000  Uiso   1.00
C1675  C     0.86566   0.77866   0.55946   0.00000  Uiso   1.00
C1676  C     0.81735   0.71470   0.94380   0.00000  Uiso   1.00
C1677  C     0.86209   0.77982   0.60833   0.00000  Uiso   1.00
C1678  C     0.81476   0.71539   0.89404   0.00000  Uiso   1.00
C1679  C     0.80592   0.71833   0.60248   0.00000  Uiso   1.00
C1680  C     0.85781   0.78419   0.89641   0.00000  Uiso   1.00
C1681  C     0.80375   0.71929   0.55176   0.00000  Uiso   1.00
C1682  C     0.86354   0.78344   0.94718   0.00000  Uiso   1.00
C1683  C     0.83630   0.74895   0.52811   0.00000  Uiso   1.00
C1684  C     0.83933   0.74941   0.97301   0.00000  Uiso   1.00
C1685  C     0.73507   0.75171   0.73821   0.00000  Uiso   1.00
C1686  C     0.93144   0.74819   0.76184   0.00000  Uiso   1.00
C1687  C     0.68086   0.75979   0.73422   0.00000  Uiso   1.00
C1688  C     0.98551   0.74079   0.76620   0.00000  Uiso   1.00
C1689  C     0.83994   0.54643   0.79311   0.00000  Uiso   1.00
C1690  C     0.82743   0.95329   0.70512   0.00000  Uiso   1.00
C1691  C     0.84468   0.59213   0.79565   0.00000  Uiso   1.00
C1692  C     0.82287   0.90750   0.70297   0.00000  Uiso   1.00
C1693  C     0.84722   0.61721   0.75304   0.00000  Uiso   1.00
C1694  C     0.82016   0.88288   0.74596   0.00000  Uiso   1.00
C1695  C     0.85827   0.59470   0.71192   0.00000  Uiso   1.00
C1696  C     0.80808   0.90572   0.78631   0.00000  Uiso   1.00
C1697  C     0.85289   0.54877   0.71097   0.00000  Uiso   1.00
C1698  C     0.81346   0.95155   0.78707   0.00000  Uiso   1.00
C1699  C     0.83868   0.52437   0.75012   0.00000  Uiso   1.00
C1700  C     0.82821   0.97568   0.74794   0.00000  Uiso   1.00
Cu1701 Cu    0.83333   0.74999   0.79822   0.00000  Uiso   1.00
Cu1702 Cu    0.83333   0.75000   0.70179   0.00000  Uiso   1.00
H1703  H     0.84059   0.52815   0.82604   0.00000  Uiso   1.00
H1704  H     0.82727   0.97132   0.67210   0.00000  Uiso   1.00
H1705  H     0.86311   0.53238   0.68025   0.00000  Uiso   1.00
H1706  H     0.80249   0.96804   0.81746   0.00000  Uiso   1.00
H1707  H     0.89188   0.80262   0.54892   0.00000  Uiso   1.00
H1708  H     0.80503   0.68438   0.95791   0.00000  Uiso   1.00
H1709  H     0.88347   0.80426   0.63011   0.00000  Uiso   1.00
H1710  H     0.79875   0.68744   0.87402   0.00000  Uiso   1.00
N1711  N     0.83333   0.75001   0.62935   0.00000  Uiso   1.00
N1712  N     0.83333   0.74999   0.87066   0.00000  Uiso   1.00
O1713  O     0.83334   0.68572   0.79072   0.00000  Uiso   1.00
O1714  O     0.83333   0.81427   0.70929   0.00000  Uiso   1.00
O1715  O     0.83334   0.68573   0.70928   0.00000  Uiso   1.00
O1716  O     0.83333   0.81427   0.79072   0.00000  Uiso   1.00
O1717  O     0.75828   0.74999   0.78132   0.00000  Uiso   1.00
O1718  O     0.90839   0.75000   0.71868   0.00000  Uiso   1.00
O1719  O     0.75828   0.75000   0.69989   0.00000  Uiso   1.00
O1720  O     0.90839   0.75000   0.80012   0.00000  Uiso   1.00
C1721  C     0.99542   0.79694   0.70265   0.00000  Uiso   1.00
C1722  C     0.97660   0.83453   0.72207   0.00000  Uiso   1.00
C1723  C     0.96118   0.87018   0.69289   0.00000  Uiso   1.00
C1724  C     0.96352   0.86835   0.64399   0.00000  Uiso   1.00
C1725  C     0.97982   0.83047   0.62429   0.00000  Uiso   1.00
C1726  C     0.99617   0.79506   0.65331   0.00000  Uiso   1.00
H1727  H     0.97439   0.83650   0.75989   0.00000  Uiso   1.00
H1728  H     0.94748   0.89918   0.70818   0.00000  Uiso   1.00
H1729  H     0.95228   0.89596   0.62116   0.00000  Uiso   1.00
H1730  H     0.97975   0.82841   0.58647   0.00000  Uiso   1.00
H1731  H     0.67604   0.76649   0.63709   0.00000  Uiso   1.00
C1732  C     0.67109   0.70511   0.79941   0.00000  Uiso   1.00
C1733  C     0.67685   0.71140   0.84871   0.00000  Uiso   1.00
C1734  C     0.69657   0.67829   0.87930   0.00000  Uiso   1.00
C1735  C     0.70789   0.63783   0.86152   0.00000  Uiso   1.00
C1736  C     0.70206   0.63114   0.81251   0.00000  Uiso   1.00
C1737  C     0.68420   0.66482   0.78157   0.00000  Uiso   1.00
H1738  H     0.99980   0.74172   0.86366   0.00000  Uiso   1.00
H1739  H     0.70326   0.68415   0.91684   0.00000  Uiso   1.00
H1740  H     0.72156   0.61198   0.88582   0.00000  Uiso   1.00
H1741  H     0.71162   0.60004   0.79849   0.00000  Uiso   1.00
H1742  H     0.68014   0.65947   0.74378   0.00000  Uiso   1.00
C1743  C     0.85433   0.61034   0.84444   0.00000  Uiso   1.00
C1744  C     0.89694   0.63791   0.85705   0.00000  Uiso   1.00
C1745  C     0.91012   0.64995   0.90437   0.00000  Uiso   1.00
C1746  C     0.88289   0.63272   0.93992   0.00000  Uiso   1.00
C1747  C     0.84086   0.60490   0.92802   0.00000  Uiso   1.00
C1748  C     0.82624   0.59418   0.88054   0.00000  Uiso   1.00
H1749  H     0.92010   0.64973   0.83032   0.00000  Uiso   1.00
H1750  H     0.94135   0.67272   0.91352   0.00000  Uiso   1.00
H1751  H     0.89335   0.64213   0.97648   0.00000  Uiso   1.00
H1752  H     0.81946   0.59181   0.95551   0.00000  Uiso   1.00
H1753  H     0.79394   0.57204   0.87207   0.00000  Uiso   1.00
C1754  C     0.81485   0.88851   0.65429   0.00000  Uiso   1.00
C1755  C     0.84338   0.90479   0.61867   0.00000  Uiso   1.00
C1756  C     0.83133   0.89197   0.57154   0.00000  Uiso   1.00
C1757  C     0.79220   0.86126   0.55943   0.00000  Uiso   1.00
C1758  C     0.76417   0.84420   0.59444   0.00000  Uiso   1.00
C1759  C     0.77402   0.85904   0.64123   0.00000  Uiso   1.00
H1760  H     0.87396   0.92868   0.62706   0.00000  Uiso   1.00
H1761  H     0.85212   0.90636   0.54449   0.00000  Uiso   1.00
H1762  H     0.78391   0.85039   0.52308   0.00000  Uiso   1.00
H1763  H     0.73486   0.81951   0.58520   0.00000  Uiso   1.00
H1764  H     0.75029   0.84733   0.66751   0.00000  Uiso   1.00
C1765  C     0.88151   0.61716   0.67204   0.00000  Uiso   1.00
C1766  C     0.86975   0.60342   0.62460   0.00000  Uiso   1.00
C1767  C     0.89395   0.62348   0.58830   0.00000  Uiso   1.00
C1768  C     0.92765   0.65901   0.59830   0.00000  Uiso   1.00
C1769  C     0.93964   0.67284   0.64502   0.00000  Uiso   1.00
C1770  C     0.91839   0.65089   0.68177   0.00000  Uiso   1.00
H1771  H     0.84194   0.57731   0.61548   0.00000  Uiso   1.00
H1772  H     0.88625   0.61163   0.55233   0.00000  Uiso   1.00
H1773  H     0.94479   0.67561   0.57005   0.00000  Uiso   1.00
H1774  H     0.96634   0.69984   0.65307   0.00000  Uiso   1.00
H1775  H     0.92938   0.66115   0.71790   0.00000  Uiso   1.00
C1776  C     0.78194   0.88365   0.82435   0.00000  Uiso   1.00
C1777  C     0.74327   0.85218   0.81170   0.00000  Uiso   1.00
C1778  C     0.71751   0.83146   0.84621   0.00000  Uiso   1.00
C1779  C     0.72858   0.84300   0.89378   0.00000  Uiso   1.00
C1780  C     0.76479   0.87608   0.90674   0.00000  Uiso   1.00
C1781  C     0.79202   0.89600   0.87239   0.00000  Uiso   1.00
H1782  H     0.73350   0.84341   0.77491   0.00000  Uiso   1.00
H1783  H     0.68802   0.80740   0.83567   0.00000  Uiso   1.00
H1784  H     0.70833   0.82685   0.92025   0.00000  Uiso   1.00
H1785  H     0.77150   0.88634   0.94337   0.00000  Uiso   1.00
H1786  H     0.82096   0.92074   0.88336   0.00000  Uiso   1.00
O1787  O     0.79260   0.67945   0.62485   0.00000  Uiso   1.00
C1788  C     0.74021   0.67436   0.62832   0.00000  Uiso   1.00
H1789  H     0.71917   0.66233   0.59507   0.00000  Uiso   1.00
H1790  H     0.72296   0.70506   0.63738   0.00000  Uiso   1.00
C1791  C     0.73235   0.63861   0.66512   0.00000  Uiso   1.00
H1792  H     0.74575   0.65043   0.70123   0.00000  Uiso   1.00
H1793  H     0.69184   0.62878   0.66362   0.00000  Uiso   1.00
H1794  H     0.75353   0.60909   0.65799   0.00000  Uiso   1.00
O1795  O     0.86722   0.82395   0.87388   0.00000  Uiso   1.00
C1796  C     0.91813   0.83029   0.86476   0.00000  Uiso   1.00
H1797  H     0.92261   0.81920   0.82883   0.00000  Uiso   1.00
H1798  H     0.94593   0.81301   0.89001   0.00000  Uiso   1.00
C1799  C     0.93121   0.87936   0.86377   0.00000  Uiso   1.00
H1800  H     0.92624   0.89472   0.89790   0.00000  Uiso   1.00
H1801  H     0.97089   0.88510   0.85664   0.00000  Uiso   1.00
H1802  H     0.90633   0.89574   0.83506   0.00000  Uiso   1.00
C1803  C     0.76301   0.69143   0.52663   0.00000  Uiso   1.00
C1804  C     0.71512   0.70894   0.51442   0.00000  Uiso   1.00
C1805  C     0.67346   0.68107   0.50036   0.00000  Uiso   1.00
C1806  C     0.67964   0.63588   0.99667   0.00000  Uiso   1.00
C1807  C     0.72735   0.61835   0.50757   0.00000  Uiso   1.00
C1808  C     0.76865   0.64579   0.52347   0.00000  Uiso   1.00
H1809  H     0.70967   0.74360   0.51864   0.00000  Uiso   1.00
H1810  H     0.96963   0.69439   0.99271   0.00000  Uiso   1.00
H1811  H     0.98085   0.61431   0.98572   0.00000  Uiso   1.00
H1812  H     0.73207   0.58336   0.50502   0.00000  Uiso   1.00
H1813  H     0.80473   0.63156   0.53385   0.00000  Uiso   1.00
C1814  C     0.90217   0.81489   0.96960   0.00000  Uiso   1.00
C1815  C     0.89122   0.85896   0.97599   0.00000  Uiso   1.00
C1816  C     0.92975   0.88907   0.99291   0.00000  Uiso   1.00
C1817  C     0.97948   0.87555   0.50264   0.00000  Uiso   1.00
C1818  C     0.99061   0.83173   0.99633   0.00000  Uiso   1.00
C1819  C     0.95214   0.80141   0.98044   0.00000  Uiso   1.00
H1820  H     0.85332   0.87006   0.96723   0.00000  Uiso   1.00
H1821  H     0.92126   0.92315   0.99735   0.00000  Uiso   1.00
H1822  H     0.67605   0.89895   0.51507   0.00000  Uiso   1.00
H1823  H     0.69578   0.82128   0.50350   0.00000  Uiso   1.00
H1824  H     0.96148   0.76793   0.97431   0.00000  Uiso   1.00
loop_
_geom_bond_atom_site_label_1
_geom_bond_atom_site_label_2
_geom_bond_distance
_geom_bond_site_symmetry_2
_ccdc_geom_bond_type
C1     C21     1.495   .     S
C1     O43     1.320   .     A
C1     O41     1.313   .     A
C2     O44     1.323   .     A
C2     C22     1.494   .     S
C2     O42     1.309   .     A
C3     H35     1.058   .     S
C3     C5      1.399   .     A
C3     C11     1.426   .     A
C4     H36     1.058   .     S
C4     C12     1.421   .     A
C4     C6      1.402   .     A
C5     H37     1.078   .     S
C5     N39     1.346   .     A
C6     H38     1.078   .     S
C6     N40     1.347   .     A
C7     O115    1.390   .     S
C7     C9      1.430   .     A
C7     N39     1.374   .     A
C8     O123    1.389   .     S
C8     C10     1.427   .     A
C8     N40     1.382   .     A
C9     C131    1.477   .     S
C9     C11     1.443   .     A
C10    C142    1.477   .     S
C10    C12     1.438   .     A
C11    C924    1.571   1_554 S
C12    C923    1.571   .     S
C13    O47     1.313   .     A
C13    C15     1.464   .     S
C13    O45     1.302   .     A
C14    O46     1.302   .     A
C14    O48     1.310   .     A
C14    C16     1.457   .     S
C15    C320    1.363   1_455 S
C15    C353    1.493   1_455 S
C16    C167    1.363   .     S
C16    C212    1.487   .     S
C17    C27     1.396   .     A
C17    H31     1.077   .     S
C17    C19     1.396   .     A
C18    C20     1.398   .     A
C18    C28     1.398   .     A
C18    H32     1.076   .     S
C19    C71     1.487   .     S
C19    C21     1.425   .     A
C20    C82     1.492   .     S
C20    C22     1.427   .     A
C21    C23     1.425   .     A
C22    C24     1.421   .     A
C23    C93     1.496   .     S
C23    C25     1.402   .     A
C24    C26     1.399   .     A
C24    C104    1.490   .     S
C25    C27     1.407   .     A
C25    H33     1.076   .     S
C26    H34     1.077   .     S
C26    C28     1.407   .     A
C27    C484    1.501   1_545 S
C28    C483    1.501   .     S
Cu29   O48     1.995   .     S
Cu29   O45     2.001   .     S
Cu29   Cu30    2.729   .     S
Cu29   O44     1.966   .     S
Cu29   O41     1.973   .     S
Cu29   N40     2.050   .     S
Cu30   O47     1.995   .     S
Cu30   O43     1.966   .     S
Cu30   O46     2.001   .     S
Cu30   N39     2.050   .     S
Cu30   O42     1.973   .     S
C49    C50     1.410   .     A
C49    C54     1.401   .     A
C49    C167    1.493   .     S
C50    C51     1.397   .     A
C50    H55     1.081   .     S
C51    H56     1.082   .     S
C51    C52     1.395   .     A
C52    C53     1.394   .     A
C52    H57     1.081   .     S
C53    H58     1.073   .     S
C53    C54     1.395   .     A
C54    H211    1.079   .     S
H59    C358    1.079   1_455 S
C60    C61     1.401   .     A
C60    C65     1.405   .     A
C60    C320    1.487   1_455 S
C61    C62     1.394   .     A
C61    H370    1.080   1_455 S
C62    H67     1.073   .     S
C62    C63     1.394   .     A
C63    H68     1.081   .     S
C63    C64     1.395   .     A
C64    H69     1.082   .     S
C64    C65     1.397   .     A
C65    H70     1.077   .     S
H66    C213    1.080   .     S
C71    C76     1.410   .     A
C71    C72     1.405   .     A
C72    H77     1.082   .     S
C72    C73     1.395   .     A
C73    C74     1.395   .     A
C73    H78     1.076   .     S
C74    C75     1.394   .     A
C74    H79     1.080   .     S
C75    H80     1.082   .     S
C75    C76     1.395   .     A
C76    H81     1.082   .     S
C82    C87     1.406   .     A
C82    C83     1.407   .     A
C83    H88     1.082   .     S
C83    C84     1.394   .     A
C84    C85     1.394   .     A
C84    H89     1.077   .     S
C85    C86     1.394   .     A
C85    H90     1.081   .     S
C86    H91     1.079   .     S
C86    C87     1.398   .     A
C87    H92     1.081   .     S
C93    C94     1.409   .     A
C93    C98     1.406   .     A
C94    H99     1.082   .     S
C94    C95     1.398   .     A
C95    C96     1.394   .     A
C95    H100    1.080   .     S
C96    H101    1.078   .     S
C96    C97     1.392   .     A
C97    C98     1.393   .     A
C97    H102    1.079   .     S
C98    H103    1.078   .     S
C104   C105    1.403   .     A
C104   C109    1.409   .     A
C105   H110    1.079   .     S
C105   C106    1.391   .     A
C106   C107    1.392   .     A
C106   H111    1.076   .     S
C107   H112    1.077   .     S
C107   C108    1.395   .     A
C108   C109    1.400   .     A
C108   H113    1.081   .     S
C109   H114    1.083   .     S
O115   C116    1.414   .     S
C116   H117    1.099   .     S
C116   C119    1.522   .     S
C116   H118    1.102   .     S
C119   H121    1.107   .     S
C119   H120    1.104   .     S
C119   H122    1.111   .     S
O123   C124    1.417   .     S
C124   C127    1.524   .     S
C124   H126    1.107   .     S
C124   H125    1.098   .     S
C127   H129    1.108   .     S
C127   H128    1.104   .     S
C127   H130    1.109   .     S
C131   C136    1.409   .     A
C131   C132    1.403   .     A
C132   C133    1.399   .     A
C132   H137    1.081   .     S
C133   C1046   1.399   1_554 S
C133   H1354   1.080   1_454 S
C134   C1045   1.399   .     S
C134   C1047   1.394   .     S
C134   H443    1.080   1_455 S
C135   C136    1.395   .     A
C135   H140    1.082   .     S
C135   C1046   1.394   1_554 S
C136   H141    1.075   .     S
H138   C1197   1.080   .     S
H139   C286    1.080   .     S
C142   C147    1.404   .     A
C142   C143    1.402   .     A
C143   C144    1.400   .     A
C143   H148    1.076   .     S
C144   H149    1.082   .     S
C144   C1057   1.396   .     S
C145   C1056   1.396   1_554 S
C145   C1058   1.396   1_554 S
C145   H302    1.082   .     S
C146   C147    1.396   .     A
C146   C1057   1.396   .     S
C146   H1215   1.080   .     S
C147   H152    1.079   .     S
H150   C449    1.082   1_455 S
H151   C1362   1.080   1_454 S
C153   C173    1.495   .     S
C153   O195    1.320   .     A
C153   O193    1.313   .     A
C154   O196    1.323   .     A
C154   C174    1.494   .     S
C154   O194    1.309   .     A
C155   H187    1.058   .     S
C155   C157    1.399   .     A
C155   C163    1.426   .     A
C156   H188    1.058   .     S
C156   C164    1.421   .     A
C156   C158    1.402   .     A
C157   H189    1.078   .     S
C157   N191    1.346   .     A
C158   H190    1.078   .     S
C158   N192    1.347   .     A
C159   O267    1.390   .     S
C159   C161    1.430   .     A
C159   N191    1.374   .     A
C160   O275    1.389   .     S
C160   C162    1.427   .     A
C160   N192    1.382   .     A
C161   C283    1.477   .     S
C161   C163    1.443   .     A
C162   C294    1.477   .     S
C162   C164    1.438   .     A
C163   C1076   1.571   1_554 S
C164   C1075   1.571   .     S
C165   O199    1.313   .     A
C165   C167    1.464   .     S
C165   O197    1.302   .     A
C166   O198    1.302   .     A
C166   O200    1.310   .     A
C166   C168    1.457   .     S
C168   C319    1.363   .     S
C168   C364    1.487   .     S
C169   C179    1.396   .     A
C169   H183    1.077   .     S
C169   C171    1.396   .     A
C170   C172    1.398   .     A
C170   C180    1.398   .     A
C170   H184    1.076   .     S
C171   C223    1.487   .     S
C171   C173    1.425   .     A
C172   C234    1.492   .     S
C172   C174    1.427   .     A
C173   C175    1.425   .     A
C174   C176    1.421   .     A
C175   C245    1.496   .     S
C175   C177    1.402   .     A
C176   C178    1.399   .     A
C176   C256    1.490   .     S
C177   C179    1.407   .     A
C177   H185    1.076   .     S
C178   H186    1.077   .     S
C178   C180    1.407   .     A
C179   C636    1.501   1_545 S
C180   C635    1.501   .     S
Cu181  O200    1.995   .     S
Cu181  O197    2.001   .     S
Cu181  Cu182   2.729   .     S
Cu181  O196    1.966   .     S
Cu181  O193    1.973   .     S
Cu181  N192    2.050   .     S
Cu182  O199    1.995   .     S
Cu182  O195    1.966   .     S
Cu182  O198    2.001   .     S
Cu182  N191    2.050   .     S
Cu182  O194    1.973   .     S
C201   C202    1.410   .     A
C201   C206    1.401   .     A
C201   C319    1.493   .     S
C202   C203    1.397   .     A
C202   H207    1.081   .     S
C203   H208    1.082   .     S
C203   C204    1.395   .     A
C204   C205    1.394   .     A
C204   H209    1.081   .     S
C205   H210    1.073   .     S
C205   C206    1.395   .     A
C206   H363    1.079   .     S
C212   C213    1.401   .     A
C212   C217    1.405   .     A
C213   C214    1.394   .     A
C214   H219    1.073   .     S
C214   C215    1.394   .     A
C215   H220    1.081   .     S
C215   C216    1.395   .     A
C216   H221    1.082   .     S
C216   C217    1.397   .     A
C217   H222    1.077   .     S
H218   C365    1.080   .     S
C223   C228    1.410   .     A
C223   C224    1.405   .     A
C224   H229    1.082   .     S
C224   C225    1.395   .     A
C225   C226    1.395   .     A
C225   H230    1.076   .     S
C226   C227    1.394   .     A
C226   H231    1.080   .     S
C227   H232    1.082   .     S
C227   C228    1.395   .     A
C228   H233    1.082   .     S
C234   C239    1.406   .     A
C234   C235    1.407   .     A
C235   H240    1.082   .     S
C235   C236    1.394   .     A
C236   C237    1.394   .     A
C236   H241    1.077   .     S
C237   C238    1.394   .     A
C237   H242    1.081   .     S
C238   H243    1.079   .     S
C238   C239    1.398   .     A
C239   H244    1.081   .     S
C245   C246    1.409   .     A
C245   C250    1.406   .     A
C246   H251    1.082   .     S
C246   C247    1.398   .     A
C247   C248    1.394   .     A
C247   H252    1.080   .     S
C248   H253    1.078   .     S
C248   C249    1.392   .     A
C249   C250    1.393   .     A
C249   H254    1.079   .     S
C250   H255    1.078   .     S
C256   C257    1.403   .     A
C256   C261    1.409   .     A
C257   H262    1.079   .     S
C257   C258    1.391   .     A
C258   C259    1.392   .     A
C258   H263    1.076   .     S
C259   H264    1.077   .     S
C259   C260    1.395   .     A
C260   C261    1.400   .     A
C260   H265    1.081   .     S
C261   H266    1.083   .     S
O267   C268    1.414   .     S
C268   H269    1.099   .     S
C268   C271    1.522   .     S
C268   H270    1.102   .     S
C271   H273    1.107   .     S
C271   H272    1.104   .     S
C271   H274    1.111   .     S
O275   C276    1.417   .     S
C276   C279    1.524   .     S
C276   H278    1.107   .     S
C276   H277    1.098   .     S
C279   H281    1.108   .     S
C279   H280    1.104   .     S
C279   H282    1.109   .     S
C283   C288    1.409   .     A
C283   C284    1.403   .     A
C284   C285    1.399   .     A
C284   H289    1.081   .     S
C285   C1198   1.399   1_554 S
C285   H1050   1.080   1_554 S
C286   C1197   1.399   .     S
C286   C1199   1.394   .     S
C287   C288    1.395   .     A
C287   H292    1.082   .     S
C287   C1198   1.394   1_554 S
C288   H293    1.075   .     S
H290   C1349   1.080   .     S
H291   C438    1.080   .     S
C294   C299    1.404   .     A
C294   C295    1.402   .     A
C295   C296    1.400   .     A
C295   H300    1.076   .     S
C296   H301    1.082   .     S
C296   C1209   1.396   .     S
C297   C1208   1.396   1_554 S
C297   C1210   1.396   1_554 S
C297   H454    1.082   .     S
C298   C299    1.396   .     A
C298   C1209   1.396   .     S
C298   H1367   1.080   .     S
C299   H304    1.079   .     S
H303   C1058   1.080   1_554 S
C305   C325    1.495   .     S
C305   O347    1.320   .     A
C305   O345    1.313   .     A
C306   O348    1.323   .     A
C306   C326    1.494   .     S
C306   O346    1.309   .     A
C307   H339    1.058   .     S
C307   C309    1.399   .     A
C307   C315    1.426   .     A
C308   H340    1.058   .     S
C308   C316    1.421   .     A
C308   C310    1.402   .     A
C309   H341    1.078   .     S
C309   N343    1.346   .     A
C310   H342    1.078   .     S
C310   N344    1.347   .     A
C311   O419    1.390   .     S
C311   C313    1.430   .     A
C311   N343    1.374   .     A
C312   O427    1.389   .     S
C312   C314    1.427   .     A
C312   N344    1.382   .     A
C313   C435    1.477   .     S
C313   C315    1.443   .     A
C314   C446    1.477   .     S
C314   C316    1.438   .     A
C315   C1228   1.571   1_554 S
C316   C1227   1.571   .     S
C317   O351    1.313   .     A
C317   C319    1.464   .     S
C317   O349    1.302   .     A
C318   O350    1.302   .     A
C318   O352    1.310   .     A
C318   C320    1.457   .     S
C320   C15     1.363   1_655 S
C320   C60     1.487   1_655 S
C321   C331    1.396   .     A
C321   H335    1.077   .     S
C321   C323    1.396   .     A
C322   C324    1.398   .     A
C322   C332    1.398   .     A
C322   H336    1.076   .     S
C323   C375    1.487   .     S
C323   C325    1.425   .     A
C324   C386    1.492   .     S
C324   C326    1.427   .     A
C325   C327    1.425   .     A
C326   C328    1.421   .     A
C327   C397    1.496   .     S
C327   C329    1.402   .     A
C328   C330    1.399   .     A
C328   C408    1.490   .     S
C329   C331    1.407   .     A
C329   H337    1.076   .     S
C330   H338    1.077   .     S
C330   C332    1.407   .     A
C331   C788    1.501   1_545 S
C332   C787    1.501   .     S
Cu333  O352    1.995   .     S
Cu333  O349    2.001   .     S
Cu333  Cu334   2.729   .     S
Cu333  O348    1.966   .     S
Cu333  O345    1.973   .     S
Cu333  N344    2.050   .     S
Cu334  O351    1.995   .     S
Cu334  O347    1.966   .     S
Cu334  O350    2.001   .     S
Cu334  N343    2.050   .     S
Cu334  O346    1.973   .     S
C353   C354    1.410   .     A
C353   C358    1.401   .     A
C353   C15     1.493   1_655 S
C354   C355    1.397   .     A
C354   H359    1.081   .     S
C355   H360    1.082   .     S
C355   C356    1.395   .     A
C356   C357    1.394   .     A
C356   H361    1.081   .     S
C357   H362    1.073   .     S
C357   C358    1.395   .     A
C358   H59     1.079   1_655 S
C364   C365    1.401   .     A
C364   C369    1.405   .     A
C365   C366    1.394   .     A
C366   H371    1.073   .     S
C366   C367    1.394   .     A
C367   H372    1.081   .     S
C367   C368    1.395   .     A
C368   H373    1.082   .     S
C368   C369    1.397   .     A
C369   H374    1.077   .     S
H370   C61     1.080   1_655 S
C375   C380    1.410   .     A
C375   C376    1.405   .     A
C376   H381    1.082   .     S
C376   C377    1.395   .     A
C377   C378    1.395   .     A
C377   H382    1.076   .     S
C378   C379    1.394   .     A
C378   H383    1.080   .     S
C379   H384    1.082   .     S
C379   C380    1.395   .     A
C380   H385    1.082   .     S
C386   C391    1.406   .     A
C386   C387    1.407   .     A
C387   H392    1.082   .     S
C387   C388    1.394   .     A
C388   C389    1.394   .     A
C388   H393    1.077   .     S
C389   C390    1.394   .     A
C389   H394    1.081   .     S
C390   H395    1.079   .     S
C390   C391    1.398   .     A
C391   H396    1.081   .     S
C397   C398    1.409   .     A
C397   C402    1.406   .     A
C398   H403    1.082   .     S
C398   C399    1.398   .     A
C399   C400    1.394   .     A
C399   H404    1.080   .     S
C400   H405    1.078   .     S
C400   C401    1.392   .     A
C401   C402    1.393   .     A
C401   H406    1.079   .     S
C402   H407    1.078   .     S
C408   C409    1.403   .     A
C408   C413    1.409   .     A
C409   H414    1.079   .     S
C409   C410    1.391   .     A
C410   C411    1.392   .     A
C410   H415    1.076   .     S
C411   H416    1.077   .     S
C411   C412    1.395   .     A
C412   C413    1.400   .     A
C412   H417    1.081   .     S
C413   H418    1.083   .     S
O419   C420    1.414   .     S
C420   H421    1.099   .     S
C420   C423    1.522   .     S
C420   H422    1.102   .     S
C423   H425    1.107   .     S
C423   H424    1.104   .     S
C423   H426    1.111   .     S
O427   C428    1.417   .     S
C428   C431    1.524   .     S
C428   H430    1.107   .     S
C428   H429    1.098   .     S
C431   H433    1.108   .     S
C431   H432    1.104   .     S
C431   H434    1.109   .     S
C435   C440    1.409   .     A
C435   C436    1.403   .     A
C436   C437    1.399   .     A
C436   H441    1.081   .     S
C437   C1350   1.399   1_554 S
C437   H1202   1.080   1_554 S
C438   C1349   1.399   .     S
C438   C1351   1.394   .     S
C439   C440    1.395   .     A
C439   H444    1.082   .     S
C439   C1350   1.394   1_554 S
C440   H445    1.075   .     S
H442   C1045   1.080   1_655 S
H443   C134    1.080   1_655 S
C446   C451    1.404   .     A
C446   C447    1.402   .     A
C447   C448    1.400   .     A
C447   H452    1.076   .     S
C448   H453    1.082   .     S
C448   C1361   1.396   .     S
C449   C1360   1.396   1_554 S
C449   C1362   1.396   1_554 S
C449   H150    1.082   1_655 S
C450   C451    1.396   .     A
C450   C1361   1.396   .     S
C450   H1063   1.080   1_655 S
C451   H456    1.079   .     S
H455   C1210   1.080   1_554 S
C457   C477    1.495   .     S
C457   O499    1.320   .     A
C457   O497    1.313   .     A
C458   O500    1.323   .     A
C458   C478    1.494   .     S
C458   O498    1.309   .     A
C459   H491    1.058   .     S
C459   C461    1.399   .     A
C459   C467    1.426   .     A
C460   H492    1.058   .     S
C460   C468    1.421   .     A
C460   C462    1.402   .     A
C461   H493    1.078   .     S
C461   N495    1.346   .     A
C462   H494    1.078   .     S
C462   N496    1.347   .     A
C463   O571    1.390   .     S
C463   C465    1.430   .     A
C463   N495    1.374   .     A
C464   O579    1.389   .     S
C464   C466    1.427   .     A
C464   N496    1.382   .     A
C465   C587    1.477   .     S
C465   C467    1.443   .     A
C466   C598    1.477   .     S
C466   C468    1.438   .     A
C467   C1380   1.571   1_554 S
C468   C1379   1.571   .     S
C469   O503    1.313   .     A
C469   C471    1.464   .     S
C469   O501    1.302   .     A
C470   O502    1.302   .     A
C470   O504    1.310   .     A
C470   C472    1.457   .     S
C471   C776    1.363   1_455 S
C471   C809    1.493   1_455 S
C472   C623    1.363   .     S
C472   C668    1.487   .     S
C473   C483    1.396   .     A
C473   H487    1.077   .     S
C473   C475    1.396   .     A
C474   C476    1.398   .     A
C474   C484    1.398   .     A
C474   H488    1.076   .     S
C475   C527    1.487   .     S
C475   C477    1.425   .     A
C476   C538    1.492   .     S
C476   C478    1.427   .     A
C477   C479    1.425   .     A
C478   C480    1.421   .     A
C479   C549    1.496   .     S
C479   C481    1.402   .     A
C480   C482    1.399   .     A
C480   C560    1.490   .     S
C481   C483    1.407   .     A
C481   H489    1.076   .     S
C482   H490    1.077   .     S
C482   C484    1.407   .     A
C484   C27     1.501   1_565 S
Cu485  O504    1.995   .     S
Cu485  O501    2.001   .     S
Cu485  Cu486   2.729   .     S
Cu485  O500    1.966   .     S
Cu485  O497    1.973   .     S
Cu485  N496    2.050   .     S
Cu486  O503    1.995   .     S
Cu486  O499    1.966   .     S
Cu486  O502    2.001   .     S
Cu486  N495    2.050   .     S
Cu486  O498    1.973   .     S
C505   C506    1.410   .     A
C505   C510    1.401   .     A
C505   C623    1.493   .     S
C506   C507    1.397   .     A
C506   H511    1.081   .     S
C507   H512    1.082   .     S
C507   C508    1.395   .     A
C508   C509    1.394   .     A
C508   H513    1.081   .     S
C509   H514    1.073   .     S
C509   C510    1.395   .     A
C510   H667    1.079   .     S
H515   C814    1.079   1_455 S
C516   C517    1.401   .     A
C516   C521    1.405   .     A
C516   C776    1.487   1_455 S
C517   C518    1.394   .     A
C517   H826    1.080   1_455 S
C518   H523    1.073   .     S
C518   C519    1.394   .     A
C519   H524    1.081   .     S
C519   C520    1.395   .     A
C520   H525    1.082   .     S
C520   C521    1.397   .     A
C521   H526    1.077   .     S
H522   C669    1.080   .     S
C527   C532    1.410   .     A
C527   C528    1.405   .     A
C528   H533    1.082   .     S
C528   C529    1.395   .     A
C529   C530    1.395   .     A
C529   H534    1.076   .     S
C530   C531    1.394   .     A
C530   H535    1.080   .     S
C531   H536    1.082   .     S
C531   C532    1.395   .     A
C532   H537    1.082   .     S
C538   C543    1.406   .     A
C538   C539    1.407   .     A
C539   H544    1.082   .     S
C539   C540    1.394   .     A
C540   C541    1.394   .     A
C540   H545    1.077   .     S
C541   C542    1.394   .     A
C541   H546    1.081   .     S
C542   H547    1.079   .     S
C542   C543    1.398   .     A
C543   H548    1.081   .     S
C549   C550    1.409   .     A
C549   C554    1.406   .     A
C550   H555    1.082   .     S
C550   C551    1.398   .     A
C551   C552    1.394   .     A
C551   H556    1.080   .     S
C552   H557    1.078   .     S
C552   C553    1.392   .     A
C553   C554    1.393   .     A
C553   H558    1.079   .     S
C554   H559    1.078   .     S
C560   C561    1.403   .     A
C560   C565    1.409   .     A
C561   H566    1.079   .     S
C561   C562    1.391   .     A
C562   C563    1.392   .     A
C562   H567    1.076   .     S
C563   H568    1.077   .     S
C563   C564    1.395   .     A
C564   C565    1.400   .     A
C564   H569    1.081   .     S
C565   H570    1.083   .     S
O571   C572    1.414   .     S
C572   H573    1.099   .     S
C572   C575    1.522   .     S
C572   H574    1.102   .     S
C575   H577    1.107   .     S
C575   H576    1.104   .     S
C575   H578    1.111   .     S
O579   C580    1.417   .     S
C580   C583    1.524   .     S
C580   H582    1.107   .     S
C580   H581    1.098   .     S
C583   H585    1.108   .     S
C583   H584    1.104   .     S
C583   H586    1.109   .     S
C587   C592    1.409   .     A
C587   C588    1.403   .     A
C588   C589    1.399   .     A
C588   H593    1.081   .     S
C589   C1502   1.399   1_554 S
C589   H1810   1.080   1_454 S
C590   C1501   1.399   .     S
C590   C1503   1.394   .     S
C590   H899    1.080   1_455 S
C591   C592    1.395   .     A
C591   H596    1.082   .     S
C591   C1502   1.394   1_554 S
C592   H597    1.075   .     S
H594   C1653   1.080   .     S
H595   C742    1.080   .     S
C598   C603    1.404   .     A
C598   C599    1.402   .     A
C599   C600    1.400   .     A
C599   H604    1.076   .     S
C600   H605    1.082   .     S
C600   C1513   1.396   .     S
C601   C1512   1.396   1_554 S
C601   C1514   1.396   1_554 S
C601   H758    1.082   .     S
C602   C603    1.396   .     A
C602   C1513   1.396   .     S
C602   H1671   1.080   .     S
C603   H608    1.079   .     S
H606   C905    1.082   1_455 S
H607   C1818   1.080   1_454 S
C609   C629    1.495   .     S
C609   O651    1.320   .     A
C609   O649    1.313   .     A
C610   O652    1.323   .     A
C610   C630    1.494   .     S
C610   O650    1.309   .     A
C611   H643    1.058   .     S
C611   C613    1.399   .     A
C611   C619    1.426   .     A
C612   H644    1.058   .     S
C612   C620    1.421   .     A
C612   C614    1.402   .     A
C613   H645    1.078   .     S
C613   N647    1.346   .     A
C614   H646    1.078   .     S
C614   N648    1.347   .     A
C615   O723    1.390   .     S
C615   C617    1.430   .     A
C615   N647    1.374   .     A
C616   O731    1.389   .     S
C616   C618    1.427   .     A
C616   N648    1.382   .     A
C617   C739    1.477   .     S
C617   C619    1.443   .     A
C618   C750    1.477   .     S
C618   C620    1.438   .     A
C619   C1532   1.571   1_554 S
C620   C1531   1.571   .     S
C621   O655    1.313   .     A
C621   C623    1.464   .     S
C621   O653    1.302   .     A
C622   O654    1.302   .     A
C622   O656    1.310   .     A
C622   C624    1.457   .     S
C624   C775    1.363   .     S
C624   C820    1.487   .     S
C625   C635    1.396   .     A
C625   H639    1.077   .     S
C625   C627    1.396   .     A
C626   C628    1.398   .     A
C626   C636    1.398   .     A
C626   H640    1.076   .     S
C627   C679    1.487   .     S
C627   C629    1.425   .     A
C628   C690    1.492   .     S
C628   C630    1.427   .     A
C629   C631    1.425   .     A
C630   C632    1.421   .     A
C631   C701    1.496   .     S
C631   C633    1.402   .     A
C632   C634    1.399   .     A
C632   C712    1.490   .     S
C633   C635    1.407   .     A
C633   H641    1.076   .     S
C634   H642    1.077   .     S
C634   C636    1.407   .     A
C636   C179    1.501   1_565 S
Cu637  O656    1.995   .     S
Cu637  O653    2.001   .     S
Cu637  Cu638   2.729   .     S
Cu637  O652    1.966   .     S
Cu637  O649    1.973   .     S
Cu637  N648    2.050   .     S
Cu638  O655    1.995   .     S
Cu638  O651    1.966   .     S
Cu638  O654    2.001   .     S
Cu638  N647    2.050   .     S
Cu638  O650    1.973   .     S
C657   C658    1.410   .     A
C657   C662    1.401   .     A
C657   C775    1.493   .     S
C658   C659    1.397   .     A
C658   H663    1.081   .     S
C659   H664    1.082   .     S
C659   C660    1.395   .     A
C660   C661    1.394   .     A
C660   H665    1.081   .     S
C661   H666    1.073   .     S
C661   C662    1.395   .     A
C662   H819    1.079   .     S
C668   C669    1.401   .     A
C668   C673    1.405   .     A
C669   C670    1.394   .     A
C670   H675    1.073   .     S
C670   C671    1.394   .     A
C671   H676    1.081   .     S
C671   C672    1.395   .     A
C672   H677    1.082   .     S
C672   C673    1.397   .     A
C673   H678    1.077   .     S
H674   C821    1.080   .     S
C679   C684    1.410   .     A
C679   C680    1.405   .     A
C680   H685    1.082   .     S
C680   C681    1.395   .     A
C681   C682    1.395   .     A
C681   H686    1.076   .     S
C682   C683    1.394   .     A
C682   H687    1.080   .     S
C683   H688    1.082   .     S
C683   C684    1.395   .     A
C684   H689    1.082   .     S
C690   C695    1.406   .     A
C690   C691    1.407   .     A
C691   H696    1.082   .     S
C691   C692    1.394   .     A
C692   C693    1.394   .     A
C692   H697    1.077   .     S
C693   C694    1.394   .     A
C693   H698    1.081   .     S
C694   H699    1.079   .     S
C694   C695    1.398   .     A
C695   H700    1.081   .     S
C701   C702    1.409   .     A
C701   C706    1.406   .     A
C702   H707    1.082   .     S
C702   C703    1.398   .     A
C703   C704    1.394   .     A
C703   H708    1.080   .     S
C704   H709    1.078   .     S
C704   C705    1.392   .     A
C705   C706    1.393   .     A
C705   H710    1.079   .     S
C706   H711    1.078   .     S
C712   C713    1.403   .     A
C712   C717    1.409   .     A
C713   H718    1.079   .     S
C713   C714    1.391   .     A
C714   C715    1.392   .     A
C714   H719    1.076   .     S
C715   H720    1.077   .     S
C715   C716    1.395   .     A
C716   C717    1.400   .     A
C716   H721    1.081   .     S
C717   H722    1.083   .     S
O723   C724    1.414   .     S
C724   H725    1.099   .     S
C724   C727    1.522   .     S
C724   H726    1.102   .     S
C727   H729    1.107   .     S
C727   H728    1.104   .     S
C727   H730    1.111   .     S
O731   C732    1.417   .     S
C732   C735    1.524   .     S
C732   H734    1.107   .     S
C732   H733    1.098   .     S
C735   H737    1.108   .     S
C735   H736    1.104   .     S
C735   H738    1.109   .     S
C739   C744    1.409   .     A
C739   C740    1.403   .     A
C740   C741    1.399   .     A
C740   H745    1.081   .     S
C741   C1654   1.399   1_554 S
C741   H1506   1.080   1_554 S
C742   C1653   1.399   .     S
C742   C1655   1.394   .     S
C743   C744    1.395   .     A
C743   H748    1.082   .     S
C743   C1654   1.394   1_554 S
C744   H749    1.075   .     S
H746   C1805   1.080   .     S
H747   C894    1.080   .     S
C750   C755    1.404   .     A
C750   C751    1.402   .     A
C751   C752    1.400   .     A
C751   H756    1.076   .     S
C752   H757    1.082   .     S
C752   C1665   1.396   .     S
C753   C1664   1.396   1_554 S
C753   C1666   1.396   1_554 S
C753   H910    1.082   .     S
C754   C755    1.396   .     A
C754   C1665   1.396   .     S
C754   H1823   1.080   .     S
C755   H760    1.079   .     S
H759   C1514   1.080   1_554 S
C761   C781    1.495   .     S
C761   O803    1.320   .     A
C761   O801    1.313   .     A
C762   O804    1.323   .     A
C762   C782    1.494   .     S
C762   O802    1.309   .     A
C763   H795    1.058   .     S
C763   C765    1.399   .     A
C763   C771    1.426   .     A
C764   H796    1.058   .     S
C764   C772    1.421   .     A
C764   C766    1.402   .     A
C765   H797    1.078   .     S
C765   N799    1.346   .     A
C766   H798    1.078   .     S
C766   N800    1.347   .     A
C767   O875    1.390   .     S
C767   C769    1.430   .     A
C767   N799    1.374   .     A
C768   O883    1.389   .     S
C768   C770    1.427   .     A
C768   N800    1.382   .     A
C769   C891    1.477   .     S
C769   C771    1.443   .     A
C770   C902    1.477   .     S
C770   C772    1.438   .     A
C771   C1684   1.571   1_554 S
C772   C1683   1.571   .     S
C773   O807    1.313   .     A
C773   C775    1.464   .     S
C773   O805    1.302   .     A
C774   O806    1.302   .     A
C774   O808    1.310   .     A
C774   C776    1.457   .     S
C776   C471    1.363   1_655 S
C776   C516    1.487   1_655 S
C777   C787    1.396   .     A
C777   H791    1.077   .     S
C777   C779    1.396   .     A
C778   C780    1.398   .     A
C778   C788    1.398   .     A
C778   H792    1.076   .     S
C779   C831    1.487   .     S
C779   C781    1.425   .     A
C780   C842    1.492   .     S
C780   C782    1.427   .     A
C781   C783    1.425   .     A
C782   C784    1.421   .     A
C783   C853    1.496   .     S
C783   C785    1.402   .     A
C784   C786    1.399   .     A
C784   C864    1.490   .     S
C785   C787    1.407   .     A
C785   H793    1.076   .     S
C786   H794    1.077   .     S
C786   C788    1.407   .     A
C788   C331    1.501   1_565 S
Cu789  O808    1.995   .     S
Cu789  O805    2.001   .     S
Cu789  Cu790   2.729   .     S
Cu789  O804    1.966   .     S
Cu789  O801    1.973   .     S
Cu789  N800    2.050   .     S
Cu790  O807    1.995   .     S
Cu790  O803    1.966   .     S
Cu790  O806    2.001   .     S
Cu790  N799    2.050   .     S
Cu790  O802    1.973   .     S
C809   C810    1.410   .     A
C809   C814    1.401   .     A
C809   C471    1.493   1_655 S
C810   C811    1.397   .     A
C810   H815    1.081   .     S
C811   H816    1.082   .     S
C811   C812    1.395   .     A
C812   C813    1.394   .     A
C812   H817    1.081   .     S
C813   H818    1.073   .     S
C813   C814    1.395   .     A
C814   H515    1.079   1_655 S
C820   C821    1.401   .     A
C820   C825    1.405   .     A
C821   C822    1.394   .     A
C822   H827    1.073   .     S
C822   C823    1.394   .     A
C823   H828    1.081   .     S
C823   C824    1.395   .     A
C824   H829    1.082   .     S
C824   C825    1.397   .     A
C825   H830    1.077   .     S
H826   C517    1.080   1_655 S
C831   C836    1.410   .     A
C831   C832    1.405   .     A
C832   H837    1.082   .     S
C832   C833    1.395   .     A
C833   C834    1.395   .     A
C833   H838    1.076   .     S
C834   C835    1.394   .     A
C834   H839    1.080   .     S
C835   H840    1.082   .     S
C835   C836    1.395   .     A
C836   H841    1.082   .     S
C842   C847    1.406   .     A
C842   C843    1.407   .     A
C843   H848    1.082   .     S
C843   C844    1.394   .     A
C844   C845    1.394   .     A
C844   H849    1.077   .     S
C845   C846    1.394   .     A
C845   H850    1.081   .     S
C846   H851    1.079   .     S
C846   C847    1.398   .     A
C847   H852    1.081   .     S
C853   C854    1.409   .     A
C853   C858    1.406   .     A
C854   H859    1.082   .     S
C854   C855    1.398   .     A
C855   C856    1.394   .     A
C855   H860    1.080   .     S
C856   H861    1.078   .     S
C856   C857    1.392   .     A
C857   C858    1.393   .     A
C857   H862    1.079   .     S
C858   H863    1.078   .     S
C864   C865    1.403   .     A
C864   C869    1.409   .     A
C865   H870    1.079   .     S
C865   C866    1.391   .     A
C866   C867    1.392   .     A
C866   H871    1.076   .     S
C867   H872    1.077   .     S
C867   C868    1.395   .     A
C868   C869    1.400   .     A
C868   H873    1.081   .     S
C869   H874    1.083   .     S
O875   C876    1.414   .     S
C876   H877    1.099   .     S
C876   C879    1.522   .     S
C876   H878    1.102   .     S
C879   H881    1.107   .     S
C879   H880    1.104   .     S
C879   H882    1.111   .     S
O883   C884    1.417   .     S
C884   C887    1.524   .     S
C884   H886    1.107   .     S
C884   H885    1.098   .     S
C887   H889    1.108   .     S
C887   H888    1.104   .     S
C887   H890    1.109   .     S
C891   C896    1.409   .     A
C891   C892    1.403   .     A
C892   C893    1.399   .     A
C892   H897    1.081   .     S
C893   C1806   1.399   1_554 S
C893   H1658   1.080   1_554 S
C894   C1805   1.399   .     S
C894   C1807   1.394   .     S
C895   C896    1.395   .     A
C895   H900    1.082   .     S
C895   C1806   1.394   1_554 S
C896   H901    1.075   .     S
H898   C1501   1.080   1_655 S
H899   C590    1.080   1_655 S
C902   C907    1.404   .     A
C902   C903    1.402   .     A
C903   C904    1.400   .     A
C903   H908    1.076   .     S
C904   H909    1.082   .     S
C904   C1817   1.396   .     S
C905   C1816   1.396   1_554 S
C905   C1818   1.396   1_554 S
C905   H606    1.082   1_655 S
C906   C907    1.396   .     A
C906   C1817   1.396   .     S
C906   H1519   1.080   1_655 S
C907   H912    1.079   .     S
H911   C1666   1.080   1_554 S
C913   C933    1.495   .     S
C913   O955    1.320   .     A
C913   O953    1.313   .     A
C914   O956    1.323   .     A
C914   C934    1.494   .     S
C914   O954    1.309   .     A
C915   H947    1.058   .     S
C915   C917    1.399   .     A
C915   C923    1.426   .     A
C916   H948    1.058   .     S
C916   C924    1.421   .     A
C916   C918    1.402   .     A
C917   H949    1.078   .     S
C917   N951    1.346   .     A
C918   H950    1.078   .     S
C918   N952    1.347   .     A
C919   O1027   1.390   .     S
C919   C921    1.430   .     A
C919   N951    1.374   .     A
C920   O1035   1.389   .     S
C920   C922    1.427   .     A
C920   N952    1.382   .     A
C921   C1043   1.477   .     S
C921   C923    1.443   .     A
C922   C1054   1.477   .     S
C922   C924    1.438   .     A
C924   C11     1.571   1_556 S
C925   O959    1.313   .     A
C925   C927    1.464   .     S
C925   O957    1.302   .     A
C926   O958    1.302   .     A
C926   O960    1.310   .     A
C926   C928    1.457   .     S
C927   C1232   1.363   1_455 S
C927   C1265   1.493   1_455 S
C928   C1079   1.363   .     S
C928   C1124   1.487   .     S
C929   C939    1.396   .     A
C929   H943    1.077   .     S
C929   C931    1.396   .     A
C930   C932    1.398   .     A
C930   C940    1.398   .     A
C930   H944    1.076   .     S
C931   C983    1.487   .     S
C931   C933    1.425   .     A
C932   C994    1.492   .     S
C932   C934    1.427   .     A
C933   C935    1.425   .     A
C934   C936    1.421   .     A
C935   C1005   1.496   .     S
C935   C937    1.402   .     A
C936   C938    1.399   .     A
C936   C1016   1.490   .     S
C937   C939    1.407   .     A
C937   H945    1.076   .     S
C938   H946    1.077   .     S
C938   C940    1.407   .     A
C939   C1396   1.501   1_545 S
C940   C1395   1.501   .     S
Cu941  O960    1.995   .     S
Cu941  O957    2.001   .     S
Cu941  Cu942   2.729   .     S
Cu941  O956    1.966   .     S
Cu941  O953    1.973   .     S
Cu941  N952    2.050   .     S
Cu942  O959    1.995   .     S
Cu942  O955    1.966   .     S
Cu942  O958    2.001   .     S
Cu942  N951    2.050   .     S
Cu942  O954    1.973   .     S
C961   C962    1.410   .     A
C961   C966    1.401   .     A
C961   C1079   1.493   .     S
C962   C963    1.397   .     A
C962   H967    1.081   .     S
C963   H968    1.082   .     S
C963   C964    1.395   .     A
C964   C965    1.394   .     A
C964   H969    1.081   .     S
C965   H970    1.073   .     S
C965   C966    1.395   .     A
C966   H1123   1.079   .     S
H971   C1270   1.079   1_455 S
C972   C973    1.401   .     A
C972   C977    1.405   .     A
C972   C1232   1.487   1_455 S
C973   C974    1.394   .     A
C973   H1282   1.080   1_455 S
C974   H979    1.073   .     S
C974   C975    1.394   .     A
C975   H980    1.081   .     S
C975   C976    1.395   .     A
C976   H981    1.082   .     S
C976   C977    1.397   .     A
C977   H982    1.077   .     S
H978   C1125   1.080   .     S
C983   C988    1.410   .     A
C983   C984    1.405   .     A
C984   H989    1.082   .     S
C984   C985    1.395   .     A
C985   C986    1.395   .     A
C985   H990    1.076   .     S
C986   C987    1.394   .     A
C986   H991    1.080   .     S
C987   H992    1.082   .     S
C987   C988    1.395   .     A
C988   H993    1.082   .     S
C994   C999    1.406   .     A
C994   C995    1.407   .     A
C995   H1000   1.082   .     S
C995   C996    1.394   .     A
C996   C997    1.394   .     A
C996   H1001   1.077   .     S
C997   C998    1.394   .     A
C997   H1002   1.081   .     S
C998   H1003   1.079   .     S
C998   C999    1.398   .     A
C999   H1004   1.081   .     S
C1005  C1006   1.409   .     A
C1005  C1010   1.406   .     A
C1006  H1011   1.082   .     S
C1006  C1007   1.398   .     A
C1007  C1008   1.394   .     A
C1007  H1012   1.080   .     S
C1008  H1013   1.078   .     S
C1008  C1009   1.392   .     A
C1009  C1010   1.393   .     A
C1009  H1014   1.079   .     S
C1010  H1015   1.078   .     S
C1016  C1017   1.403   .     A
C1016  C1021   1.409   .     A
C1017  H1022   1.079   .     S
C1017  C1018   1.391   .     A
C1018  C1019   1.392   .     A
C1018  H1023   1.076   .     S
C1019  H1024   1.077   .     S
C1019  C1020   1.395   .     A
C1020  C1021   1.400   .     A
C1020  H1025   1.081   .     S
C1021  H1026   1.083   .     S
O1027  C1028   1.414   .     S
C1028  H1029   1.099   .     S
C1028  C1031   1.522   .     S
C1028  H1030   1.102   .     S
C1031  H1033   1.107   .     S
C1031  H1032   1.104   .     S
C1031  H1034   1.111   .     S
O1035  C1036   1.417   .     S
C1036  C1039   1.524   .     S
C1036  H1038   1.107   .     S
C1036  H1037   1.098   .     S
C1039  H1041   1.108   .     S
C1039  H1040   1.104   .     S
C1039  H1042   1.109   .     S
C1043  C1048   1.409   .     A
C1043  C1044   1.403   .     A
C1044  C1045   1.399   .     A
C1044  H1049   1.081   .     S
C1045  H442    1.080   1_455 S
C1046  C133    1.399   1_556 S
C1046  C135    1.394   1_556 S
C1046  H1355   1.080   1_455 S
C1047  C1048   1.395   .     A
C1047  H1052   1.082   .     S
C1048  H1053   1.075   .     S
H1050  C285    1.080   1_556 S
H1051  C1198   1.080   .     S
C1054  C1059   1.404   .     A
C1054  C1055   1.402   .     A
C1055  C1056   1.400   .     A
C1055  H1060   1.076   .     S
C1056  H1061   1.082   .     S
C1056  C145    1.396   1_556 S
C1057  H1214   1.082   .     S
C1058  C1059   1.396   .     A
C1058  C145    1.396   1_556 S
C1058  H303    1.080   1_556 S
C1059  H1064   1.079   .     S
H1062  C1361   1.082   1_455 S
H1063  C450    1.080   1_455 S
C1065  C1085   1.495   .     S
C1065  O1107   1.320   .     A
C1065  O1105   1.313   .     A
C1066  O1108   1.323   .     A
C1066  C1086   1.494   .     S
C1066  O1106   1.309   .     A
C1067  H1099   1.058   .     S
C1067  C1069   1.399   .     A
C1067  C1075   1.426   .     A
C1068  H1100   1.058   .     S
C1068  C1076   1.421   .     A
C1068  C1070   1.402   .     A
C1069  H1101   1.078   .     S
C1069  N1103   1.346   .     A
C1070  H1102   1.078   .     S
C1070  N1104   1.347   .     A
C1071  O1179   1.390   .     S
C1071  C1073   1.430   .     A
C1071  N1103   1.374   .     A
C1072  O1187   1.389   .     S
C1072  C1074   1.427   .     A
C1072  N1104   1.382   .     A
C1073  C1195   1.477   .     S
C1073  C1075   1.443   .     A
C1074  C1206   1.477   .     S
C1074  C1076   1.438   .     A
C1076  C163    1.571   1_556 S
C1077  O1111   1.313   .     A
C1077  C1079   1.464   .     S
C1077  O1109   1.302   .     A
C1078  O1110   1.302   .     A
C1078  O1112   1.310   .     A
C1078  C1080   1.457   .     S
C1080  C1231   1.363   .     S
C1080  C1276   1.487   .     S
C1081  C1091   1.396   .     A
C1081  H1095   1.077   .     S
C1081  C1083   1.396   .     A
C1082  C1084   1.398   .     A
C1082  C1092   1.398   .     A
C1082  H1096   1.076   .     S
C1083  C1135   1.487   .     S
C1083  C1085   1.425   .     A
C1084  C1146   1.492   .     S
C1084  C1086   1.427   .     A
C1085  C1087   1.425   .     A
C1086  C1088   1.421   .     A
C1087  C1157   1.496   .     S
C1087  C1089   1.402   .     A
C1088  C1090   1.399   .     A
C1088  C1168   1.490   .     S
C1089  C1091   1.407   .     A
C1089  H1097   1.076   .     S
C1090  H1098   1.077   .     S
C1090  C1092   1.407   .     A
C1091  C1548   1.501   1_545 S
C1092  C1547   1.501   .     S
Cu1093 O1112   1.995   .     S
Cu1093 O1109   2.001   .     S
Cu1093 Cu1094  2.729   .     S
Cu1093 O1108   1.966   .     S
Cu1093 O1105   1.973   .     S
Cu1093 N1104   2.050   .     S
Cu1094 O1111   1.995   .     S
Cu1094 O1107   1.966   .     S
Cu1094 O1110   2.001   .     S
Cu1094 N1103   2.050   .     S
Cu1094 O1106   1.973   .     S
C1113  C1114   1.410   .     A
C1113  C1118   1.401   .     A
C1113  C1231   1.493   .     S
C1114  C1115   1.397   .     A
C1114  H1119   1.081   .     S
C1115  H1120   1.082   .     S
C1115  C1116   1.395   .     A
C1116  C1117   1.394   .     A
C1116  H1121   1.081   .     S
C1117  H1122   1.073   .     S
C1117  C1118   1.395   .     A
C1118  H1275   1.079   .     S
C1124  C1125   1.401   .     A
C1124  C1129   1.405   .     A
C1125  C1126   1.394   .     A
C1126  H1131   1.073   .     S
C1126  C1127   1.394   .     A
C1127  H1132   1.081   .     S
C1127  C1128   1.395   .     A
C1128  H1133   1.082   .     S
C1128  C1129   1.397   .     A
C1129  H1134   1.077   .     S
H1130  C1277   1.080   .     S
C1135  C1140   1.410   .     A
C1135  C1136   1.405   .     A
C1136  H1141   1.082   .     S
C1136  C1137   1.395   .     A
C1137  C1138   1.395   .     A
C1137  H1142   1.076   .     S
C1138  C1139   1.394   .     A
C1138  H1143   1.080   .     S
C1139  H1144   1.082   .     S
C1139  C1140   1.395   .     A
C1140  H1145   1.082   .     S
C1146  C1151   1.406   .     A
C1146  C1147   1.407   .     A
C1147  H1152   1.082   .     S
C1147  C1148   1.394   .     A
C1148  C1149   1.394   .     A
C1148  H1153   1.077   .     S
C1149  C1150   1.394   .     A
C1149  H1154   1.081   .     S
C1150  H1155   1.079   .     S
C1150  C1151   1.398   .     A
C1151  H1156   1.081   .     S
C1157  C1158   1.409   .     A
C1157  C1162   1.406   .     A
C1158  H1163   1.082   .     S
C1158  C1159   1.398   .     A
C1159  C1160   1.394   .     A
C1159  H1164   1.080   .     S
C1160  H1165   1.078   .     S
C1160  C1161   1.392   .     A
C1161  C1162   1.393   .     A
C1161  H1166   1.079   .     S
C1162  H1167   1.078   .     S
C1168  C1169   1.403   .     A
C1168  C1173   1.409   .     A
C1169  H1174   1.079   .     S
C1169  C1170   1.391   .     A
C1170  C1171   1.392   .     A
C1170  H1175   1.076   .     S
C1171  H1176   1.077   .     S
C1171  C1172   1.395   .     A
C1172  C1173   1.400   .     A
C1172  H1177   1.081   .     S
C1173  H1178   1.083   .     S
O1179  C1180   1.414   .     S
C1180  H1181   1.099   .     S
C1180  C1183   1.522   .     S
C1180  H1182   1.102   .     S
C1183  H1185   1.107   .     S
C1183  H1184   1.104   .     S
C1183  H1186   1.111   .     S
O1187  C1188   1.417   .     S
C1188  C1191   1.524   .     S
C1188  H1190   1.107   .     S
C1188  H1189   1.098   .     S
C1191  H1193   1.108   .     S
C1191  H1192   1.104   .     S
C1191  H1194   1.109   .     S
C1195  C1200   1.409   .     A
C1195  C1196   1.403   .     A
C1196  C1197   1.399   .     A
C1196  H1201   1.081   .     S
C1198  C285    1.399   1_556 S
C1198  C287    1.394   1_556 S
C1199  C1200   1.395   .     A
C1199  H1204   1.082   .     S
C1200  H1205   1.075   .     S
H1202  C437    1.080   1_556 S
H1203  C1350   1.080   .     S
C1206  C1211   1.404   .     A
C1206  C1207   1.402   .     A
C1207  C1208   1.400   .     A
C1207  H1212   1.076   .     S
C1208  H1213   1.082   .     S
C1208  C297    1.396   1_556 S
C1209  H1366   1.082   .     S
C1210  C1211   1.396   .     A
C1210  C297    1.396   1_556 S
C1210  H455    1.080   1_556 S
C1211  H1216   1.079   .     S
C1217  C1237   1.495   .     S
C1217  O1259   1.320   .     A
C1217  O1257   1.313   .     A
C1218  O1260   1.323   .     A
C1218  C1238   1.494   .     S
C1218  O1258   1.309   .     A
C1219  H1251   1.058   .     S
C1219  C1221   1.399   .     A
C1219  C1227   1.426   .     A
C1220  H1252   1.058   .     S
C1220  C1228   1.421   .     A
C1220  C1222   1.402   .     A
C1221  H1253   1.078   .     S
C1221  N1255   1.346   .     A
C1222  H1254   1.078   .     S
C1222  N1256   1.347   .     A
C1223  O1331   1.390   .     S
C1223  C1225   1.430   .     A
C1223  N1255   1.374   .     A
C1224  O1339   1.389   .     S
C1224  C1226   1.427   .     A
C1224  N1256   1.382   .     A
C1225  C1347   1.477   .     S
C1225  C1227   1.443   .     A
C1226  C1358   1.477   .     S
C1226  C1228   1.438   .     A
C1228  C315    1.571   1_556 S
C1229  O1263   1.313   .     A
C1229  C1231   1.464   .     S
C1229  O1261   1.302   .     A
C1230  O1262   1.302   .     A
C1230  O1264   1.310   .     A
C1230  C1232   1.457   .     S
C1232  C927    1.363   1_655 S
C1232  C972    1.487   1_655 S
C1233  C1243   1.396   .     A
C1233  H1247   1.077   .     S
C1233  C1235   1.396   .     A
C1234  C1236   1.398   .     A
C1234  C1244   1.398   .     A
C1234  H1248   1.076   .     S
C1235  C1287   1.487   .     S
C1235  C1237   1.425   .     A
C1236  C1298   1.492   .     S
C1236  C1238   1.427   .     A
C1237  C1239   1.425   .     A
C1238  C1240   1.421   .     A
C1239  C1309   1.496   .     S
C1239  C1241   1.402   .     A
C1240  C1242   1.399   .     A
C1240  C1320   1.490   .     S
C1241  C1243   1.407   .     A
C1241  H1249   1.076   .     S
C1242  H1250   1.077   .     S
C1242  C1244   1.407   .     A
C1243  C1700   1.501   1_545 S
C1244  C1699   1.501   .     S
Cu1245 O1264   1.995   .     S
Cu1245 O1261   2.001   .     S
Cu1245 Cu1246  2.729   .     S
Cu1245 O1260   1.966   .     S
Cu1245 O1257   1.973   .     S
Cu1245 N1256   2.050   .     S
Cu1246 O1263   1.995   .     S
Cu1246 O1259   1.966   .     S
Cu1246 O1262   2.001   .     S
Cu1246 N1255   2.050   .     S
Cu1246 O1258   1.973   .     S
C1265  C1266   1.410   .     A
C1265  C1270   1.401   .     A
C1265  C927    1.493   1_655 S
C1266  C1267   1.397   .     A
C1266  H1271   1.081   .     S
C1267  H1272   1.082   .     S
C1267  C1268   1.395   .     A
C1268  C1269   1.394   .     A
C1268  H1273   1.081   .     S
C1269  H1274   1.073   .     S
C1269  C1270   1.395   .     A
C1270  H971    1.079   1_655 S
C1276  C1277   1.401   .     A
C1276  C1281   1.405   .     A
C1277  C1278   1.394   .     A
C1278  H1283   1.073   .     S
C1278  C1279   1.394   .     A
C1279  H1284   1.081   .     S
C1279  C1280   1.395   .     A
C1280  H1285   1.082   .     S
C1280  C1281   1.397   .     A
C1281  H1286   1.077   .     S
H1282  C973    1.080   1_655 S
C1287  C1292   1.410   .     A
C1287  C1288   1.405   .     A
C1288  H1293   1.082   .     S
C1288  C1289   1.395   .     A
C1289  C1290   1.395   .     A
C1289  H1294   1.076   .     S
C1290  C1291   1.394   .     A
C1290  H1295   1.080   .     S
C1291  H1296   1.082   .     S
C1291  C1292   1.395   .     A
C1292  H1297   1.082   .     S
C1298  C1303   1.406   .     A
C1298  C1299   1.407   .     A
C1299  H1304   1.082   .     S
C1299  C1300   1.394   .     A
C1300  C1301   1.394   .     A
C1300  H1305   1.077   .     S
C1301  C1302   1.394   .     A
C1301  H1306   1.081   .     S
C1302  H1307   1.079   .     S
C1302  C1303   1.398   .     A
C1303  H1308   1.081   .     S
C1309  C1310   1.409   .     A
C1309  C1314   1.406   .     A
C1310  H1315   1.082   .     S
C1310  C1311   1.398   .     A
C1311  C1312   1.394   .     A
C1311  H1316   1.080   .     S
C1312  H1317   1.078   .     S
C1312  C1313   1.392   .     A
C1313  C1314   1.393   .     A
C1313  H1318   1.079   .     S
C1314  H1319   1.078   .     S
C1320  C1321   1.403   .     A
C1320  C1325   1.409   .     A
C1321  H1326   1.079   .     S
C1321  C1322   1.391   .     A
C1322  C1323   1.392   .     A
C1322  H1327   1.076   .     S
C1323  H1328   1.077   .     S
C1323  C1324   1.395   .     A
C1324  C1325   1.400   .     A
C1324  H1329   1.081   .     S
C1325  H1330   1.083   .     S
O1331  C1332   1.414   .     S
C1332  H1333   1.099   .     S
C1332  C1335   1.522   .     S
C1332  H1334   1.102   .     S
C1335  H1337   1.107   .     S
C1335  H1336   1.104   .     S
C1335  H1338   1.111   .     S
O1339  C1340   1.417   .     S
C1340  C1343   1.524   .     S
C1340  H1342   1.107   .     S
C1340  H1341   1.098   .     S
C1343  H1345   1.108   .     S
C1343  H1344   1.104   .     S
C1343  H1346   1.109   .     S
C1347  C1352   1.409   .     A
C1347  C1348   1.403   .     A
C1348  C1349   1.399   .     A
C1348  H1353   1.081   .     S
C1350  C437    1.399   1_556 S
C1350  C439    1.394   1_556 S
C1351  C1352   1.395   .     A
C1351  H1356   1.082   .     S
C1352  H1357   1.075   .     S
H1354  C133    1.080   1_656 S
H1355  C1046   1.080   1_655 S
C1358  C1363   1.404   .     A
C1358  C1359   1.402   .     A
C1359  C1360   1.400   .     A
C1359  H1364   1.076   .     S
C1360  H1365   1.082   .     S
C1360  C449    1.396   1_556 S
C1361  H1062   1.082   1_655 S
C1362  C1363   1.396   .     A
C1362  C449    1.396   1_556 S
C1362  H151    1.080   1_656 S
C1363  H1368   1.079   .     S
C1369  C1389   1.495   .     S
C1369  O1411   1.320   .     A
C1369  O1409   1.313   .     A
C1370  O1412   1.323   .     A
C1370  C1390   1.494   .     S
C1370  O1410   1.309   .     A
C1371  H1403   1.058   .     S
C1371  C1373   1.399   .     A
C1371  C1379   1.426   .     A
C1372  H1404   1.058   .     S
C1372  C1380   1.421   .     A
C1372  C1374   1.402   .     A
C1373  H1405   1.078   .     S
C1373  N1407   1.346   .     A
C1374  H1406   1.078   .     S
C1374  N1408   1.347   .     A
C1375  O1483   1.390   .     S
C1375  C1377   1.430   .     A
C1375  N1407   1.374   .     A
C1376  O1491   1.389   .     S
C1376  C1378   1.427   .     A
C1376  N1408   1.382   .     A
C1377  C1499   1.477   .     S
C1377  C1379   1.443   .     A
C1378  C1510   1.477   .     S
C1378  C1380   1.438   .     A
C1380  C467    1.571   1_556 S
C1381  O1415   1.313   .     A
C1381  C1383   1.464   .     S
C1381  O1413   1.302   .     A
C1382  O1414   1.302   .     A
C1382  O1416   1.310   .     A
C1382  C1384   1.457   .     S
C1383  C1688   1.363   1_455 S
C1383  C1721   1.493   1_455 S
C1384  C1535   1.363   .     S
C1384  C1580   1.487   .     S
C1385  C1395   1.396   .     A
C1385  H1399   1.077   .     S
C1385  C1387   1.396   .     A
C1386  C1388   1.398   .     A
C1386  C1396   1.398   .     A
C1386  H1400   1.076   .     S
C1387  C1439   1.487   .     S
C1387  C1389   1.425   .     A
C1388  C1450   1.492   .     S
C1388  C1390   1.427   .     A
C1389  C1391   1.425   .     A
C1390  C1392   1.421   .     A
C1391  C1461   1.496   .     S
C1391  C1393   1.402   .     A
C1392  C1394   1.399   .     A
C1392  C1472   1.490   .     S
C1393  C1395   1.407   .     A
C1393  H1401   1.076   .     S
C1394  H1402   1.077   .     S
C1394  C1396   1.407   .     A
C1396  C939    1.501   1_565 S
Cu1397 O1416   1.995   .     S
Cu1397 O1413   2.001   .     S
Cu1397 Cu1398  2.729   .     S
Cu1397 O1412   1.966   .     S
Cu1397 O1409   1.973   .     S
Cu1397 N1408   2.050   .     S
Cu1398 O1415   1.995   .     S
Cu1398 O1411   1.966   .     S
Cu1398 O1414   2.001   .     S
Cu1398 N1407   2.050   .     S
Cu1398 O1410   1.973   .     S
C1417  C1418   1.410   .     A
C1417  C1422   1.401   .     A
C1417  C1535   1.493   .     S
C1418  C1419   1.397   .     A
C1418  H1423   1.081   .     S
C1419  H1424   1.082   .     S
C1419  C1420   1.395   .     A
C1420  C1421   1.394   .     A
C1420  H1425   1.081   .     S
C1421  H1426   1.073   .     S
C1421  C1422   1.395   .     A
C1422  H1579   1.079   .     S
H1427  C1726   1.079   1_455 S
C1428  C1429   1.401   .     A
C1428  C1433   1.405   .     A
C1428  C1688   1.487   1_455 S
C1429  C1430   1.394   .     A
C1429  H1738   1.080   1_455 S
C1430  H1435   1.073   .     S
C1430  C1431   1.394   .     A
C1431  H1436   1.081   .     S
C1431  C1432   1.395   .     A
C1432  H1437   1.082   .     S
C1432  C1433   1.397   .     A
C1433  H1438   1.077   .     S
H1434  C1581   1.080   .     S
C1439  C1444   1.410   .     A
C1439  C1440   1.405   .     A
C1440  H1445   1.082   .     S
C1440  C1441   1.395   .     A
C1441  C1442   1.395   .     A
C1441  H1446   1.076   .     S
C1442  C1443   1.394   .     A
C1442  H1447   1.080   .     S
C1443  H1448   1.082   .     S
C1443  C1444   1.395   .     A
C1444  H1449   1.082   .     S
C1450  C1455   1.406   .     A
C1450  C1451   1.407   .     A
C1451  H1456   1.082   .     S
C1451  C1452   1.394   .     A
C1452  C1453   1.394   .     A
C1452  H1457   1.077   .     S
C1453  C1454   1.394   .     A
C1453  H1458   1.081   .     S
C1454  H1459   1.079   .     S
C1454  C1455   1.398   .     A
C1455  H1460   1.081   .     S
C1461  C1462   1.409   .     A
C1461  C1466   1.406   .     A
C1462  H1467   1.082   .     S
C1462  C1463   1.398   .     A
C1463  C1464   1.394   .     A
C1463  H1468   1.080   .     S
C1464  H1469   1.078   .     S
C1464  C1465   1.392   .     A
C1465  C1466   1.393   .     A
C1465  H1470   1.079   .     S
C1466  H1471   1.078   .     S
C1472  C1473   1.403   .     A
C1472  C1477   1.409   .     A
C1473  H1478   1.079   .     S
C1473  C1474   1.391   .     A
C1474  C1475   1.392   .     A
C1474  H1479   1.076   .     S
C1475  H1480   1.077   .     S
C1475  C1476   1.395   .     A
C1476  C1477   1.400   .     A
C1476  H1481   1.081   .     S
C1477  H1482   1.083   .     S
O1483  C1484   1.414   .     S
C1484  H1485   1.099   .     S
C1484  C1487   1.522   .     S
C1484  H1486   1.102   .     S
C1487  H1489   1.107   .     S
C1487  H1488   1.104   .     S
C1487  H1490   1.111   .     S
O1491  C1492   1.417   .     S
C1492  C1495   1.524   .     S
C1492  H1494   1.107   .     S
C1492  H1493   1.098   .     S
C1495  H1497   1.108   .     S
C1495  H1496   1.104   .     S
C1495  H1498   1.109   .     S
C1499  C1504   1.409   .     A
C1499  C1500   1.403   .     A
C1500  C1501   1.399   .     A
C1500  H1505   1.081   .     S
C1501  H898    1.080   1_455 S
C1502  C589    1.399   1_556 S
C1502  C591    1.394   1_556 S
C1502  H1811   1.080   1_455 S
C1503  C1504   1.395   .     A
C1503  H1508   1.082   .     S
C1504  H1509   1.075   .     S
H1506  C741    1.080   1_556 S
H1507  C1654   1.080   .     S
C1510  C1515   1.404   .     A
C1510  C1511   1.402   .     A
C1511  C1512   1.400   .     A
C1511  H1516   1.076   .     S
C1512  H1517   1.082   .     S
C1512  C601    1.396   1_556 S
C1513  H1670   1.082   .     S
C1514  C1515   1.396   .     A
C1514  C601    1.396   1_556 S
C1514  H759    1.080   1_556 S
C1515  H1520   1.079   .     S
H1518  C1817   1.082   1_455 S
H1519  C906    1.080   1_455 S
C1521  C1541   1.495   .     S
C1521  O1563   1.320   .     A
C1521  O1561   1.313   .     A
C1522  O1564   1.323   .     A
C1522  C1542   1.494   .     S
C1522  O1562   1.309   .     A
C1523  H1555   1.058   .     S
C1523  C1525   1.399   .     A
C1523  C1531   1.426   .     A
C1524  H1556   1.058   .     S
C1524  C1532   1.421   .     A
C1524  C1526   1.402   .     A
C1525  H1557   1.078   .     S
C1525  N1559   1.346   .     A
C1526  H1558   1.078   .     S
C1526  N1560   1.347   .     A
C1527  O1635   1.390   .     S
C1527  C1529   1.430   .     A
C1527  N1559   1.374   .     A
C1528  O1643   1.389   .     S
C1528  C1530   1.427   .     A
C1528  N1560   1.382   .     A
C1529  C1651   1.477   .     S
C1529  C1531   1.443   .     A
C1530  C1662   1.477   .     S
C1530  C1532   1.438   .     A
C1532  C619    1.571   1_556 S
C1533  O1567   1.313   .     A
C1533  C1535   1.464   .     S
C1533  O1565   1.302   .     A
C1534  O1566   1.302   .     A
C1534  O1568   1.310   .     A
C1534  C1536   1.457   .     S
C1536  C1687   1.363   .     S
C1536  C1732   1.487   .     S
C1537  C1547   1.396   .     A
C1537  H1551   1.077   .     S
C1537  C1539   1.396   .     A
C1538  C1540   1.398   .     A
C1538  C1548   1.398   .     A
C1538  H1552   1.076   .     S
C1539  C1591   1.487   .     S
C1539  C1541   1.425   .     A
C1540  C1602   1.492   .     S
C1540  C1542   1.427   .     A
C1541  C1543   1.425   .     A
C1542  C1544   1.421   .     A
C1543  C1613   1.496   .     S
C1543  C1545   1.402   .     A
C1544  C1546   1.399   .     A
C1544  C1624   1.490   .     S
C1545  C1547   1.407   .     A
C1545  H1553   1.076   .     S
C1546  H1554   1.077   .     S
C1546  C1548   1.407   .     A
C1548  C1091   1.501   1_565 S
Cu1549 O1568   1.995   .     S
Cu1549 O1565   2.001   .     S
Cu1549 Cu1550  2.729   .     S
Cu1549 O1564   1.966   .     S
Cu1549 O1561   1.973   .     S
Cu1549 N1560   2.050   .     S
Cu1550 O1567   1.995   .     S
Cu1550 O1563   1.966   .     S
Cu1550 O1566   2.001   .     S
Cu1550 N1559   2.050   .     S
Cu1550 O1562   1.973   .     S
C1569  C1570   1.410   .     A
C1569  C1574   1.401   .     A
C1569  C1687   1.493   .     S
C1570  C1571   1.397   .     A
C1570  H1575   1.081   .     S
C1571  H1576   1.082   .     S
C1571  C1572   1.395   .     A
C1572  C1573   1.394   .     A
C1572  H1577   1.081   .     S
C1573  H1578   1.073   .     S
C1573  C1574   1.395   .     A
C1574  H1731   1.079   .     S
C1580  C1581   1.401   .     A
C1580  C1585   1.405   .     A
C1581  C1582   1.394   .     A
C1582  H1587   1.073   .     S
C1582  C1583   1.394   .     A
C1583  H1588   1.081   .     S
C1583  C1584   1.395   .     A
C1584  H1589   1.082   .     S
C1584  C1585   1.397   .     A
C1585  H1590   1.077   .     S
H1586  C1733   1.080   .     S
C1591  C1596   1.410   .     A
C1591  C1592   1.405   .     A
C1592  H1597   1.082   .     S
C1592  C1593   1.395   .     A
C1593  C1594   1.395   .     A
C1593  H1598   1.076   .     S
C1594  C1595   1.394   .     A
C1594  H1599   1.080   .     S
C1595  H1600   1.082   .     S
C1595  C1596   1.395   .     A
C1596  H1601   1.082   .     S
C1602  C1607   1.406   .     A
C1602  C1603   1.407   .     A
C1603  H1608   1.082   .     S
C1603  C1604   1.394   .     A
C1604  C1605   1.394   .     A
C1604  H1609   1.077   .     S
C1605  C1606   1.394   .     A
C1605  H1610   1.081   .     S
C1606  H1611   1.079   .     S
C1606  C1607   1.398   .     A
C1607  H1612   1.081   .     S
C1613  C1614   1.409   .     A
C1613  C1618   1.406   .     A
C1614  H1619   1.082   .     S
C1614  C1615   1.398   .     A
C1615  C1616   1.394   .     A
C1615  H1620   1.080   .     S
C1616  H1621   1.078   .     S
C1616  C1617   1.392   .     A
C1617  C1618   1.393   .     A
C1617  H1622   1.079   .     S
C1618  H1623   1.078   .     S
C1624  C1625   1.403   .     A
C1624  C1629   1.409   .     A
C1625  H1630   1.079   .     S
C1625  C1626   1.391   .     A
C1626  C1627   1.392   .     A
C1626  H1631   1.076   .     S
C1627  H1632   1.077   .     S
C1627  C1628   1.395   .     A
C1628  C1629   1.400   .     A
C1628  H1633   1.081   .     S
C1629  H1634   1.083   .     S
O1635  C1636   1.414   .     S
C1636  H1637   1.099   .     S
C1636  C1639   1.522   .     S
C1636  H1638   1.102   .     S
C1639  H1641   1.107   .     S
C1639  H1640   1.104   .     S
C1639  H1642   1.111   .     S
O1643  C1644   1.417   .     S
C1644  C1647   1.524   .     S
C1644  H1646   1.107   .     S
C1644  H1645   1.098   .     S
C1647  H1649   1.108   .     S
C1647  H1648   1.104   .     S
C1647  H1650   1.109   .     S
C1651  C1656   1.409   .     A
C1651  C1652   1.403   .     A
C1652  C1653   1.399   .     A
C1652  H1657   1.081   .     S
C1654  C741    1.399   1_556 S
C1654  C743    1.394   1_556 S
C1655  C1656   1.395   .     A
C1655  H1660   1.082   .     S
C1656  H1661   1.075   .     S
H1658  C893    1.080   1_556 S
H1659  C1806   1.080   .     S
C1662  C1667   1.404   .     A
C1662  C1663   1.402   .     A
C1663  C1664   1.400   .     A
C1663  H1668   1.076   .     S
C1664  H1669   1.082   .     S
C1664  C753    1.396   1_556 S
C1665  H1822   1.082   .     S
C1666  C1667   1.396   .     A
C1666  C753    1.396   1_556 S
C1666  H911    1.080   1_556 S
C1667  H1672   1.079   .     S
C1673  C1693   1.495   .     S
C1673  O1715   1.320   .     A
C1673  O1713   1.313   .     A
C1674  O1716   1.323   .     A
C1674  C1694   1.494   .     S
C1674  O1714   1.309   .     A
C1675  H1707   1.058   .     S
C1675  C1677   1.399   .     A
C1675  C1683   1.426   .     A
C1676  H1708   1.058   .     S
C1676  C1684   1.421   .     A
C1676  C1678   1.402   .     A
C1677  H1709   1.078   .     S
C1677  N1711   1.346   .     A
C1678  H1710   1.078   .     S
C1678  N1712   1.347   .     A
C1679  O1787   1.390   .     S
C1679  C1681   1.430   .     A
C1679  N1711   1.374   .     A
C1680  O1795   1.389   .     S
C1680  C1682   1.427   .     A
C1680  N1712   1.382   .     A
C1681  C1803   1.477   .     S
C1681  C1683   1.443   .     A
C1682  C1814   1.477   .     S
C1682  C1684   1.438   .     A
C1684  C771    1.571   1_556 S
C1685  O1719   1.313   .     A
C1685  C1687   1.464   .     S
C1685  O1717   1.302   .     A
C1686  O1718   1.302   .     A
C1686  O1720   1.310   .     A
C1686  C1688   1.457   .     S
C1688  C1383   1.363   1_655 S
C1688  C1428   1.487   1_655 S
C1689  C1699   1.396   .     A
C1689  H1703   1.077   .     S
C1689  C1691   1.396   .     A
C1690  C1692   1.398   .     A
C1690  C1700   1.398   .     A
C1690  H1704   1.076   .     S
C1691  C1743   1.487   .     S
C1691  C1693   1.425   .     A
C1692  C1754   1.492   .     S
C1692  C1694   1.427   .     A
C1693  C1695   1.425   .     A
C1694  C1696   1.421   .     A
C1695  C1765   1.496   .     S
C1695  C1697   1.402   .     A
C1696  C1698   1.399   .     A
C1696  C1776   1.490   .     S
C1697  C1699   1.407   .     A
C1697  H1705   1.076   .     S
C1698  H1706   1.077   .     S
C1698  C1700   1.407   .     A
C1700  C1243   1.501   1_565 S
Cu1701 O1720   1.995   .     S
Cu1701 O1717   2.001   .     S
Cu1701 Cu1702  2.729   .     S
Cu1701 O1716   1.966   .     S
Cu1701 O1713   1.973   .     S
Cu1701 N1712   2.050   .     S
Cu1702 O1719   1.995   .     S
Cu1702 O1715   1.966   .     S
Cu1702 O1718   2.001   .     S
Cu1702 N1711   2.050   .     S
Cu1702 O1714   1.973   .     S
C1721  C1722   1.410   .     A
C1721  C1726   1.401   .     A
C1721  C1383   1.493   1_655 S
C1722  C1723   1.397   .     A
C1722  H1727   1.081   .     S
C1723  H1728   1.082   .     S
C1723  C1724   1.395   .     A
C1724  C1725   1.394   .     A
C1724  H1729   1.081   .     S
C1725  H1730   1.073   .     S
C1725  C1726   1.395   .     A
C1726  H1427   1.079   1_655 S
C1732  C1733   1.401   .     A
C1732  C1737   1.405   .     A
C1733  C1734   1.394   .     A
C1734  H1739   1.073   .     S
C1734  C1735   1.394   .     A
C1735  H1740   1.081   .     S
C1735  C1736   1.395   .     A
C1736  H1741   1.082   .     S
C1736  C1737   1.397   .     A
C1737  H1742   1.077   .     S
H1738  C1429   1.080   1_655 S
C1743  C1748   1.410   .     A
C1743  C1744   1.405   .     A
C1744  H1749   1.082   .     S
C1744  C1745   1.395   .     A
C1745  C1746   1.395   .     A
C1745  H1750   1.076   .     S
C1746  C1747   1.394   .     A
C1746  H1751   1.080   .     S
C1747  H1752   1.082   .     S
C1747  C1748   1.395   .     A
C1748  H1753   1.082   .     S
C1754  C1759   1.406   .     A
C1754  C1755   1.407   .     A
C1755  H1760   1.082   .     S
C1755  C1756   1.394   .     A
C1756  C1757   1.394   .     A
C1756  H1761   1.077   .     S
C1757  C1758   1.394   .     A
C1757  H1762   1.081   .     S
C1758  H1763   1.079   .     S
C1758  C1759   1.398   .     A
C1759  H1764   1.081   .     S
C1765  C1766   1.409   .     A
C1765  C1770   1.406   .     A
C1766  H1771   1.082   .     S
C1766  C1767   1.398   .     A
C1767  C1768   1.394   .     A
C1767  H1772   1.080   .     S
C1768  H1773   1.078   .     S
C1768  C1769   1.392   .     A
C1769  C1770   1.393   .     A
C1769  H1774   1.079   .     S
C1770  H1775   1.078   .     S
C1776  C1777   1.403   .     A
C1776  C1781   1.409   .     A
C1777  H1782   1.079   .     S
C1777  C1778   1.391   .     A
C1778  C1779   1.392   .     A
C1778  H1783   1.076   .     S
C1779  H1784   1.077   .     S
C1779  C1780   1.395   .     A
C1780  C1781   1.400   .     A
C1780  H1785   1.081   .     S
C1781  H1786   1.083   .     S
O1787  C1788   1.414   .     S
C1788  H1789   1.099   .     S
C1788  C1791   1.522   .     S
C1788  H1790   1.102   .     S
C1791  H1793   1.107   .     S
C1791  H1792   1.104   .     S
C1791  H1794   1.111   .     S
O1795  C1796   1.417   .     S
C1796  C1799   1.524   .     S
C1796  H1798   1.107   .     S
C1796  H1797   1.098   .     S
C1799  H1801   1.108   .     S
C1799  H1800   1.104   .     S
C1799  H1802   1.109   .     S
C1803  C1808   1.409   .     A
C1803  C1804   1.403   .     A
C1804  C1805   1.399   .     A
C1804  H1809   1.081   .     S
C1806  C893    1.399   1_556 S
C1806  C895    1.394   1_556 S
C1807  C1808   1.395   .     A
C1807  H1812   1.082   .     S
C1808  H1813   1.075   .     S
H1810  C589    1.080   1_656 S
H1811  C1502   1.080   1_655 S
C1814  C1819   1.404   .     A
C1814  C1815   1.402   .     A
C1815  C1816   1.400   .     A
C1815  H1820   1.076   .     S
C1816  H1821   1.082   .     S
C1816  C905    1.396   1_556 S
C1817  H1518   1.082   1_655 S
C1818  C1819   1.396   .     A
C1818  C905    1.396   1_556 S
C1818  H607    1.080   1_656 S
C1819  H1824   1.079   .     S
